data_image0
_cell_length_a       21.5
_cell_length_b       27.568
_cell_length_c       7.428
_cell_angle_alpha    90
_cell_angle_beta     90
_cell_angle_gamma    90

_symmetry_space_group_name_H-M    "P 1"
_symmetry_int_tables_number       1

loop_
  _symmetry_equiv_pos_as_xyz
  'x, y, z'

loop_
  _atom_site_label
  _atom_site_occupancy
  _atom_site_fract_x
  _atom_site_fract_y
  _atom_site_fract_z
  _atom_site_thermal_displace_type
  _atom_site_B_iso_or_equiv
  _atom_site_type_symbol
  Cu1      1.0000 0.31187  0.25050  0.01110  Biso   1.000  Cu
  Cu2      1.0000 0.81187  0.75050  0.01110  Biso   1.000  Cu
  Cu3      1.0000 0.68813  0.24950  0.51110  Biso   1.000  Cu
  Cu4      1.0000 0.68813  0.75050  0.48890  Biso   1.000  Cu
  Cu5      1.0000 0.31187  0.74950  0.98890  Biso   1.000  Cu
  Cu6      1.0000 0.18813  0.74950  0.51110  Biso   1.000  Cu
  Cu7      1.0000 0.18813  0.25050  0.48890  Biso   1.000  Cu
  Cu8      1.0000 0.81187  0.24950  0.98890  Biso   1.000  Cu
  Cu9      1.0000 0.68813  0.74950  0.98890  Biso   1.000  Cu
  Cu10     1.0000 0.18813  0.24950  0.98890  Biso   1.000  Cu
  Cu11     1.0000 0.31187  0.75050  0.48890  Biso   1.000  Cu
  Cu12     1.0000 0.31187  0.24950  0.51110  Biso   1.000  Cu
  Cu13     1.0000 0.68813  0.25050  0.01110  Biso   1.000  Cu
  Cu14     1.0000 0.81187  0.25050  0.48890  Biso   1.000  Cu
  Cu15     1.0000 0.81187  0.74950  0.51110  Biso   1.000  Cu
  Cu16     1.0000 0.18813  0.75050  0.01110  Biso   1.000  Cu
  Br1      1.0000 0.25000  0.30163  0.25000  Biso   1.000  Br
  Br2      1.0000 0.75000  0.80163  0.25000  Biso   1.000  Br
  Br3      1.0000 0.75000  0.19837  0.75000  Biso   1.000  Br
  Br4      1.0000 0.25000  0.69837  0.75000  Biso   1.000  Br
  Br5      1.0000 0.75000  0.69837  0.75000  Biso   1.000  Br
  Br6      1.0000 0.25000  0.19837  0.75000  Biso   1.000  Br
  Br7      1.0000 0.25000  0.80163  0.25000  Biso   1.000  Br
  Br8      1.0000 0.75000  0.30163  0.25000  Biso   1.000  Br
  N1       1.0000 0.36480  0.20540  0.17180  Biso   1.000  N
  N2       1.0000 0.86480  0.70540  0.17180  Biso   1.000  N
  N3       1.0000 0.63520  0.29460  0.67180  Biso   1.000  N
  N4       1.0000 0.63520  0.70540  0.32820  Biso   1.000  N
  N5       1.0000 0.36480  0.79460  0.82820  Biso   1.000  N
  N6       1.0000 0.13520  0.79460  0.67180  Biso   1.000  N
  N7       1.0000 0.13520  0.20540  0.32820  Biso   1.000  N
  N8       1.0000 0.86480  0.29460  0.82820  Biso   1.000  N
  N9       1.0000 0.63520  0.79460  0.82820  Biso   1.000  N
  N10      1.0000 0.13520  0.29460  0.82820  Biso   1.000  N
  N11      1.0000 0.36480  0.70540  0.32820  Biso   1.000  N
  N12      1.0000 0.36480  0.29460  0.67180  Biso   1.000  N
  N13      1.0000 0.63520  0.20540  0.17180  Biso   1.000  N
  N14      1.0000 0.86480  0.20540  0.32820  Biso   1.000  N
  N15      1.0000 0.86480  0.79460  0.67180  Biso   1.000  N
  N16      1.0000 0.13520  0.70540  0.17180  Biso   1.000  N
  C1       1.0000 0.41200  0.17570  0.40270  Biso   1.000  C
  C2       1.0000 0.91200  0.67570  0.40270  Biso   1.000  C
  C3       1.0000 0.58800  0.32430  0.90270  Biso   1.000  C
  C4       1.0000 0.58800  0.67570  0.09730  Biso   1.000  C
  C5       1.0000 0.41200  0.82430  0.59730  Biso   1.000  C
  C6       1.0000 0.08800  0.82430  0.90270  Biso   1.000  C
  C7       1.0000 0.08800  0.17570  0.09730  Biso   1.000  C
  C8       1.0000 0.91200  0.32430  0.59730  Biso   1.000  C
  C9       1.0000 0.58800  0.82430  0.59730  Biso   1.000  C
  C10      1.0000 0.08800  0.32430  0.59730  Biso   1.000  C
  C11      1.0000 0.41200  0.67570  0.09730  Biso   1.000  C
  C12      1.0000 0.41200  0.32430  0.90270  Biso   1.000  C
  C13      1.0000 0.58800  0.17570  0.40270  Biso   1.000  C
  C14      1.0000 0.91200  0.17570  0.09730  Biso   1.000  C
  C15      1.0000 0.91200  0.82430  0.90270  Biso   1.000  C
  C16      1.0000 0.08800  0.67570  0.40270  Biso   1.000  C
  C17      1.0000 0.36340  0.20360  0.34390  Biso   1.000  C
  C18      1.0000 0.86340  0.70360  0.34390  Biso   1.000  C
  C19      1.0000 0.63660  0.29640  0.84390  Biso   1.000  C
  C20      1.0000 0.63660  0.70360  0.15610  Biso   1.000  C
  C21      1.0000 0.36340  0.79640  0.65610  Biso   1.000  C
  C22      1.0000 0.13660  0.79640  0.84390  Biso   1.000  C
  C23      1.0000 0.13660  0.20360  0.15610  Biso   1.000  C
  C24      1.0000 0.86340  0.29640  0.65610  Biso   1.000  C
  C25      1.0000 0.63660  0.79640  0.65610  Biso   1.000  C
  C26      1.0000 0.13660  0.29640  0.65610  Biso   1.000  C
  C27      1.0000 0.36340  0.70360  0.15610  Biso   1.000  C
  C28      1.0000 0.36340  0.29640  0.84390  Biso   1.000  C
  C29      1.0000 0.63660  0.20360  0.34390  Biso   1.000  C
  C30      1.0000 0.86340  0.20360  0.15610  Biso   1.000  C
  C31      1.0000 0.86340  0.79640  0.84390  Biso   1.000  C
  C32      1.0000 0.13660  0.70360  0.34390  Biso   1.000  C
  N17      1.0000 0.44150  0.16200  0.25490  Biso   1.000  N
  N18      1.0000 0.94150  0.66200  0.25490  Biso   1.000  N
  N19      1.0000 0.55850  0.33800  0.75490  Biso   1.000  N
  N20      1.0000 0.55850  0.66200  0.24510  Biso   1.000  N
  N21      1.0000 0.44150  0.83800  0.74510  Biso   1.000  N
  N22      1.0000 0.05850  0.83800  0.75490  Biso   1.000  N
  N23      1.0000 0.05850  0.16200  0.24510  Biso   1.000  N
  N24      1.0000 0.94150  0.33800  0.74510  Biso   1.000  N
  N25      1.0000 0.55850  0.83800  0.74510  Biso   1.000  N
  N26      1.0000 0.05850  0.33800  0.74510  Biso   1.000  N
  N27      1.0000 0.44150  0.66200  0.24510  Biso   1.000  N
  N28      1.0000 0.44150  0.33800  0.75490  Biso   1.000  N
  N29      1.0000 0.55850  0.16200  0.25490  Biso   1.000  N
  N30      1.0000 0.94150  0.16200  0.24510  Biso   1.000  N
  N31      1.0000 0.94150  0.83800  0.75490  Biso   1.000  N
  N32      1.0000 0.05850  0.66200  0.25490  Biso   1.000  N
  C33      1.0000 0.41310  0.17940  0.10990  Biso   1.000  C
  C34      1.0000 0.91310  0.67940  0.10990  Biso   1.000  C
  C35      1.0000 0.58690  0.32060  0.60990  Biso   1.000  C
  C36      1.0000 0.58690  0.67940  0.39010  Biso   1.000  C
  C37      1.0000 0.41310  0.82060  0.89010  Biso   1.000  C
  C38      1.0000 0.08690  0.82060  0.60990  Biso   1.000  C
  C39      1.0000 0.08690  0.17940  0.39010  Biso   1.000  C
  C40      1.0000 0.91310  0.32060  0.89010  Biso   1.000  C
  C41      1.0000 0.58690  0.82060  0.89010  Biso   1.000  C
  C42      1.0000 0.08690  0.32060  0.89010  Biso   1.000  C
  C43      1.0000 0.41310  0.67940  0.39010  Biso   1.000  C
  C44      1.0000 0.41310  0.32060  0.60990  Biso   1.000  C
  C45      1.0000 0.58690  0.17940  0.10990  Biso   1.000  C
  C46      1.0000 0.91310  0.17940  0.39010  Biso   1.000  C
  C47      1.0000 0.91310  0.82060  0.60990  Biso   1.000  C
  C48      1.0000 0.08690  0.67940  0.10990  Biso   1.000  C
  C49      1.0000 0.50000  0.13350  0.25400  Biso   1.000  C
  C50      1.0000 0.00000  0.63350  0.25400  Biso   1.000  C
  C51      1.0000 0.50000  0.36650  0.75400  Biso   1.000  C
  C52      1.0000 0.50000  0.63350  0.24600  Biso   1.000  C
  C53      1.0000 0.50000  0.86650  0.74600  Biso   1.000  C
  C54      1.0000 0.00000  0.86650  0.75400  Biso   1.000  C
  C55      1.0000 0.00000  0.13350  0.24600  Biso   1.000  C
  C56      1.0000 0.00000  0.36650  0.74600  Biso   1.000  C
  H1       1.0000 0.50000  0.11270  0.15010  Biso   1.000  H
  H2       1.0000 0.00000  0.61270  0.15010  Biso   1.000  H
  H3       1.0000 0.50000  0.38730  0.65010  Biso   1.000  H
  H4       1.0000 0.50000  0.61270  0.34990  Biso   1.000  H
  H5       1.0000 0.50000  0.88730  0.84990  Biso   1.000  H
  H6       1.0000 0.00000  0.88730  0.65010  Biso   1.000  H
  H7       1.0000 0.00000  0.11270  0.34990  Biso   1.000  H
  H8       1.0000 0.00000  0.38730  0.84990  Biso   1.000  H
  H9       1.0000 0.50000  0.11310  0.35860  Biso   1.000  H
  H10      1.0000 0.00000  0.61310  0.35860  Biso   1.000  H
  H11      1.0000 0.50000  0.38690  0.85860  Biso   1.000  H
  H12      1.0000 0.50000  0.61310  0.14140  Biso   1.000  H
  H13      1.0000 0.50000  0.88690  0.64140  Biso   1.000  H
  H14      1.0000 0.00000  0.88690  0.85860  Biso   1.000  H
  H15      1.0000 0.00000  0.11310  0.14140  Biso   1.000  H
  H16      1.0000 0.00000  0.38690  0.64140  Biso   1.000  H
  C57      1.0000 0.43890  0.17920  0.93000  Biso   1.000  C
  C58      1.0000 0.93890  0.67920  0.93000  Biso   1.000  C
  C59      1.0000 0.56110  0.32080  0.43000  Biso   1.000  C
  C60      1.0000 0.56110  0.67920  0.57000  Biso   1.000  C
  C61      1.0000 0.43890  0.82080  0.07000  Biso   1.000  C
  C62      1.0000 0.06110  0.82080  0.43000  Biso   1.000  C
  C63      1.0000 0.06110  0.17920  0.57000  Biso   1.000  C
  C64      1.0000 0.93890  0.32080  0.07000  Biso   1.000  C
  C65      1.0000 0.56110  0.82080  0.07000  Biso   1.000  C
  C66      1.0000 0.06110  0.32080  0.07000  Biso   1.000  C
  C67      1.0000 0.43890  0.67920  0.57000  Biso   1.000  C
  C68      1.0000 0.43890  0.32080  0.43000  Biso   1.000  C
  C69      1.0000 0.56110  0.17920  0.93000  Biso   1.000  C
  C70      1.0000 0.93890  0.17920  0.57000  Biso   1.000  C
  C71      1.0000 0.93890  0.82080  0.43000  Biso   1.000  C
  C72      1.0000 0.06110  0.67920  0.93000  Biso   1.000  C
  H17      1.0000 0.47310  0.15690  0.92280  Biso   1.000  H
  H18      1.0000 0.97310  0.65690  0.92280  Biso   1.000  H
  H19      1.0000 0.52690  0.34310  0.42280  Biso   1.000  H
  H20      1.0000 0.52690  0.65690  0.57720  Biso   1.000  H
  H21      1.0000 0.47310  0.84310  0.07720  Biso   1.000  H
  H22      1.0000 0.02690  0.84310  0.42280  Biso   1.000  H
  H23      1.0000 0.02690  0.15690  0.57720  Biso   1.000  H
  H24      1.0000 0.97310  0.34310  0.07720  Biso   1.000  H
  H25      1.0000 0.52690  0.84310  0.07720  Biso   1.000  H
  H26      1.0000 0.02690  0.34310  0.07720  Biso   1.000  H
  H27      1.0000 0.47310  0.65690  0.57720  Biso   1.000  H
  H28      1.0000 0.47310  0.34310  0.42280  Biso   1.000  H
  H29      1.0000 0.52690  0.15690  0.92280  Biso   1.000  H
  H30      1.0000 0.97310  0.15690  0.57720  Biso   1.000  H
  H31      1.0000 0.97310  0.84310  0.42280  Biso   1.000  H
  H32      1.0000 0.02690  0.65690  0.92280  Biso   1.000  H
  H33      1.0000 0.40760  0.17000  0.84410  Biso   1.000  H
  H34      1.0000 0.90760  0.67000  0.84410  Biso   1.000  H
  H35      1.0000 0.59240  0.33000  0.34410  Biso   1.000  H
  H36      1.0000 0.59240  0.67000  0.65590  Biso   1.000  H
  H37      1.0000 0.40760  0.83000  0.15590  Biso   1.000  H
  H38      1.0000 0.09240  0.83000  0.34410  Biso   1.000  H
  H39      1.0000 0.09240  0.17000  0.65590  Biso   1.000  H
  H40      1.0000 0.90760  0.33000  0.15590  Biso   1.000  H
  H41      1.0000 0.59240  0.83000  0.15590  Biso   1.000  H
  H42      1.0000 0.09240  0.33000  0.15590  Biso   1.000  H
  H43      1.0000 0.40760  0.67000  0.65590  Biso   1.000  H
  H44      1.0000 0.40760  0.33000  0.34410  Biso   1.000  H
  H45      1.0000 0.59240  0.17000  0.84410  Biso   1.000  H
  H46      1.0000 0.90760  0.17000  0.65590  Biso   1.000  H
  H47      1.0000 0.90760  0.83000  0.34410  Biso   1.000  H
  H48      1.0000 0.09240  0.67000  0.84410  Biso   1.000  H
  H49      1.0000 0.45330  0.21130  0.90320  Biso   1.000  H
  H50      1.0000 0.95330  0.71130  0.90320  Biso   1.000  H
  H51      1.0000 0.54670  0.28870  0.40320  Biso   1.000  H
  H52      1.0000 0.54670  0.71130  0.59680  Biso   1.000  H
  H53      1.0000 0.45330  0.78870  0.09680  Biso   1.000  H
  H54      1.0000 0.04670  0.78870  0.40320  Biso   1.000  H
  H55      1.0000 0.04670  0.21130  0.59680  Biso   1.000  H
  H56      1.0000 0.95330  0.28870  0.09680  Biso   1.000  H
  H57      1.0000 0.54670  0.78870  0.09680  Biso   1.000  H
  H58      1.0000 0.04670  0.28870  0.09680  Biso   1.000  H
  H59      1.0000 0.45330  0.71130  0.59680  Biso   1.000  H
  H60      1.0000 0.45330  0.28870  0.40320  Biso   1.000  H
  H61      1.0000 0.54670  0.21130  0.90320  Biso   1.000  H
  H62      1.0000 0.95330  0.21130  0.59680  Biso   1.000  H
  H63      1.0000 0.95330  0.78870  0.40320  Biso   1.000  H
  H64      1.0000 0.04670  0.71130  0.90320  Biso   1.000  H
  Cu17     1.0000 0.43781  0.50000  0.00000  Biso   1.000  Cu
  Cu18     1.0000 0.93781  0.00000  0.00000  Biso   1.000  Cu
  Cu19     1.0000 0.56219  0.00000  0.50000  Biso   1.000  Cu
  Cu20     1.0000 0.06219  0.50000  0.50000  Biso   1.000  Cu
  Cu21     1.0000 0.56219  0.50000  0.00000  Biso   1.000  Cu
  Cu22     1.0000 0.06219  0.00000  0.00000  Biso   1.000  Cu
  Cu23     1.0000 0.43781  0.00000  0.50000  Biso   1.000  Cu
  Cu24     1.0000 0.93781  0.50000  0.50000  Biso   1.000  Cu
  Br9      1.0000 0.50000  0.44817  0.21613  Biso   1.000  Br
  Br10     1.0000 0.00000  0.94817  0.21613  Biso   1.000  Br
  Br11     1.0000 0.50000  0.05183  0.71613  Biso   1.000  Br
  Br12     1.0000 0.50000  0.94817  0.28387  Biso   1.000  Br
  Br13     1.0000 0.50000  0.55183  0.78387  Biso   1.000  Br
  Br14     1.0000 0.00000  0.55183  0.71613  Biso   1.000  Br
  Br15     1.0000 0.00000  0.44817  0.28387  Biso   1.000  Br
  Br16     1.0000 0.00000  0.05183  0.78387  Biso   1.000  Br
  N33      1.0000 0.38500  0.45790  0.83530  Biso   1.000  N
  N34      1.0000 0.88500  0.95790  0.83530  Biso   1.000  N
  N35      1.0000 0.61500  0.04210  0.33530  Biso   1.000  N
  N36      1.0000 0.61500  0.95790  0.66470  Biso   1.000  N
  N37      1.0000 0.38500  0.54210  0.16470  Biso   1.000  N
  N38      1.0000 0.11500  0.54210  0.33530  Biso   1.000  N
  N39      1.0000 0.11500  0.45790  0.66470  Biso   1.000  N
  N40      1.0000 0.88500  0.04210  0.16470  Biso   1.000  N
  N41      1.0000 0.61500  0.54210  0.16470  Biso   1.000  N
  N42      1.0000 0.11500  0.04210  0.16470  Biso   1.000  N
  N43      1.0000 0.38500  0.95790  0.66470  Biso   1.000  N
  N44      1.0000 0.38500  0.04210  0.33530  Biso   1.000  N
  N45      1.0000 0.61500  0.45790  0.83530  Biso   1.000  N
  N46      1.0000 0.88500  0.45790  0.66470  Biso   1.000  N
  N47      1.0000 0.88500  0.54210  0.33530  Biso   1.000  N
  N48      1.0000 0.11500  0.95790  0.83530  Biso   1.000  N
  C73      1.0000 0.34080  0.42310  0.59930  Biso   1.000  C
  C74      1.0000 0.84080  0.92310  0.59930  Biso   1.000  C
  C75      1.0000 0.65920  0.07690  0.09930  Biso   1.000  C
  C76      1.0000 0.65920  0.92310  0.90070  Biso   1.000  C
  C77      1.0000 0.34080  0.57690  0.40070  Biso   1.000  C
  C78      1.0000 0.15920  0.57690  0.09930  Biso   1.000  C
  C79      1.0000 0.15920  0.42310  0.90070  Biso   1.000  C
  C80      1.0000 0.84080  0.07690  0.40070  Biso   1.000  C
  C81      1.0000 0.65920  0.57690  0.40070  Biso   1.000  C
  C82      1.0000 0.15920  0.07690  0.40070  Biso   1.000  C
  C83      1.0000 0.34080  0.92310  0.90070  Biso   1.000  C
  C84      1.0000 0.34080  0.07690  0.09930  Biso   1.000  C
  C85      1.0000 0.65920  0.42310  0.59930  Biso   1.000  C
  C86      1.0000 0.84080  0.42310  0.90070  Biso   1.000  C
  C87      1.0000 0.84080  0.57690  0.09930  Biso   1.000  C
  C88      1.0000 0.15920  0.92310  0.59930  Biso   1.000  C
  H65      1.0000 0.33290  0.41400  0.48090  Biso   1.000  H
  H66      1.0000 0.83290  0.91400  0.48090  Biso   1.000  H
  H67      1.0000 0.66710  0.08600  0.98090  Biso   1.000  H
  H68      1.0000 0.66710  0.91400  0.01910  Biso   1.000  H
  H69      1.0000 0.33290  0.58600  0.51910  Biso   1.000  H
  H70      1.0000 0.16710  0.58600  0.98090  Biso   1.000  H
  H71      1.0000 0.16710  0.41400  0.01910  Biso   1.000  H
  H72      1.0000 0.83290  0.08600  0.51910  Biso   1.000  H
  H73      1.0000 0.66710  0.58600  0.51910  Biso   1.000  H
  H74      1.0000 0.16710  0.08600  0.51910  Biso   1.000  H
  H75      1.0000 0.33290  0.91400  0.01910  Biso   1.000  H
  H76      1.0000 0.33290  0.08600  0.98090  Biso   1.000  H
  H77      1.0000 0.66710  0.41400  0.48090  Biso   1.000  H
  H78      1.0000 0.83290  0.41400  0.01910  Biso   1.000  H
  H79      1.0000 0.83290  0.58600  0.98090  Biso   1.000  H
  H80      1.0000 0.16710  0.91400  0.48090  Biso   1.000  H
  C89      1.0000 0.38880  0.45130  0.66380  Biso   1.000  C
  C90      1.0000 0.88880  0.95130  0.66380  Biso   1.000  C
  C91      1.0000 0.61120  0.04870  0.16380  Biso   1.000  C
  C92      1.0000 0.61120  0.95130  0.83620  Biso   1.000  C
  C93      1.0000 0.38880  0.54870  0.33620  Biso   1.000  C
  C94      1.0000 0.11120  0.54870  0.16380  Biso   1.000  C
  C95      1.0000 0.11120  0.45130  0.83620  Biso   1.000  C
  C96      1.0000 0.88880  0.04870  0.33620  Biso   1.000  C
  C97      1.0000 0.61120  0.54870  0.33620  Biso   1.000  C
  C98      1.0000 0.11120  0.04870  0.33620  Biso   1.000  C
  C99      1.0000 0.38880  0.95130  0.83620  Biso   1.000  C
  C100     1.0000 0.38880  0.04870  0.16380  Biso   1.000  C
  C101     1.0000 0.61120  0.45130  0.66380  Biso   1.000  C
  C102     1.0000 0.88880  0.45130  0.83620  Biso   1.000  C
  C103     1.0000 0.88880  0.54870  0.16380  Biso   1.000  C
  C104     1.0000 0.11120  0.95130  0.66380  Biso   1.000  C
  H81      1.0000 0.42220  0.46390  0.59200  Biso   1.000  H
  H82      1.0000 0.92220  0.96390  0.59200  Biso   1.000  H
  H83      1.0000 0.57780  0.03610  0.09200  Biso   1.000  H
  H84      1.0000 0.57780  0.96390  0.90800  Biso   1.000  H
  H85      1.0000 0.42220  0.53610  0.40800  Biso   1.000  H
  H86      1.0000 0.07780  0.53610  0.09200  Biso   1.000  H
  H87      1.0000 0.07780  0.46390  0.90800  Biso   1.000  H
  H88      1.0000 0.92220  0.03610  0.40800  Biso   1.000  H
  H89      1.0000 0.57780  0.53610  0.40800  Biso   1.000  H
  H90      1.0000 0.07780  0.03610  0.40800  Biso   1.000  H
  H91      1.0000 0.42220  0.96390  0.90800  Biso   1.000  H
  H92      1.0000 0.42220  0.03610  0.09200  Biso   1.000  H
  H93      1.0000 0.57780  0.46390  0.59200  Biso   1.000  H
  H94      1.0000 0.92220  0.46390  0.90800  Biso   1.000  H
  H95      1.0000 0.92220  0.53610  0.09200  Biso   1.000  H
  H96      1.0000 0.07780  0.96390  0.59200  Biso   1.000  H
  N49      1.0000 0.30810  0.41190  0.74780  Biso   1.000  N
  N50      1.0000 0.80810  0.91190  0.74780  Biso   1.000  N
  N51      1.0000 0.69190  0.08810  0.24780  Biso   1.000  N
  N52      1.0000 0.69190  0.91190  0.75220  Biso   1.000  N
  N53      1.0000 0.30810  0.58810  0.25220  Biso   1.000  N
  N54      1.0000 0.19190  0.58810  0.24780  Biso   1.000  N
  N55      1.0000 0.19190  0.41190  0.75220  Biso   1.000  N
  N56      1.0000 0.80810  0.08810  0.25220  Biso   1.000  N
  N57      1.0000 0.69190  0.58810  0.25220  Biso   1.000  N
  N58      1.0000 0.19190  0.08810  0.25220  Biso   1.000  N
  N59      1.0000 0.30810  0.91190  0.75220  Biso   1.000  N
  N60      1.0000 0.30810  0.08810  0.24780  Biso   1.000  N
  N61      1.0000 0.69190  0.41190  0.74780  Biso   1.000  N
  N62      1.0000 0.80810  0.41190  0.75220  Biso   1.000  N
  N63      1.0000 0.80810  0.58810  0.24780  Biso   1.000  N
  N64      1.0000 0.19190  0.91190  0.74780  Biso   1.000  N
  C105     1.0000 0.33520  0.43290  0.88940  Biso   1.000  C
  C106     1.0000 0.83520  0.93290  0.88940  Biso   1.000  C
  C107     1.0000 0.66480  0.06710  0.38940  Biso   1.000  C
  C108     1.0000 0.66480  0.93290  0.61060  Biso   1.000  C
  C109     1.0000 0.33520  0.56710  0.11060  Biso   1.000  C
  C110     1.0000 0.16480  0.56710  0.38940  Biso   1.000  C
  C111     1.0000 0.16480  0.43290  0.61060  Biso   1.000  C
  C112     1.0000 0.83520  0.06710  0.11060  Biso   1.000  C
  C113     1.0000 0.66480  0.56710  0.11060  Biso   1.000  C
  C114     1.0000 0.16480  0.06710  0.11060  Biso   1.000  C
  C115     1.0000 0.33520  0.93290  0.61060  Biso   1.000  C
  C116     1.0000 0.33520  0.06710  0.38940  Biso   1.000  C
  C117     1.0000 0.66480  0.43290  0.88940  Biso   1.000  C
  C118     1.0000 0.83520  0.43290  0.61060  Biso   1.000  C
  C119     1.0000 0.83520  0.56710  0.38940  Biso   1.000  C
  C120     1.0000 0.16480  0.93290  0.88940  Biso   1.000  C
  C121     1.0000 0.25000  0.38240  0.75000  Biso   1.000  C
  C122     1.0000 0.75000  0.88240  0.75000  Biso   1.000  C
  C123     1.0000 0.75000  0.11760  0.25000  Biso   1.000  C
  C124     1.0000 0.25000  0.61760  0.25000  Biso   1.000  C
  C125     1.0000 0.75000  0.61760  0.25000  Biso   1.000  C
  C126     1.0000 0.25000  0.11760  0.25000  Biso   1.000  C
  C127     1.0000 0.25000  0.88240  0.75000  Biso   1.000  C
  C128     1.0000 0.75000  0.38240  0.75000  Biso   1.000  C
  H97      1.0000 0.25040  0.36180  0.85420  Biso   1.000  H
  H98      1.0000 0.75040  0.86180  0.85420  Biso   1.000  H
  H99      1.0000 0.74960  0.13820  0.35420  Biso   1.000  H
  H100     1.0000 0.74960  0.86180  0.64580  Biso   1.000  H
  H101     1.0000 0.25040  0.63820  0.14580  Biso   1.000  H
  H102     1.0000 0.24960  0.63820  0.35420  Biso   1.000  H
  H103     1.0000 0.24960  0.36180  0.64580  Biso   1.000  H
  H104     1.0000 0.75040  0.13820  0.14580  Biso   1.000  H
  H105     1.0000 0.74960  0.63820  0.14580  Biso   1.000  H
  H106     1.0000 0.24960  0.13820  0.14580  Biso   1.000  H
  H107     1.0000 0.25040  0.86180  0.64580  Biso   1.000  H
  H108     1.0000 0.25040  0.13820  0.35420  Biso   1.000  H
  H109     1.0000 0.74960  0.36180  0.85420  Biso   1.000  H
  H110     1.0000 0.75040  0.36180  0.64580  Biso   1.000  H
  H111     1.0000 0.75040  0.63820  0.35420  Biso   1.000  H
  H112     1.0000 0.24960  0.86180  0.85420  Biso   1.000  H
  C129     1.0000 0.31270  0.42900  0.08140  Biso   1.000  C
  C130     1.0000 0.81270  0.92900  0.08140  Biso   1.000  C
  C131     1.0000 0.68730  0.07100  0.58140  Biso   1.000  C
  C132     1.0000 0.68730  0.92900  0.41860  Biso   1.000  C
  C133     1.0000 0.31270  0.57100  0.91860  Biso   1.000  C
  C134     1.0000 0.18730  0.57100  0.58140  Biso   1.000  C
  C135     1.0000 0.18730  0.42900  0.41860  Biso   1.000  C
  C136     1.0000 0.81270  0.07100  0.91860  Biso   1.000  C
  C137     1.0000 0.68730  0.57100  0.91860  Biso   1.000  C
  C138     1.0000 0.18730  0.07100  0.91860  Biso   1.000  C
  C139     1.0000 0.31270  0.92900  0.41860  Biso   1.000  C
  C140     1.0000 0.31270  0.07100  0.58140  Biso   1.000  C
  C141     1.0000 0.68730  0.42900  0.08140  Biso   1.000  C
  C142     1.0000 0.81270  0.42900  0.41860  Biso   1.000  C
  C143     1.0000 0.81270  0.57100  0.58140  Biso   1.000  C
  C144     1.0000 0.18730  0.92900  0.08140  Biso   1.000  C
  H113     1.0000 0.27630  0.40870  0.08610  Biso   1.000  H
  H114     1.0000 0.77630  0.90870  0.08610  Biso   1.000  H
  H115     1.0000 0.72370  0.09130  0.58610  Biso   1.000  H
  H116     1.0000 0.72370  0.90870  0.41390  Biso   1.000  H
  H117     1.0000 0.27630  0.59130  0.91390  Biso   1.000  H
  H118     1.0000 0.22370  0.59130  0.58610  Biso   1.000  H
  H119     1.0000 0.22370  0.40870  0.41390  Biso   1.000  H
  H120     1.0000 0.77630  0.09130  0.91390  Biso   1.000  H
  H121     1.0000 0.72370  0.59130  0.91390  Biso   1.000  H
  H122     1.0000 0.22370  0.09130  0.91390  Biso   1.000  H
  H123     1.0000 0.27630  0.90870  0.41390  Biso   1.000  H
  H124     1.0000 0.27630  0.09130  0.58610  Biso   1.000  H
  H125     1.0000 0.72370  0.40870  0.08610  Biso   1.000  H
  H126     1.0000 0.77630  0.40870  0.41390  Biso   1.000  H
  H127     1.0000 0.77630  0.59130  0.58610  Biso   1.000  H
  H128     1.0000 0.22370  0.90870  0.08610  Biso   1.000  H
  H129     1.0000 0.34470  0.41520  0.15570  Biso   1.000  H
  H130     1.0000 0.84470  0.91520  0.15570  Biso   1.000  H
  H131     1.0000 0.65530  0.08480  0.65570  Biso   1.000  H
  H132     1.0000 0.65530  0.91520  0.34430  Biso   1.000  H
  H133     1.0000 0.34470  0.58480  0.84430  Biso   1.000  H
  H134     1.0000 0.15530  0.58480  0.65570  Biso   1.000  H
  H135     1.0000 0.15530  0.41520  0.34430  Biso   1.000  H
  H136     1.0000 0.84470  0.08480  0.84430  Biso   1.000  H
  H137     1.0000 0.65530  0.58480  0.84430  Biso   1.000  H
  H138     1.0000 0.15530  0.08480  0.84430  Biso   1.000  H
  H139     1.0000 0.34470  0.91520  0.34430  Biso   1.000  H
  H140     1.0000 0.34470  0.08480  0.65570  Biso   1.000  H
  H141     1.0000 0.65530  0.41520  0.15570  Biso   1.000  H
  H142     1.0000 0.84470  0.41520  0.34430  Biso   1.000  H
  H143     1.0000 0.84470  0.58480  0.65570  Biso   1.000  H
  H144     1.0000 0.15530  0.91520  0.15570  Biso   1.000  H
  H145     1.0000 0.30250  0.46080  0.12450  Biso   1.000  H
  H146     1.0000 0.80250  0.96080  0.12450  Biso   1.000  H
  H147     1.0000 0.69750  0.03920  0.62450  Biso   1.000  H
  H148     1.0000 0.69750  0.96080  0.37550  Biso   1.000  H
  H149     1.0000 0.30250  0.53920  0.87550  Biso   1.000  H
  H150     1.0000 0.19750  0.53920  0.62450  Biso   1.000  H
  H151     1.0000 0.19750  0.46080  0.37550  Biso   1.000  H
  H152     1.0000 0.80250  0.03920  0.87550  Biso   1.000  H
  H153     1.0000 0.69750  0.53920  0.87550  Biso   1.000  H
  H154     1.0000 0.19750  0.03920  0.87550  Biso   1.000  H
  H155     1.0000 0.30250  0.96080  0.37550  Biso   1.000  H
  H156     1.0000 0.30250  0.03920  0.62450  Biso   1.000  H
  H157     1.0000 0.69750  0.46080  0.12450  Biso   1.000  H
  H158     1.0000 0.80250  0.46080  0.37550  Biso   1.000  H
  H159     1.0000 0.80250  0.53920  0.62450  Biso   1.000  H
  H160     1.0000 0.19750  0.96080  0.12450  Biso   1.000  H
  H161     1.0000 0.33290  0.21900  0.41890  Biso   1.000  H
  H162     1.0000 0.83290  0.71900  0.41890  Biso   1.000  H
  H163     1.0000 0.66710  0.28100  0.91890  Biso   1.000  H
  H164     1.0000 0.66710  0.71900  0.08110  Biso   1.000  H
  H165     1.0000 0.33290  0.78100  0.58110  Biso   1.000  H
  H166     1.0000 0.16710  0.78100  0.91890  Biso   1.000  H
  H167     1.0000 0.16710  0.21900  0.08110  Biso   1.000  H
  H168     1.0000 0.83290  0.28100  0.58110  Biso   1.000  H
  H169     1.0000 0.66710  0.78100  0.58110  Biso   1.000  H
  H170     1.0000 0.16710  0.28100  0.58110  Biso   1.000  H
  H171     1.0000 0.33290  0.71900  0.08110  Biso   1.000  H
  H172     1.0000 0.33290  0.28100  0.91890  Biso   1.000  H
  H173     1.0000 0.66710  0.21900  0.41890  Biso   1.000  H
  H174     1.0000 0.83290  0.21900  0.08110  Biso   1.000  H
  H175     1.0000 0.83290  0.78100  0.91890  Biso   1.000  H
  H176     1.0000 0.16710  0.71900  0.41890  Biso   1.000  H
  C145     1.0000 0.43540  0.17440  0.58600  Biso   1.000  C
  C146     1.0000 0.93540  0.67440  0.58600  Biso   1.000  C
  C147     1.0000 0.56460  0.32560  0.08600  Biso   1.000  C
  C148     1.0000 0.56460  0.67440  0.91400  Biso   1.000  C
  C149     1.0000 0.43540  0.82560  0.41400  Biso   1.000  C
  C150     1.0000 0.06460  0.82560  0.08600  Biso   1.000  C
  C151     1.0000 0.06460  0.17440  0.91400  Biso   1.000  C
  C152     1.0000 0.93540  0.32560  0.41400  Biso   1.000  C
  C153     1.0000 0.56460  0.82560  0.41400  Biso   1.000  C
  C154     1.0000 0.06460  0.32560  0.41400  Biso   1.000  C
  C155     1.0000 0.43540  0.67440  0.91400  Biso   1.000  C
  C156     1.0000 0.43540  0.32560  0.08600  Biso   1.000  C
  C157     1.0000 0.56460  0.17440  0.58600  Biso   1.000  C
  C158     1.0000 0.93540  0.17440  0.91400  Biso   1.000  C
  C159     1.0000 0.93540  0.82560  0.08600  Biso   1.000  C
  C160     1.0000 0.06460  0.67440  0.58600  Biso   1.000  C
  H177     1.0000 0.46980  0.15230  0.59450  Biso   1.000  H
  H178     1.0000 0.96980  0.65230  0.59450  Biso   1.000  H
  H179     1.0000 0.53020  0.34770  0.09450  Biso   1.000  H
  H180     1.0000 0.53020  0.65230  0.90550  Biso   1.000  H
  H181     1.0000 0.46980  0.84770  0.40550  Biso   1.000  H
  H182     1.0000 0.03020  0.84770  0.09450  Biso   1.000  H
  H183     1.0000 0.03020  0.15230  0.90550  Biso   1.000  H
  H184     1.0000 0.96980  0.34770  0.40550  Biso   1.000  H
  H185     1.0000 0.53020  0.84770  0.40550  Biso   1.000  H
  H186     1.0000 0.03020  0.34770  0.40550  Biso   1.000  H
  H187     1.0000 0.46980  0.65230  0.90550  Biso   1.000  H
  H188     1.0000 0.46980  0.34770  0.09450  Biso   1.000  H
  H189     1.0000 0.53020  0.15230  0.59450  Biso   1.000  H
  H190     1.0000 0.96980  0.15230  0.90550  Biso   1.000  H
  H191     1.0000 0.96980  0.84770  0.09450  Biso   1.000  H
  H192     1.0000 0.03020  0.65230  0.59450  Biso   1.000  H
  H193     1.0000 0.44910  0.20660  0.61590  Biso   1.000  H
  H194     1.0000 0.94910  0.70660  0.61590  Biso   1.000  H
  H195     1.0000 0.55090  0.29340  0.11590  Biso   1.000  H
  H196     1.0000 0.55090  0.70660  0.88410  Biso   1.000  H
  H197     1.0000 0.44910  0.79340  0.38410  Biso   1.000  H
  H198     1.0000 0.05090  0.79340  0.11590  Biso   1.000  H
  H199     1.0000 0.05090  0.20660  0.88410  Biso   1.000  H
  H200     1.0000 0.94910  0.29340  0.38410  Biso   1.000  H
  H201     1.0000 0.55090  0.79340  0.38410  Biso   1.000  H
  H202     1.0000 0.05090  0.29340  0.38410  Biso   1.000  H
  H203     1.0000 0.44910  0.70660  0.88410  Biso   1.000  H
  H204     1.0000 0.44910  0.29340  0.11590  Biso   1.000  H
  H205     1.0000 0.55090  0.20660  0.61590  Biso   1.000  H
  H206     1.0000 0.94910  0.20660  0.88410  Biso   1.000  H
  H207     1.0000 0.94910  0.79340  0.11590  Biso   1.000  H
  H208     1.0000 0.05090  0.70660  0.61590  Biso   1.000  H
  H209     1.0000 0.40310  0.16460  0.66720  Biso   1.000  H
  H210     1.0000 0.90310  0.66460  0.66720  Biso   1.000  H
  H211     1.0000 0.59690  0.33540  0.16720  Biso   1.000  H
  H212     1.0000 0.59690  0.66460  0.83280  Biso   1.000  H
  H213     1.0000 0.40310  0.83540  0.33280  Biso   1.000  H
  H214     1.0000 0.09690  0.83540  0.16720  Biso   1.000  H
  H215     1.0000 0.09690  0.16460  0.83280  Biso   1.000  H
  H216     1.0000 0.90310  0.33540  0.33280  Biso   1.000  H
  H217     1.0000 0.59690  0.83540  0.33280  Biso   1.000  H
  H218     1.0000 0.09690  0.33540  0.33280  Biso   1.000  H
  H219     1.0000 0.40310  0.66460  0.83280  Biso   1.000  H
  H220     1.0000 0.40310  0.33540  0.16720  Biso   1.000  H
  H221     1.0000 0.59690  0.16460  0.66720  Biso   1.000  H
  H222     1.0000 0.90310  0.16460  0.83280  Biso   1.000  H
  H223     1.0000 0.90310  0.83540  0.16720  Biso   1.000  H
  H224     1.0000 0.09690  0.66460  0.66720  Biso   1.000  H
