data_image0
_cell_length_a       22.295
_cell_length_b       3.534
_cell_length_c       13.657
_cell_angle_alpha    90
_cell_angle_beta     90.59
_cell_angle_gamma    90

_symmetry_space_group_name_H-M    "P 1"
_symmetry_int_tables_number       1

loop_
  _symmetry_equiv_pos_as_xyz
  'x, y, z'

loop_
  _atom_site_label
  _atom_site_occupancy
  _atom_site_fract_x
  _atom_site_fract_y
  _atom_site_fract_z
  _atom_site_thermal_displace_type
  _atom_site_B_iso_or_equiv
  _atom_site_type_symbol
  Cu1      1.0000 0.00000  0.11046  0.25000  Biso   1.000  Cu
  Cu2      1.0000 0.50000  0.61046  0.25000  Biso   1.000  Cu
  Cu3      1.0000 0.00000  0.88954  0.75000  Biso   1.000  Cu
  Cu4      1.0000 0.50000  0.38954  0.75000  Biso   1.000  Cu
  Cl1      1.0000 0.18658  0.53895  0.18769  Biso   1.000  Cl
  Cl2      1.0000 0.68657  0.03895  0.18769  Biso   1.000  Cl
  Cl3      1.0000 0.81343  0.53895  0.31231  Biso   1.000  Cl
  Cl4      1.0000 0.31343  0.03895  0.31231  Biso   1.000  Cl
  Cl5      1.0000 0.81343  0.46105  0.81231  Biso   1.000  Cl
  Cl6      1.0000 0.31343  0.96105  0.81231  Biso   1.000  Cl
  Cl7      1.0000 0.18658  0.46105  0.68769  Biso   1.000  Cl
  Cl8      1.0000 0.68657  0.96105  0.68769  Biso   1.000  Cl
  N1       1.0000 0.04773  0.30290  0.13984  Biso   1.000  N
  N2       1.0000 0.54773  0.80290  0.13984  Biso   1.000  N
  N3       1.0000 0.95227  0.30290  0.36016  Biso   1.000  N
  N4       1.0000 0.45227  0.80290  0.36016  Biso   1.000  N
  N5       1.0000 0.95227  0.69710  0.86016  Biso   1.000  N
  N6       1.0000 0.45227  0.19710  0.86016  Biso   1.000  N
  N7       1.0000 0.04773  0.69710  0.63984  Biso   1.000  N
  N8       1.0000 0.54773  0.19710  0.63984  Biso   1.000  N
  N9       1.0000 0.06422  0.12820  0.83640  Biso   1.000  N
  N10      1.0000 0.56422  0.62820  0.83640  Biso   1.000  N
  N11      1.0000 0.93578  0.12820  0.66360  Biso   1.000  N
  N12      1.0000 0.43578  0.62820  0.66360  Biso   1.000  N
  N13      1.0000 0.93578  0.87180  0.16360  Biso   1.000  N
  N14      1.0000 0.43578  0.37180  0.16360  Biso   1.000  N
  N15      1.0000 0.06422  0.87180  0.33640  Biso   1.000  N
  N16      1.0000 0.56422  0.37180  0.33640  Biso   1.000  N
  C1       1.0000 0.08247  0.28500  0.07814  Biso   1.000  C
  C2       1.0000 0.58247  0.78500  0.07814  Biso   1.000  C
  C3       1.0000 0.91753  0.28500  0.42186  Biso   1.000  C
  C4       1.0000 0.41753  0.78500  0.42186  Biso   1.000  C
  C5       1.0000 0.91753  0.71500  0.92186  Biso   1.000  C
  C6       1.0000 0.41753  0.21500  0.92186  Biso   1.000  C
  C7       1.0000 0.08247  0.71500  0.57814  Biso   1.000  C
  C8       1.0000 0.58247  0.21500  0.57814  Biso   1.000  C
  C9       1.0000 0.12151  0.24600  0.99765  Biso   1.000  C
  C10      1.0000 0.62151  0.74600  0.99765  Biso   1.000  C
  C11      1.0000 0.87849  0.24600  0.50235  Biso   1.000  C
  C12      1.0000 0.37849  0.74600  0.50235  Biso   1.000  C
  C13      1.0000 0.87849  0.75400  0.00235  Biso   1.000  C
  C14      1.0000 0.37849  0.25400  0.00235  Biso   1.000  C
  C15      1.0000 0.12151  0.75400  0.49765  Biso   1.000  C
  C16      1.0000 0.62151  0.25400  0.49765  Biso   1.000  C
  C17      1.0000 0.18529  0.25120  0.00161  Biso   1.000  C
  C18      1.0000 0.68529  0.75120  0.00161  Biso   1.000  C
  C19      1.0000 0.81471  0.25120  0.49839  Biso   1.000  C
  C20      1.0000 0.31471  0.75120  0.49839  Biso   1.000  C
  C21      1.0000 0.81471  0.74880  0.99839  Biso   1.000  C
  C22      1.0000 0.31471  0.24880  0.99839  Biso   1.000  C
  C23      1.0000 0.18529  0.74880  0.50161  Biso   1.000  C
  C24      1.0000 0.68529  0.24880  0.50161  Biso   1.000  C
  C25      1.0000 0.22069  0.37130  0.08289  Biso   1.000  C
  C26      1.0000 0.72069  0.87130  0.08289  Biso   1.000  C
  C27      1.0000 0.77931  0.37130  0.41711  Biso   1.000  C
  C28      1.0000 0.27931  0.87130  0.41711  Biso   1.000  C
  C29      1.0000 0.77931  0.62870  0.91711  Biso   1.000  C
  C30      1.0000 0.27931  0.12870  0.91711  Biso   1.000  C
  C31      1.0000 0.22069  0.62870  0.58289  Biso   1.000  C
  C32      1.0000 0.72069  0.12870  0.58289  Biso   1.000  C
  C33      1.0000 0.28201  0.37190  0.08123  Biso   1.000  C
  C34      1.0000 0.78201  0.87190  0.08123  Biso   1.000  C
  C35      1.0000 0.71799  0.37190  0.41877  Biso   1.000  C
  C36      1.0000 0.21799  0.87190  0.41877  Biso   1.000  C
  C37      1.0000 0.71799  0.62810  0.91877  Biso   1.000  C
  C38      1.0000 0.21799  0.12810  0.91877  Biso   1.000  C
  C39      1.0000 0.28201  0.62810  0.58123  Biso   1.000  C
  C40      1.0000 0.78201  0.12810  0.58123  Biso   1.000  C
  H1       1.0000 0.30300  0.45570  0.13620  Biso   1.000  H
  H2       1.0000 0.80300  0.95570  0.13620  Biso   1.000  H
  H3       1.0000 0.69700  0.45570  0.36380  Biso   1.000  H
  H4       1.0000 0.19700  0.95570  0.36380  Biso   1.000  H
  H5       1.0000 0.69700  0.54430  0.86380  Biso   1.000  H
  H6       1.0000 0.19700  0.04430  0.86380  Biso   1.000  H
  H7       1.0000 0.30300  0.54430  0.63620  Biso   1.000  H
  H8       1.0000 0.80300  0.04430  0.63620  Biso   1.000  H
  C41      1.0000 0.09098  0.17520  0.90791  Biso   1.000  C
  C42      1.0000 0.59098  0.67520  0.90791  Biso   1.000  C
  C43      1.0000 0.90902  0.17520  0.59209  Biso   1.000  C
  C44      1.0000 0.40902  0.67520  0.59209  Biso   1.000  C
  C45      1.0000 0.90902  0.82480  0.09209  Biso   1.000  C
  C46      1.0000 0.40902  0.32480  0.09209  Biso   1.000  C
  C47      1.0000 0.09098  0.82480  0.40791  Biso   1.000  C
  C48      1.0000 0.59098  0.32480  0.40791  Biso   1.000  C
