data_image0
_cell_length_a       6.163
_cell_length_b       13.7698
_cell_length_c       12.4856
_cell_angle_alpha    90
_cell_angle_beta     101.37
_cell_angle_gamma    90

_symmetry_space_group_name_H-M    "P 1"
_symmetry_int_tables_number       1

loop_
  _symmetry_equiv_pos_as_xyz
  'x, y, z'

loop_
  _atom_site_label
  _atom_site_occupancy
  _atom_site_fract_x
  _atom_site_fract_y
  _atom_site_fract_z
  _atom_site_thermal_displace_type
  _atom_site_B_iso_or_equiv
  _atom_site_type_symbol
  Cu1      1.0000 0.96536  0.43838  0.37012  Biso   1.000  Cu
  Cu2      1.0000 0.53464  0.93837  0.12988  Biso   1.000  Cu
  Cu3      1.0000 0.03464  0.56163  0.62988  Biso   1.000  Cu
  Cu4      1.0000 0.46536  0.06162  0.87012  Biso   1.000  Cu
  V1       1.0000 0.97241  0.54180  0.12202  Biso   1.000  V
  V2       1.0000 0.52759  0.04180  0.37798  Biso   1.000  V
  V3       1.0000 0.02759  0.45820  0.87798  Biso   1.000  V
  V4       1.0000 0.47241  0.95820  0.62202  Biso   1.000  V
  F1       1.0000 0.72800  0.61927  0.13772  Biso   1.000  F
  F2       1.0000 0.77200  0.11927  0.36228  Biso   1.000  F
  F3       1.0000 0.27200  0.38073  0.86228  Biso   1.000  F
  F4       1.0000 0.22800  0.88073  0.63772  Biso   1.000  F
  F5       1.0000 0.12060  0.65737  0.09656  Biso   1.000  F
  F6       1.0000 0.37940  0.15737  0.40344  Biso   1.000  F
  F7       1.0000 0.87940  0.34263  0.90344  Biso   1.000  F
  F8       1.0000 0.62060  0.84263  0.59656  Biso   1.000  F
  F9       1.0000 0.17480  0.46611  0.04611  Biso   1.000  F
  F10      1.0000 0.32520  0.96611  0.45389  Biso   1.000  F
  F11      1.0000 0.82520  0.53389  0.95389  Biso   1.000  F
  F12      1.0000 0.67480  0.03389  0.54611  Biso   1.000  F
  O1       1.0000 0.09750  0.52238  0.24764  Biso   1.000  O
  O2       1.0000 0.40250  0.02238  0.25236  Biso   1.000  O
  O3       1.0000 0.90250  0.47762  0.75236  Biso   1.000  O
  O4       1.0000 0.59750  0.97762  0.74764  Biso   1.000  O
  N1       1.0000 0.78680  0.37056  0.24042  Biso   1.000  N
  N2       1.0000 0.71320  0.87056  0.25958  Biso   1.000  N
  N3       1.0000 0.21320  0.62944  0.75958  Biso   1.000  N
  N4       1.0000 0.28680  0.12944  0.74042  Biso   1.000  N
  N5       1.0000 0.76420  0.41574  0.13880  Biso   1.000  N
  N6       1.0000 0.73580  0.91574  0.36120  Biso   1.000  N
  N7       1.0000 0.23580  0.58426  0.86120  Biso   1.000  N
  N8       1.0000 0.26420  0.08426  0.63880  Biso   1.000  N
  N9       1.0000 0.52570  0.29648  0.12491  Biso   1.000  N
  N10      1.0000 0.97430  0.79648  0.37509  Biso   1.000  N
  N11      1.0000 0.47430  0.70352  0.87509  Biso   1.000  N
  N12      1.0000 0.02570  0.20352  0.62491  Biso   1.000  N
  N13      1.0000 0.75790  0.03688  0.08686  Biso   1.000  N
  N14      1.0000 0.74210  0.53688  0.41314  Biso   1.000  N
  N15      1.0000 0.24210  0.96312  0.91314  Biso   1.000  N
  N16      1.0000 0.25790  0.46312  0.58686  Biso   1.000  N
  N17      1.0000 0.71820  0.08723  0.98795  Biso   1.000  N
  N18      1.0000 0.78180  0.58723  0.51205  Biso   1.000  N
  N19      1.0000 0.28180  0.91277  0.01205  Biso   1.000  N
  N20      1.0000 0.21820  0.41277  0.48795  Biso   1.000  N
  N21      1.0000 0.99360  0.15786  0.09907  Biso   1.000  N
  N22      1.0000 0.50640  0.65786  0.40093  Biso   1.000  N
  N23      1.0000 0.00640  0.84214  0.90093  Biso   1.000  N
  N24      1.0000 0.49360  0.34214  0.59907  Biso   1.000  N
  C1       1.0000 0.64280  0.29921  0.22963  Biso   1.000  C
  C2       1.0000 0.85720  0.79921  0.27037  Biso   1.000  C
  C3       1.0000 0.35720  0.70079  0.77037  Biso   1.000  C
  C4       1.0000 0.14280  0.20079  0.72963  Biso   1.000  C
  H1       1.0000 0.62340  0.25640  0.28570  Biso   1.000  H
  H2       1.0000 0.87660  0.75640  0.21430  Biso   1.000  H
  H3       1.0000 0.37660  0.74360  0.71430  Biso   1.000  H
  H4       1.0000 0.12340  0.24360  0.78570  Biso   1.000  H
  C5       1.0000 0.60600  0.37025  0.07158  Biso   1.000  C
  C6       1.0000 0.89400  0.87025  0.42842  Biso   1.000  C
  C7       1.0000 0.39400  0.62975  0.92842  Biso   1.000  C
  C8       1.0000 0.10600  0.12975  0.57158  Biso   1.000  C
  H5       1.0000 0.55570  0.38630  0.99770  Biso   1.000  H
  H6       1.0000 0.94430  0.88630  0.50230  Biso   1.000  H
  H7       1.0000 0.44430  0.61370  0.00230  Biso   1.000  H
  H8       1.0000 0.05570  0.11370  0.49770  Biso   1.000  H
  C9       1.0000 0.92340  0.08084  0.15119  Biso   1.000  C
  C10      1.0000 0.57660  0.58084  0.34881  Biso   1.000  C
  C11      1.0000 0.07660  0.91916  0.84881  Biso   1.000  C
  C12      1.0000 0.42340  0.41916  0.65119  Biso   1.000  C
  H9       1.0000 0.98450  0.06170  0.22310  Biso   1.000  H
  H10      1.0000 0.51550  0.56170  0.27690  Biso   1.000  H
  H11      1.0000 0.01550  0.93830  0.77690  Biso   1.000  H
  H12      1.0000 0.48450  0.43830  0.72310  Biso   1.000  H
  C13      1.0000 0.86200  0.15891  0.99808  Biso   1.000  C
  C14      1.0000 0.63800  0.65891  0.50192  Biso   1.000  C
  C15      1.0000 0.13800  0.84109  0.00192  Biso   1.000  C
  C16      1.0000 0.36200  0.34109  0.49808  Biso   1.000  C
  H13      1.0000 0.87220  0.20440  0.94320  Biso   1.000  H
  H14      1.0000 0.62780  0.70440  0.55680  Biso   1.000  H
  H15      1.0000 0.12780  0.79560  0.05680  Biso   1.000  H
  H16      1.0000 0.37220  0.29560  0.44320  Biso   1.000  H
  C17      1.0000 0.34940  0.22702  0.07982  Biso   1.000  C
  C18      1.0000 0.15060  0.72702  0.42018  Biso   1.000  C
  C19      1.0000 0.65060  0.77298  0.92018  Biso   1.000  C
  C20      1.0000 0.84940  0.27298  0.57982  Biso   1.000  C
  H17      1.0000 0.41130  0.16130  0.08240  Biso   1.000  H
  H18      1.0000 0.08870  0.66130  0.41760  Biso   1.000  H
  H19      1.0000 0.58870  0.83870  0.91760  Biso   1.000  H
  H20      1.0000 0.91130  0.33870  0.58240  Biso   1.000  H
  H21      1.0000 0.28950  0.24310  0.00320  Biso   1.000  H
  H22      1.0000 0.21050  0.74310  0.49680  Biso   1.000  H
  H23      1.0000 0.71050  0.75690  0.99680  Biso   1.000  H
  H24      1.0000 0.78950  0.25690  0.50320  Biso   1.000  H
  C21      1.0000 0.16530  0.22970  0.14392  Biso   1.000  C
  C22      1.0000 0.33470  0.72970  0.35608  Biso   1.000  C
  C23      1.0000 0.83470  0.77030  0.85608  Biso   1.000  C
  C24      1.0000 0.66530  0.27030  0.64392  Biso   1.000  C
  H25      1.0000 0.22520  0.21500  0.22090  Biso   1.000  H
  H26      1.0000 0.27480  0.71500  0.27910  Biso   1.000  H
  H27      1.0000 0.77480  0.78500  0.77910  Biso   1.000  H
  H28      1.0000 0.72520  0.28500  0.72090  Biso   1.000  H
  H29      1.0000 0.10010  0.29480  0.13970  Biso   1.000  H
  H30      1.0000 0.39990  0.79480  0.36030  Biso   1.000  H
  H31      1.0000 0.89990  0.70520  0.86030  Biso   1.000  H
  H32      1.0000 0.60010  0.20520  0.63970  Biso   1.000  H
