data_image0
_cell_length_a       11.834
_cell_length_b       14.914
_cell_length_c       4.381
_cell_angle_alpha    90
_cell_angle_beta     93.8
_cell_angle_gamma    90

_symmetry_space_group_name_H-M    "P 1"
_symmetry_int_tables_number       1

loop_
  _symmetry_equiv_pos_as_xyz
  'x, y, z'

loop_
  _atom_site_label
  _atom_site_occupancy
  _atom_site_fract_x
  _atom_site_fract_y
  _atom_site_fract_z
  _atom_site_thermal_displace_type
  _atom_site_B_iso_or_equiv
  _atom_site_type_symbol
  Cu1      1.0000 0.52700  0.07340  0.33820  Biso   1.000  Cu
  Cu2      1.0000 0.97300  0.57340  0.66180  Biso   1.000  Cu
  Cu3      1.0000 0.47300  0.92660  0.66180  Biso   1.000  Cu
  Cu4      1.0000 0.02700  0.42660  0.33820  Biso   1.000  Cu
  I1       1.0000 0.65210  0.02870  0.83780  Biso   1.000  I
  I2       1.0000 0.84790  0.52870  0.16220  Biso   1.000  I
  I3       1.0000 0.34790  0.97130  0.16220  Biso   1.000  I
  I4       1.0000 0.15210  0.47130  0.83780  Biso   1.000  I
  N1       1.0000 0.50200  0.21000  0.31300  Biso   1.000  N
  N2       1.0000 0.99800  0.71000  0.68700  Biso   1.000  N
  N3       1.0000 0.49800  0.79000  0.68700  Biso   1.000  N
  N4       1.0000 0.00200  0.29000  0.31300  Biso   1.000  N
  C1       1.0000 0.41600  0.25100  0.44100  Biso   1.000  C
  C2       1.0000 0.08400  0.75100  0.55900  Biso   1.000  C
  C3       1.0000 0.58400  0.74900  0.55900  Biso   1.000  C
  C4       1.0000 0.91600  0.24900  0.44100  Biso   1.000  C
  C5       1.0000 0.40200  0.34600  0.40000  Biso   1.000  C
  C6       1.0000 0.09800  0.84600  0.60000  Biso   1.000  C
  C7       1.0000 0.59800  0.65400  0.60000  Biso   1.000  C
  C8       1.0000 0.90200  0.15400  0.40000  Biso   1.000  C
  C9       1.0000 0.47800  0.39200  0.23500  Biso   1.000  C
  C10      1.0000 0.02200  0.89200  0.76500  Biso   1.000  C
  C11      1.0000 0.52200  0.60800  0.76500  Biso   1.000  C
  C12      1.0000 0.97800  0.10800  0.23500  Biso   1.000  C
  C13      1.0000 0.56600  0.34900  0.11200  Biso   1.000  C
  C14      1.0000 0.93400  0.84900  0.88800  Biso   1.000  C
  C15      1.0000 0.43400  0.65100  0.88800  Biso   1.000  C
  C16      1.0000 0.06600  0.15100  0.11200  Biso   1.000  C
  C17      1.0000 0.57700  0.25800  0.16300  Biso   1.000  C
  C18      1.0000 0.92300  0.75800  0.83700  Biso   1.000  C
  C19      1.0000 0.42300  0.74200  0.83700  Biso   1.000  C
  C20      1.0000 0.07700  0.24200  0.16300  Biso   1.000  C
  C21      1.0000 0.33700  0.19900  0.62000  Biso   1.000  C
  C22      1.0000 0.16300  0.69900  0.38000  Biso   1.000  C
  C23      1.0000 0.66300  0.80100  0.38000  Biso   1.000  C
  C24      1.0000 0.83700  0.30100  0.62000  Biso   1.000  C
  H1       1.0000 0.33900  0.37600  0.48800  Biso   1.000  H
  H2       1.0000 0.16100  0.87600  0.51200  Biso   1.000  H
  H3       1.0000 0.66100  0.62400  0.51200  Biso   1.000  H
  H4       1.0000 0.83900  0.12400  0.48800  Biso   1.000  H
  H5       1.0000 0.46200  0.45600  0.21000  Biso   1.000  H
  H6       1.0000 0.03800  0.95600  0.79000  Biso   1.000  H
  H7       1.0000 0.53800  0.54400  0.79000  Biso   1.000  H
  H8       1.0000 0.96200  0.04400  0.21000  Biso   1.000  H
  H9       1.0000 0.62200  0.38200  0.99200  Biso   1.000  H
  H10      1.0000 0.87800  0.88200  0.00800  Biso   1.000  H
  H11      1.0000 0.37800  0.61800  0.00800  Biso   1.000  H
  H12      1.0000 0.12200  0.11800  0.99200  Biso   1.000  H
  H13      1.0000 0.64400  0.22600  0.08700  Biso   1.000  H
  H14      1.0000 0.85600  0.72600  0.91300  Biso   1.000  H
  H15      1.0000 0.35600  0.77400  0.91300  Biso   1.000  H
  H16      1.0000 0.14400  0.27400  0.08700  Biso   1.000  H
