data_image0
_cell_length_a       11.648
_cell_length_b       4.328
_cell_length_c       10.198
_cell_angle_alpha    77.64
_cell_angle_beta     68.45
_cell_angle_gamma    104.25

_symmetry_space_group_name_H-M    "P 1"
_symmetry_int_tables_number       1

loop_
  _symmetry_equiv_pos_as_xyz
  'x, y, z'

loop_
  _atom_site_label
  _atom_site_occupancy
  _atom_site_fract_x
  _atom_site_fract_y
  _atom_site_fract_z
  _atom_site_thermal_displace_type
  _atom_site_B_iso_or_equiv
  _atom_site_type_symbol
  I1       1.0000 0.86870  0.00950  0.19730  Biso   1.000  I
  I2       1.0000 0.13130  0.99050  0.80270  Biso   1.000  I
  Cu1      1.0000 0.97100  0.35280  0.90550  Biso   1.000  Cu
  Cu2      1.0000 0.02900  0.64720  0.09450  Biso   1.000  Cu
  N1       1.0000 0.84180  0.30620  0.81030  Biso   1.000  N
  N2       1.0000 0.15820  0.69380  0.18970  Biso   1.000  N
  C1       1.0000 0.72550  0.33950  0.86260  Biso   1.000  C
  C2       1.0000 0.27450  0.66050  0.13740  Biso   1.000  C
  C3       1.0000 0.64270  0.29250  0.79440  Biso   1.000  C
  C4       1.0000 0.35730  0.70750  0.20560  Biso   1.000  C
  C5       1.0000 0.68420  0.22630  0.66070  Biso   1.000  C
  C6       1.0000 0.31580  0.77370  0.33930  Biso   1.000  C
  C7       1.0000 0.80170  0.18960  0.60690  Biso   1.000  C
  C8       1.0000 0.19830  0.81040  0.39310  Biso   1.000  C
  C9       1.0000 0.87900  0.22460  0.68110  Biso   1.000  C
  C10      1.0000 0.12100  0.77540  0.31890  Biso   1.000  C
  C11      1.0000 0.68610  0.42790  0.00350  Biso   1.000  C
  C12      1.0000 0.31390  0.57210  0.99650  Biso   1.000  C
  C13      1.0000 0.59430  0.18120  0.58390  Biso   1.000  C
  C14      1.0000 0.40570  0.81880  0.41610  Biso   1.000  C
  H1       1.0000 0.62220  0.45000  0.77290  Biso   1.000  H
  H2       1.0000 0.37780  0.55000  0.22710  Biso   1.000  H
  H3       1.0000 0.83250  0.07810  0.53570  Biso   1.000  H
  H4       1.0000 0.16750  0.92190  0.46430  Biso   1.000  H
  H5       1.0000 0.96440  0.18870  0.64070  Biso   1.000  H
  H6       1.0000 0.03560  0.81130  0.35930  Biso   1.000  H
  H7       1.0000 0.68690  0.23870  0.08230  Biso   1.000  H
  H8       1.0000 0.31310  0.76130  0.91770  Biso   1.000  H
  H9       1.0000 0.75420  0.63080  0.98850  Biso   1.000  H
  H10      1.0000 0.24580  0.36920  0.01150  Biso   1.000  H
  H11      1.0000 0.60210  0.44390  0.04520  Biso   1.000  H
  H12      1.0000 0.39790  0.55610  0.95480  Biso   1.000  H
  H13      1.0000 0.51020  0.99650  0.65330  Biso   1.000  H
  H14      1.0000 0.48980  0.00350  0.34670  Biso   1.000  H
  H15      1.0000 0.57290  0.39070  0.56350  Biso   1.000  H
  H16      1.0000 0.42710  0.60930  0.43650  Biso   1.000  H
  H17      1.0000 0.62090  0.13800  0.48900  Biso   1.000  H
  H18      1.0000 0.37910  0.86200  0.51100  Biso   1.000  H
