data_image0
_cell_length_a       8.7853
_cell_length_b       10.3602
_cell_length_c       12.8505
_cell_angle_alpha    99.351
_cell_angle_beta     105.516
_cell_angle_gamma    89.395

_symmetry_space_group_name_H-M    "P 1"
_symmetry_int_tables_number       1

loop_
  _symmetry_equiv_pos_as_xyz
  'x, y, z'

loop_
  _atom_site_label
  _atom_site_occupancy
  _atom_site_fract_x
  _atom_site_fract_y
  _atom_site_fract_z
  _atom_site_thermal_displace_type
  _atom_site_B_iso_or_equiv
  _atom_site_type_symbol
  Cu1      1.0000 0.73766  0.86432  0.47072  Biso   1.000  Cu
  Cu2      1.0000 0.26234  0.13568  0.52928  Biso   1.000  Cu
  Cu3      1.0000 0.63883  0.22305  0.60502  Biso   1.000  Cu
  Cu4      1.0000 0.36117  0.77695  0.39498  Biso   1.000  Cu
  Cu5      1.0000 0.65591  0.83850  0.94830  Biso   1.000  Cu
  Cu6      1.0000 0.34409  0.16150  0.05170  Biso   1.000  Cu
  Cu7      1.0000 0.65473  0.94110  0.69401  Biso   1.000  Cu
  Cu8      1.0000 0.34527  0.05890  0.30599  Biso   1.000  Cu
  Cl1      1.0000 0.81415  0.05572  0.59654  Biso   1.000  Cl
  Cl2      1.0000 0.18585  0.94428  0.40346  Biso   1.000  Cl
  Cl3      1.0000 0.53639  0.88911  0.32164  Biso   1.000  Cl
  Cl4      1.0000 0.46361  0.11089  0.67836  Biso   1.000  Cl
  Cl5      1.0000 0.79800  0.95411  0.87182  Biso   1.000  Cl
  Cl6      1.0000 0.20200  0.04589  0.12818  Biso   1.000  Cl
  Cl7      1.0000 0.55153  0.76008  0.57085  Biso   1.000  Cl
  Cl8      1.0000 0.44847  0.23992  0.42915  Biso   1.000  Cl
  O1       1.0000 0.07990  0.59970  0.61240  Biso   1.000  O
  O2       1.0000 0.92010  0.40030  0.38760  Biso   1.000  O
  O3       1.0000 0.58480  0.57820  0.81580  Biso   1.000  O
  O4       1.0000 0.41520  0.42180  0.18420  Biso   1.000  O
  O5       1.0000 0.33680  0.95430  0.85440  Biso   1.000  O
  O6       1.0000 0.66320  0.04570  0.14560  Biso   1.000  O
  O7       1.0000 0.86710  0.27010  0.92440  Biso   1.000  O
  O8       1.0000 0.13290  0.72990  0.07560  Biso   1.000  O
  N1       1.0000 0.33030  0.58350  0.70630  Biso   1.000  N
  N2       1.0000 0.66970  0.41650  0.29370  Biso   1.000  N
  N3       1.0000 0.46270  0.76730  0.83140  Biso   1.000  N
  N4       1.0000 0.53730  0.23270  0.16860  Biso   1.000  N
  N5       1.0000 0.19870  0.78530  0.72720  Biso   1.000  N
  N6       1.0000 0.80130  0.21470  0.27280  Biso   1.000  N
  C1       1.0000 0.20590  0.66000  0.68360  Biso   1.000  C
  C2       1.0000 0.79410  0.34000  0.31640  Biso   1.000  C
  C3       1.0000 0.45480  0.64360  0.78080  Biso   1.000  C
  C4       1.0000 0.54520  0.35640  0.21920  Biso   1.000  C
  C5       1.0000 0.33080  0.83290  0.80060  Biso   1.000  C
  C6       1.0000 0.66920  0.16710  0.19940  Biso   1.000  C
  C7       1.0000 0.93530  0.67420  0.58740  Biso   1.000  C
  C8       1.0000 0.06470  0.32580  0.41260  Biso   1.000  C
  C9       1.0000 0.94300  0.75830  0.50400  Biso   1.000  C
  C10      1.0000 0.05700  0.24170  0.49600  Biso   1.000  C
  C11      1.0000 0.86400  0.72390  0.39760  Biso   1.000  C
  C12      1.0000 0.13600  0.27610  0.60240  Biso   1.000  C
  C13      1.0000 0.58760  0.43840  0.76990  Biso   1.000  C
  C14      1.0000 0.41240  0.56160  0.23010  Biso   1.000  C
  C15      1.0000 0.64100  0.42450  0.66900  Biso   1.000  C
  C16      1.0000 0.35900  0.57550  0.33100  Biso   1.000  C
  C17      1.0000 0.78860  0.38590  0.66910  Biso   1.000  C
  C18      1.0000 0.21140  0.61410  0.33090  Biso   1.000  C
  C19      1.0000 0.19220  0.02780  0.82780  Biso   1.000  C
  C20      1.0000 0.80780  0.97220  0.17220  Biso   1.000  C
  C21      1.0000 0.22460  0.16300  0.89090  Biso   1.000  C
  C22      1.0000 0.77540  0.83700  0.10910  Biso   1.000  C
  C23      1.0000 0.36860  0.23100  0.91820  Biso   1.000  C
  C24      1.0000 0.63140  0.76900  0.08180  Biso   1.000  C
  C25      1.0000 0.89840  0.30570  0.03970  Biso   1.000  C
  C26      1.0000 0.10160  0.69430  0.96030  Biso   1.000  C
  C27      1.0000 0.85630  0.43140  0.07890  Biso   1.000  C
  C28      1.0000 0.14370  0.56860  0.92110  Biso   1.000  C
  H1       1.0000 0.87400  0.35700  0.72700  Biso   1.000  H
  H2       1.0000 0.12600  0.64300  0.27300  Biso   1.000  H
  H3       1.0000 0.10500  0.98100  0.84800  Biso   1.000  H
  H4       1.0000 0.89500  0.01900  0.15200  Biso   1.000  H
  H5       1.0000 0.02000  0.83000  0.52600  Biso   1.000  H
  H6       1.0000 0.98000  0.17000  0.47400  Biso   1.000  H
  H7       1.0000 0.92100  0.71300  0.63200  Biso   1.000  H
  H8       1.0000 0.07900  0.28700  0.36800  Biso   1.000  H
  H9       1.0000 0.48100  0.40600  0.75600  Biso   1.000  H
  H10      1.0000 0.51900  0.59400  0.24400  Biso   1.000  H
  H11      1.0000 0.15500  0.03400  0.74900  Biso   1.000  H
  H12      1.0000 0.84500  0.96600  0.25100  Biso   1.000  H
  H13      1.0000 0.81000  0.66400  0.38100  Biso   1.000  H
  H14      1.0000 0.19000  0.33600  0.61900  Biso   1.000  H
  H15      1.0000 0.84900  0.61400  0.56400  Biso   1.000  H
  H16      1.0000 0.15100  0.38600  0.43600  Biso   1.000  H
  H17      1.0000 0.83300  0.38900  0.62600  Biso   1.000  H
  H18      1.0000 0.16700  0.61100  0.37400  Biso   1.000  H
  H19      1.0000 0.36900  0.32500  0.93700  Biso   1.000  H
  H20      1.0000 0.63100  0.67500  0.06300  Biso   1.000  H
  H21      1.0000 0.66300  0.39900  0.82400  Biso   1.000  H
  H22      1.0000 0.33700  0.60100  0.17600  Biso   1.000  H
  H23      1.0000 0.13600  0.21200  0.89400  Biso   1.000  H
  H24      1.0000 0.86400  0.78800  0.10600  Biso   1.000  H
  H25      1.0000 0.89800  0.76900  0.35000  Biso   1.000  H
  H26      1.0000 0.10200  0.23100  0.65000  Biso   1.000  H
  H27      1.0000 0.58800  0.46100  0.61500  Biso   1.000  H
  H28      1.0000 0.41200  0.53900  0.38500  Biso   1.000  H
  H29      1.0000 0.46700  0.17900  0.89000  Biso   1.000  H
  H30      1.0000 0.53300  0.82100  0.11000  Biso   1.000  H
  H31      1.0000 0.82200  0.49200  0.01600  Biso   1.000  H
  H32      1.0000 0.17800  0.50800  0.98400  Biso   1.000  H
  H33      1.0000 0.94600  0.48000  0.13700  Biso   1.000  H
  H34      1.0000 0.05400  0.52000  0.86300  Biso   1.000  H
  H35      1.0000 0.75600  0.42700  0.10900  Biso   1.000  H
  H36      1.0000 0.24400  0.57300  0.89100  Biso   1.000  H
  H37      1.0000 0.85000  0.23600  0.06700  Biso   1.000  H
  H38      1.0000 0.15000  0.76400  0.93300  Biso   1.000  H
  H39      1.0000 0.01800  0.31400  0.07600  Biso   1.000  H
  H40      1.0000 0.98200  0.68600  0.92400  Biso   1.000  H
  H41      1.0000 0.83400  0.16800  0.88500  Biso   1.000  H
  H42      1.0000 0.16600  0.83200  0.11500  Biso   1.000  H
