data_image0
_cell_length_a       18.6339
_cell_length_b       25.6027
_cell_length_c       14.4414
_cell_angle_alpha    90
_cell_angle_beta     99.762
_cell_angle_gamma    90

_symmetry_space_group_name_H-M    "P 1"
_symmetry_int_tables_number       1

loop_
  _symmetry_equiv_pos_as_xyz
  'x, y, z'

loop_
  _atom_site_label
  _atom_site_occupancy
  _atom_site_fract_x
  _atom_site_fract_y
  _atom_site_fract_z
  _atom_site_thermal_displace_type
  _atom_site_B_iso_or_equiv
  _atom_site_type_symbol
  Cu1      1.0000 0.00059  0.61179  0.13584  Biso   1.000  Cu
  Cu2      1.0000 0.99941  0.11179  0.36416  Biso   1.000  Cu
  Cu3      1.0000 0.99941  0.38821  0.86416  Biso   1.000  Cu
  Cu4      1.0000 0.00059  0.88821  0.63584  Biso   1.000  Cu
  Cu5      1.0000 0.99659  0.62524  0.32241  Biso   1.000  Cu
  Cu6      1.0000 0.00341  0.12524  0.17759  Biso   1.000  Cu
  Cu7      1.0000 0.00341  0.37476  0.67759  Biso   1.000  Cu
  Cu8      1.0000 0.99659  0.87476  0.82241  Biso   1.000  Cu
  Ba1      1.0000 0.55213  0.34698  0.06240  Biso   1.000  Ba
  Ba2      1.0000 0.44787  0.84698  0.43760  Biso   1.000  Ba
  Ba3      1.0000 0.44787  0.65302  0.93760  Biso   1.000  Ba
  Ba4      1.0000 0.55213  0.15302  0.56240  Biso   1.000  Ba
  Ba5      1.0000 0.53856  0.58798  0.48368  Biso   1.000  Ba
  Ba6      1.0000 0.46144  0.08798  0.01632  Biso   1.000  Ba
  Ba7      1.0000 0.46144  0.41202  0.51632  Biso   1.000  Ba
  Ba8      1.0000 0.53856  0.91202  0.98368  Biso   1.000  Ba
  S1       1.0000 0.67883  0.45803  0.00365  Biso   1.000  S
  S2       1.0000 0.32117  0.95803  0.49635  Biso   1.000  S
  S3       1.0000 0.32117  0.54197  0.99635  Biso   1.000  S
  S4       1.0000 0.67883  0.04197  0.50365  Biso   1.000  S
  S5       1.0000 0.63755  0.70617  0.36792  Biso   1.000  S
  S6       1.0000 0.36245  0.20617  0.13208  Biso   1.000  S
  S7       1.0000 0.36245  0.29383  0.63208  Biso   1.000  S
  S8       1.0000 0.63755  0.79383  0.86792  Biso   1.000  S
  N1       1.0000 0.09720  0.58106  0.20930  Biso   1.000  N
  N2       1.0000 0.90280  0.08106  0.29070  Biso   1.000  N
  N3       1.0000 0.90280  0.41894  0.79070  Biso   1.000  N
  N4       1.0000 0.09720  0.91894  0.70930  Biso   1.000  N
  N5       1.0000 0.07830  0.67503  0.29190  Biso   1.000  N
  N6       1.0000 0.92170  0.17503  0.20810  Biso   1.000  N
  N7       1.0000 0.92170  0.32497  0.70810  Biso   1.000  N
  N8       1.0000 0.07830  0.82497  0.79190  Biso   1.000  N
  N9       1.0000 0.98410  0.53429  0.10850  Biso   1.000  N
  N10      1.0000 0.01590  0.03429  0.39150  Biso   1.000  N
  N11      1.0000 0.01590  0.46571  0.89150  Biso   1.000  N
  N12      1.0000 0.98410  0.96571  0.60850  Biso   1.000  N
  N13      1.0000 0.95390  0.69556  0.34670  Biso   1.000  N
  N14      1.0000 0.04610  0.19556  0.15330  Biso   1.000  N
  N15      1.0000 0.04610  0.30444  0.65330  Biso   1.000  N
  N16      1.0000 0.95390  0.80444  0.84670  Biso   1.000  N
  O1       1.0000 0.67401  0.40824  0.05050  Biso   1.000  O
  O2       1.0000 0.32599  0.90824  0.44950  Biso   1.000  O
  O3       1.0000 0.32599  0.59176  0.94950  Biso   1.000  O
  O4       1.0000 0.67401  0.09176  0.55050  Biso   1.000  O
  O5       1.0000 0.63640  0.49870  0.03850  Biso   1.000  O
  O6       1.0000 0.36360  0.99870  0.46150  Biso   1.000  O
  O7       1.0000 0.36360  0.50130  0.96150  Biso   1.000  O
  O8       1.0000 0.63640  0.00130  0.53850  Biso   1.000  O
  O9       1.0000 0.66280  0.45322  0.90190  Biso   1.000  O
  O10      1.0000 0.33720  0.95322  0.59810  Biso   1.000  O
  O11      1.0000 0.33720  0.54678  0.09810  Biso   1.000  O
  O12      1.0000 0.66280  0.04678  0.40190  Biso   1.000  O
  O13      1.0000 0.62290  0.66271  0.42480  Biso   1.000  O
  O14      1.0000 0.37710  0.16271  0.07520  Biso   1.000  O
  O15      1.0000 0.37710  0.33729  0.57520  Biso   1.000  O
  O16      1.0000 0.62290  0.83729  0.92480  Biso   1.000  O
  O17      1.0000 0.62620  0.75571  0.41410  Biso   1.000  O
  O18      1.0000 0.37380  0.25571  0.08590  Biso   1.000  O
  O19      1.0000 0.37380  0.24429  0.58590  Biso   1.000  O
  O20      1.0000 0.62620  0.74429  0.91410  Biso   1.000  O
  O21      1.0000 0.59880  0.70400  0.27410  Biso   1.000  O
  O22      1.0000 0.40120  0.20400  0.22590  Biso   1.000  O
  O23      1.0000 0.40120  0.29600  0.72590  Biso   1.000  O
  O24      1.0000 0.59880  0.79600  0.77410  Biso   1.000  O
  C1       1.0000 0.15650  0.60770  0.25070  Biso   1.000  C
  C2       1.0000 0.84350  0.10770  0.24930  Biso   1.000  C
  C3       1.0000 0.84350  0.39230  0.74930  Biso   1.000  C
  C4       1.0000 0.15650  0.89230  0.75070  Biso   1.000  C
  C5       1.0000 0.14640  0.66031  0.28210  Biso   1.000  C
  C6       1.0000 0.85360  0.16031  0.21790  Biso   1.000  C
  C7       1.0000 0.85360  0.33969  0.71790  Biso   1.000  C
  C8       1.0000 0.14640  0.83969  0.78210  Biso   1.000  C
  C9       1.0000 0.06770  0.72475  0.31760  Biso   1.000  C
  C10      1.0000 0.93230  0.22475  0.18240  Biso   1.000  C
  C11      1.0000 0.93230  0.27525  0.68240  Biso   1.000  C
  C12      1.0000 0.06770  0.77525  0.81760  Biso   1.000  C
  C13      1.0000 0.12380  0.76183  0.33160  Biso   1.000  C
  C14      1.0000 0.87620  0.26183  0.16840  Biso   1.000  C
  C15      1.0000 0.87620  0.23817  0.66840  Biso   1.000  C
  C16      1.0000 0.12380  0.73817  0.83160  Biso   1.000  C
  C17      1.0000 0.19360  0.74570  0.32770  Biso   1.000  C
  C18      1.0000 0.80640  0.24570  0.17230  Biso   1.000  C
  C19      1.0000 0.80640  0.25430  0.67230  Biso   1.000  C
  C20      1.0000 0.19360  0.75430  0.82770  Biso   1.000  C
  C21      1.0000 0.20690  0.69350  0.30620  Biso   1.000  C
  C22      1.0000 0.79310  0.19350  0.19380  Biso   1.000  C
  C23      1.0000 0.79310  0.30650  0.69380  Biso   1.000  C
  C24      1.0000 0.20690  0.80650  0.80620  Biso   1.000  C
  C25      1.0000 0.27890  0.67190  0.31050  Biso   1.000  C
  C26      1.0000 0.72110  0.17190  0.18950  Biso   1.000  C
  C27      1.0000 0.72110  0.32810  0.68950  Biso   1.000  C
  C28      1.0000 0.27890  0.82810  0.81050  Biso   1.000  C
  C29      1.0000 0.28840  0.62080  0.29380  Biso   1.000  C
  C30      1.0000 0.71160  0.12080  0.20620  Biso   1.000  C
  C31      1.0000 0.71160  0.37920  0.70620  Biso   1.000  C
  C32      1.0000 0.28840  0.87920  0.79380  Biso   1.000  C
  C33      1.0000 0.22770  0.58640  0.26230  Biso   1.000  C
  C34      1.0000 0.77230  0.08640  0.23770  Biso   1.000  C
  C35      1.0000 0.77230  0.41360  0.73770  Biso   1.000  C
  C36      1.0000 0.22770  0.91360  0.76230  Biso   1.000  C
  C37      1.0000 0.23400  0.53300  0.24360  Biso   1.000  C
  C38      1.0000 0.76600  0.03300  0.25640  Biso   1.000  C
  C39      1.0000 0.76600  0.46700  0.75640  Biso   1.000  C
  C40      1.0000 0.23400  0.96700  0.74360  Biso   1.000  C
  C41      1.0000 0.17280  0.50473  0.20860  Biso   1.000  C
  C42      1.0000 0.82720  0.00473  0.29140  Biso   1.000  C
  C43      1.0000 0.82720  0.49527  0.79140  Biso   1.000  C
  C44      1.0000 0.17280  0.99527  0.70860  Biso   1.000  C
  C45      1.0000 0.10610  0.53022  0.18760  Biso   1.000  C
  C46      1.0000 0.89390  0.03022  0.31240  Biso   1.000  C
  C47      1.0000 0.89390  0.46978  0.81240  Biso   1.000  C
  C48      1.0000 0.10610  0.96978  0.68760  Biso   1.000  C
  C49      1.0000 0.03870  0.50502  0.14090  Biso   1.000  C
  C50      1.0000 0.96130  0.00502  0.35910  Biso   1.000  C
  C51      1.0000 0.96130  0.49498  0.85910  Biso   1.000  C
  C52      1.0000 0.03870  0.99498  0.64090  Biso   1.000  C
  C53      1.0000 0.91370  0.51179  0.07830  Biso   1.000  C
  C54      1.0000 0.08630  0.01179  0.42170  Biso   1.000  C
  C55      1.0000 0.08630  0.48821  0.92170  Biso   1.000  C
  C56      1.0000 0.91370  0.98821  0.57830  Biso   1.000  C
  C57      1.0000 0.86320  0.54136  0.01790  Biso   1.000  C
  C58      1.0000 0.13680  0.04136  0.48210  Biso   1.000  C
  C59      1.0000 0.13680  0.45864  0.98210  Biso   1.000  C
  C60      1.0000 0.86320  0.95864  0.51790  Biso   1.000  C
  C61      1.0000 0.79170  0.52427  0.99320  Biso   1.000  C
  C62      1.0000 0.20830  0.02427  0.50680  Biso   1.000  C
  C63      1.0000 0.20830  0.47573  0.00680  Biso   1.000  C
  C64      1.0000 0.79170  0.97573  0.49320  Biso   1.000  C
  C65      1.0000 0.77070  0.47781  0.03050  Biso   1.000  C
  C66      1.0000 0.22930  0.97781  0.46950  Biso   1.000  C
  C67      1.0000 0.22930  0.52219  0.96950  Biso   1.000  C
  C68      1.0000 0.77070  0.02219  0.53050  Biso   1.000  C
  C69      1.0000 0.82100  0.44807  0.09120  Biso   1.000  C
  C70      1.0000 0.17900  0.94807  0.40880  Biso   1.000  C
  C71      1.0000 0.17900  0.55193  0.90880  Biso   1.000  C
  C72      1.0000 0.82100  0.05193  0.59120  Biso   1.000  C
  C73      1.0000 0.89270  0.46478  0.11450  Biso   1.000  C
  C74      1.0000 0.10730  0.96478  0.38550  Biso   1.000  C
  C75      1.0000 0.10730  0.53522  0.88550  Biso   1.000  C
  C76      1.0000 0.89270  0.03522  0.61450  Biso   1.000  C
  C77      1.0000 0.99390  0.73521  0.33500  Biso   1.000  C
  C78      1.0000 0.00610  0.23521  0.16500  Biso   1.000  C
  C79      1.0000 0.00610  0.26479  0.66500  Biso   1.000  C
  C80      1.0000 0.99390  0.76479  0.83500  Biso   1.000  C
  C81      1.0000 0.87860  0.70135  0.35540  Biso   1.000  C
  C82      1.0000 0.12140  0.20135  0.14460  Biso   1.000  C
  C83      1.0000 0.12140  0.29865  0.64460  Biso   1.000  C
  C84      1.0000 0.87860  0.79865  0.85540  Biso   1.000  C
  C85      1.0000 0.84990  0.66478  0.41010  Biso   1.000  C
  C86      1.0000 0.15010  0.16478  0.08990  Biso   1.000  C
  C87      1.0000 0.15010  0.33522  0.58990  Biso   1.000  C
  C88      1.0000 0.84990  0.83522  0.91010  Biso   1.000  C
  C89      1.0000 0.77580  0.66635  0.41460  Biso   1.000  C
  C90      1.0000 0.22420  0.16635  0.08540  Biso   1.000  C
  C91      1.0000 0.22420  0.33365  0.58540  Biso   1.000  C
  C92      1.0000 0.77580  0.83365  0.91460  Biso   1.000  C
  C93      1.0000 0.73190  0.70364  0.36290  Biso   1.000  C
  C94      1.0000 0.26810  0.20364  0.13710  Biso   1.000  C
  C95      1.0000 0.26810  0.29636  0.63710  Biso   1.000  C
  C96      1.0000 0.73190  0.79636  0.86290  Biso   1.000  C
  C97      1.0000 0.76080  0.73985  0.30860  Biso   1.000  C
  C98      1.0000 0.23920  0.23985  0.19140  Biso   1.000  C
  C99      1.0000 0.23920  0.26015  0.69140  Biso   1.000  C
  C100     1.0000 0.76080  0.76015  0.80860  Biso   1.000  C
  C101     1.0000 0.83470  0.73894  0.30390  Biso   1.000  C
  C102     1.0000 0.16530  0.23894  0.19610  Biso   1.000  C
  C103     1.0000 0.16530  0.26106  0.69610  Biso   1.000  C
  C104     1.0000 0.83470  0.76106  0.80390  Biso   1.000  C
  S9       1.0000 0.34718  0.53718  0.56366  Biso   1.000  S
  S10      1.0000 0.65282  0.03718  0.93634  Biso   1.000  S
  S11      1.0000 0.65282  0.46282  0.43634  Biso   1.000  S
  S12      1.0000 0.34718  0.96282  0.06366  Biso   1.000  S
  S13      1.0000 0.32613  0.75112  0.06838  Biso   1.000  S
  S14      1.0000 0.67387  0.25112  0.43162  Biso   1.000  S
  S15      1.0000 0.67387  0.24888  0.93162  Biso   1.000  S
  S16      1.0000 0.32613  0.74888  0.56838  Biso   1.000  S
  O25      1.0000 0.35370  0.56215  0.65520  Biso   1.000  O
  O26      1.0000 0.64630  0.06215  0.84480  Biso   1.000  O
  O27      1.0000 0.64630  0.43785  0.34480  Biso   1.000  O
  O28      1.0000 0.35370  0.93785  0.15520  Biso   1.000  O
  O29      1.0000 0.38740  0.56534  0.50130  Biso   1.000  O
  O30      1.0000 0.61260  0.06534  0.99870  Biso   1.000  O
  O31      1.0000 0.61260  0.43466  0.49870  Biso   1.000  O
  O32      1.0000 0.38740  0.93466  0.00130  Biso   1.000  O
  O33      1.0000 0.36430  0.48174  0.57000  Biso   1.000  O
  O34      1.0000 0.63570  0.98174  0.93000  Biso   1.000  O
  O35      1.0000 0.63570  0.51826  0.43000  Biso   1.000  O
  O36      1.0000 0.36430  0.01826  0.07000  Biso   1.000  O
  O37      1.0000 0.32720  0.80757  0.06170  Biso   1.000  O
  O38      1.0000 0.67280  0.30757  0.43830  Biso   1.000  O
  O39      1.0000 0.67280  0.19243  0.93830  Biso   1.000  O
  O40      1.0000 0.32720  0.69243  0.56170  Biso   1.000  O
  O41      1.0000 0.35130  0.72492  0.99010  Biso   1.000  O
  O42      1.0000 0.64870  0.22492  0.50990  Biso   1.000  O
  O43      1.0000 0.64870  0.27508  0.00990  Biso   1.000  O
  O44      1.0000 0.35130  0.77508  0.49010  Biso   1.000  O
  O45      1.0000 0.36380  0.73251  0.15950  Biso   1.000  O
  O46      1.0000 0.63620  0.23251  0.34050  Biso   1.000  O
  O47      1.0000 0.63620  0.26749  0.84050  Biso   1.000  O
  O48      1.0000 0.36380  0.76749  0.65950  Biso   1.000  O
  N17      1.0000 0.91080  0.57455  0.27450  Biso   1.000  N
  N18      1.0000 0.08920  0.07455  0.22550  Biso   1.000  N
  N19      1.0000 0.08920  0.42545  0.72550  Biso   1.000  N
  N20      1.0000 0.91080  0.92545  0.77450  Biso   1.000  N
  N21      1.0000 0.90180  0.65070  0.13870  Biso   1.000  N
  N22      1.0000 0.09820  0.15070  0.36130  Biso   1.000  N
  N23      1.0000 0.09820  0.34930  0.86130  Biso   1.000  N
  N24      1.0000 0.90180  0.84930  0.63870  Biso   1.000  N
  N25      1.0000 0.03500  0.55956  0.39010  Biso   1.000  N
  N26      1.0000 0.96500  0.05956  0.10990  Biso   1.000  N
  N27      1.0000 0.96500  0.44044  0.60990  Biso   1.000  N
  N28      1.0000 0.03500  0.94044  0.89010  Biso   1.000  N
  N29      1.0000 0.02120  0.68040  0.07520  Biso   1.000  N
  N30      1.0000 0.97880  0.18040  0.42480  Biso   1.000  N
  N31      1.0000 0.97880  0.31960  0.92480  Biso   1.000  N
  N32      1.0000 0.02120  0.81960  0.57520  Biso   1.000  N
  C105     1.0000 0.84490  0.58715  0.22420  Biso   1.000  C
  C106     1.0000 0.15510  0.08715  0.27580  Biso   1.000  C
  C107     1.0000 0.15510  0.41285  0.77580  Biso   1.000  C
  C108     1.0000 0.84490  0.91285  0.72420  Biso   1.000  C
  C109     1.0000 0.83920  0.63040  0.16190  Biso   1.000  C
  C110     1.0000 0.16080  0.13040  0.33810  Biso   1.000  C
  C111     1.0000 0.16080  0.36960  0.83810  Biso   1.000  C
  C112     1.0000 0.83920  0.86960  0.66190  Biso   1.000  C
  C113     1.0000 0.89670  0.69296  0.08320  Biso   1.000  C
  C114     1.0000 0.10330  0.19296  0.41680  Biso   1.000  C
  C115     1.0000 0.10330  0.30704  0.91680  Biso   1.000  C
  C116     1.0000 0.89670  0.80704  0.58320  Biso   1.000  C
  C117     1.0000 0.83040  0.71760  0.04900  Biso   1.000  C
  C118     1.0000 0.16960  0.21760  0.45100  Biso   1.000  C
  C119     1.0000 0.16960  0.28240  0.95100  Biso   1.000  C
  C120     1.0000 0.83040  0.78240  0.54900  Biso   1.000  C
  C121     1.0000 0.76680  0.69510  0.06670  Biso   1.000  C
  C122     1.0000 0.23320  0.19510  0.43330  Biso   1.000  C
  C123     1.0000 0.23320  0.30490  0.93330  Biso   1.000  C
  C124     1.0000 0.76680  0.80490  0.56670  Biso   1.000  C
  C125     1.0000 0.76960  0.65009  0.12200  Biso   1.000  C
  C126     1.0000 0.23040  0.15009  0.37800  Biso   1.000  C
  C127     1.0000 0.23040  0.34991  0.87800  Biso   1.000  C
  C128     1.0000 0.76960  0.84991  0.62200  Biso   1.000  C
  C129     1.0000 0.70570  0.62340  0.14080  Biso   1.000  C
  C130     1.0000 0.29430  0.12340  0.35920  Biso   1.000  C
  C131     1.0000 0.29430  0.37660  0.85920  Biso   1.000  C
  C132     1.0000 0.70570  0.87660  0.64080  Biso   1.000  C
  C133     1.0000 0.71100  0.57990  0.19200  Biso   1.000  C
  C134     1.0000 0.28900  0.07990  0.30800  Biso   1.000  C
  C135     1.0000 0.28900  0.42010  0.80800  Biso   1.000  C
  C136     1.0000 0.71100  0.92010  0.69200  Biso   1.000  C
  C137     1.0000 0.78050  0.55933  0.23530  Biso   1.000  C
  C138     1.0000 0.21950  0.05933  0.26470  Biso   1.000  C
  C139     1.0000 0.21950  0.44067  0.76470  Biso   1.000  C
  C140     1.0000 0.78050  0.94067  0.73530  Biso   1.000  C
  C141     1.0000 0.78900  0.51260  0.28640  Biso   1.000  C
  C142     1.0000 0.21100  0.01260  0.21360  Biso   1.000  C
  C143     1.0000 0.21100  0.48740  0.71360  Biso   1.000  C
  C144     1.0000 0.78900  0.98740  0.78640  Biso   1.000  C
  C145     1.0000 0.85690  0.49756  0.33050  Biso   1.000  C
  C146     1.0000 0.14310  0.99756  0.16950  Biso   1.000  C
  C147     1.0000 0.14310  0.50244  0.66950  Biso   1.000  C
  C148     1.0000 0.85690  0.00244  0.83050  Biso   1.000  C
  C149     1.0000 0.91660  0.53059  0.32620  Biso   1.000  C
  C150     1.0000 0.08340  0.03059  0.17380  Biso   1.000  C
  C151     1.0000 0.08340  0.46941  0.67380  Biso   1.000  C
  C152     1.0000 0.91660  0.96941  0.82620  Biso   1.000  C
  C153     1.0000 0.98910  0.52110  0.38100  Biso   1.000  C
  C154     1.0000 0.01090  0.02110  0.11900  Biso   1.000  C
  C155     1.0000 0.01090  0.47890  0.61900  Biso   1.000  C
  C156     1.0000 0.98910  0.97890  0.88100  Biso   1.000  C
  C157     1.0000 0.10860  0.55151  0.43460  Biso   1.000  C
  C158     1.0000 0.89140  0.05151  0.06540  Biso   1.000  C
  C159     1.0000 0.89140  0.44849  0.56540  Biso   1.000  C
  C160     1.0000 0.10860  0.94849  0.93460  Biso   1.000  C
  C161     1.0000 0.14610  0.59444  0.47560  Biso   1.000  C
  C162     1.0000 0.85390  0.09444  0.02440  Biso   1.000  C
  C163     1.0000 0.85390  0.40556  0.52440  Biso   1.000  C
  C164     1.0000 0.14610  0.90556  0.97560  Biso   1.000  C
  C165     1.0000 0.21890  0.59005  0.51470  Biso   1.000  C
  C166     1.0000 0.78110  0.09005  0.98530  Biso   1.000  C
  C167     1.0000 0.78110  0.40995  0.48530  Biso   1.000  C
  C168     1.0000 0.21890  0.90995  0.01470  Biso   1.000  C
  C169     1.0000 0.25440  0.54179  0.51330  Biso   1.000  C
  C170     1.0000 0.74560  0.04179  0.98670  Biso   1.000  C
  C171     1.0000 0.74560  0.45821  0.48670  Biso   1.000  C
  C172     1.0000 0.25440  0.95821  0.01330  Biso   1.000  C
  C173     1.0000 0.21680  0.49873  0.47030  Biso   1.000  C
  C174     1.0000 0.78320  0.99873  0.02970  Biso   1.000  C
  C175     1.0000 0.78320  0.50127  0.52970  Biso   1.000  C
  C176     1.0000 0.21680  0.00127  0.97030  Biso   1.000  C
  C177     1.0000 0.14390  0.50293  0.43120  Biso   1.000  C
  C178     1.0000 0.85610  0.00293  0.06880  Biso   1.000  C
  C179     1.0000 0.85610  0.49707  0.56880  Biso   1.000  C
  C180     1.0000 0.14390  0.99707  0.93120  Biso   1.000  C
  C181     1.0000 0.96550  0.71159  0.05940  Biso   1.000  C
  C182     1.0000 0.03450  0.21159  0.44060  Biso   1.000  C
  C183     1.0000 0.03450  0.28841  0.94060  Biso   1.000  C
  C184     1.0000 0.96550  0.78841  0.55940  Biso   1.000  C
  C185     1.0000 0.09150  0.69989  0.06540  Biso   1.000  C
  C186     1.0000 0.90850  0.19989  0.43460  Biso   1.000  C
  C187     1.0000 0.90850  0.30011  0.93460  Biso   1.000  C
  C188     1.0000 0.09150  0.80011  0.56540  Biso   1.000  C
  C189     1.0000 0.14300  0.66467  0.04360  Biso   1.000  C
  C190     1.0000 0.85700  0.16467  0.45640  Biso   1.000  C
  C191     1.0000 0.85700  0.33533  0.95640  Biso   1.000  C
  C192     1.0000 0.14300  0.83533  0.54360  Biso   1.000  C
  C193     1.0000 0.21330  0.68037  0.04140  Biso   1.000  C
  C194     1.0000 0.78670  0.18037  0.45860  Biso   1.000  C
  C195     1.0000 0.78670  0.31963  0.95860  Biso   1.000  C
  C196     1.0000 0.21330  0.81963  0.54140  Biso   1.000  C
  C197     1.0000 0.23400  0.73203  0.06330  Biso   1.000  C
  C198     1.0000 0.76600  0.23203  0.43670  Biso   1.000  C
  C199     1.0000 0.76600  0.26797  0.93670  Biso   1.000  C
  C200     1.0000 0.23400  0.76797  0.56330  Biso   1.000  C
  C201     1.0000 0.18260  0.76747  0.08650  Biso   1.000  C
  C202     1.0000 0.81740  0.26747  0.41350  Biso   1.000  C
  C203     1.0000 0.81740  0.23253  0.91350  Biso   1.000  C
  C204     1.0000 0.18260  0.73253  0.58650  Biso   1.000  C
  C205     1.0000 0.11200  0.75175  0.08680  Biso   1.000  C
  C206     1.0000 0.88800  0.25175  0.41320  Biso   1.000  C
  C207     1.0000 0.88800  0.24825  0.91320  Biso   1.000  C
  C208     1.0000 0.11200  0.74825  0.58680  Biso   1.000  C
  Cl1      1.0000 0.70581  0.62472  0.68091  Biso   1.000  Cl
  Cl2      1.0000 0.29419  0.12472  0.81909  Biso   1.000  Cl
  Cl3      1.0000 0.29419  0.37528  0.31909  Biso   1.000  Cl
  Cl4      1.0000 0.70581  0.87528  0.18091  Biso   1.000  Cl
  O49      1.0000 0.77210  0.63570  0.65400  Biso   1.000  O
  O50      1.0000 0.22790  0.13570  0.84600  Biso   1.000  O
  O51      1.0000 0.22790  0.36430  0.34600  Biso   1.000  O
  O52      1.0000 0.77210  0.86430  0.15400  Biso   1.000  O
  O53      1.0000 0.71890  0.61110  0.77580  Biso   1.000  O
  O54      1.0000 0.28110  0.11110  0.72420  Biso   1.000  O
  O55      1.0000 0.28110  0.38890  0.22420  Biso   1.000  O
  O56      1.0000 0.71890  0.88890  0.27580  Biso   1.000  O
  O57      1.0000 0.67090  0.58460  0.62410  Biso   1.000  O
  O58      1.0000 0.32910  0.08460  0.87590  Biso   1.000  O
  O59      1.0000 0.32910  0.41540  0.37590  Biso   1.000  O
  O60      1.0000 0.67090  0.91540  0.12410  Biso   1.000  O
  O61      1.0000 0.65730  0.66740  0.67320  Biso   1.000  O
  O62      1.0000 0.34270  0.16740  0.82680  Biso   1.000  O
  O63      1.0000 0.34270  0.33260  0.32680  Biso   1.000  O
  O64      1.0000 0.65730  0.83260  0.17320  Biso   1.000  O
  Cl5      1.0000 0.99805  0.37176  0.33408  Biso   1.000  Cl
  Cl6      1.0000 0.00195  0.87176  0.16592  Biso   1.000  Cl
  Cl7      1.0000 0.00195  0.62824  0.66592  Biso   1.000  Cl
  Cl8      1.0000 0.99805  0.12824  0.83408  Biso   1.000  Cl
  O65      1.0000 0.03210  0.40930  0.28100  Biso   1.000  O
  O66      1.0000 0.96790  0.90930  0.21900  Biso   1.000  O
  O67      1.0000 0.96790  0.59070  0.71900  Biso   1.000  O
  O68      1.0000 0.03210  0.09070  0.78100  Biso   1.000  O
  O69      1.0000 0.02940  0.32129  0.32870  Biso   1.000  O
  O70      1.0000 0.97060  0.82129  0.17130  Biso   1.000  O
  O71      1.0000 0.97060  0.67871  0.67130  Biso   1.000  O
  O72      1.0000 0.02940  0.17871  0.82870  Biso   1.000  O
  O73      1.0000 0.00930  0.38920  0.43040  Biso   1.000  O
  O74      1.0000 0.99070  0.88920  0.06960  Biso   1.000  O
  O75      1.0000 0.99070  0.61080  0.56960  Biso   1.000  O
  O76      1.0000 0.00930  0.11080  0.93040  Biso   1.000  O
  O77      1.0000 0.92150  0.36993  0.30000  Biso   1.000  O
  O78      1.0000 0.07850  0.86993  0.20000  Biso   1.000  O
  O79      1.0000 0.07850  0.63007  0.70000  Biso   1.000  O
  O80      1.0000 0.92150  0.13007  0.80000  Biso   1.000  O
  O81      1.0000 0.53680  0.25881  0.17700  Biso   1.000  O
  O82      1.0000 0.46320  0.75881  0.32300  Biso   1.000  O
  O83      1.0000 0.46320  0.74119  0.82300  Biso   1.000  O
  O84      1.0000 0.53680  0.24119  0.67700  Biso   1.000  O
  O85      1.0000 0.45310  0.28459  0.94180  Biso   1.000  O
  O86      1.0000 0.54690  0.78459  0.55820  Biso   1.000  O
  O87      1.0000 0.54690  0.71541  0.05820  Biso   1.000  O
  O88      1.0000 0.45310  0.21541  0.44180  Biso   1.000  O
  O89      1.0000 0.42920  0.35895  0.14740  Biso   1.000  O
  O90      1.0000 0.57080  0.85895  0.35260  Biso   1.000  O
  O91      1.0000 0.57080  0.64105  0.85260  Biso   1.000  O
  O92      1.0000 0.42920  0.14105  0.64740  Biso   1.000  O
  O93      1.0000 0.47470  0.42602  0.95740  Biso   1.000  O
  O94      1.0000 0.52530  0.92602  0.54260  Biso   1.000  O
  O95      1.0000 0.52530  0.57398  0.04260  Biso   1.000  O
  O96      1.0000 0.47470  0.07398  0.45740  Biso   1.000  O
  O97      1.0000 0.56110  0.44637  0.16650  Biso   1.000  O
  O98      1.0000 0.43890  0.94637  0.33350  Biso   1.000  O
  O99      1.0000 0.43890  0.55363  0.83350  Biso   1.000  O
  O100     1.0000 0.56110  0.05363  0.66650  Biso   1.000  O
  O101     1.0000 0.65740  0.34151  0.23070  Biso   1.000  O
  O102     1.0000 0.34260  0.84151  0.26930  Biso   1.000  O
  O103     1.0000 0.34260  0.65849  0.76930  Biso   1.000  O
  O104     1.0000 0.65740  0.15849  0.73070  Biso   1.000  O
  O105     1.0000 0.57400  0.36358  0.86730  Biso   1.000  O
  O106     1.0000 0.42600  0.86358  0.63270  Biso   1.000  O
  O107     1.0000 0.42600  0.63642  0.13270  Biso   1.000  O
  O108     1.0000 0.57400  0.13642  0.36730  Biso   1.000  O
  O109     1.0000 0.45550  0.49949  0.39210  Biso   1.000  O
  O110     1.0000 0.54450  0.99949  0.10790  Biso   1.000  O
  O111     1.0000 0.54450  0.50051  0.60790  Biso   1.000  O
  O112     1.0000 0.45550  0.00051  0.89210  Biso   1.000  O
  O113     1.0000 0.44450  0.66892  0.43860  Biso   1.000  O
  O114     1.0000 0.55550  0.16892  0.06140  Biso   1.000  O
  O115     1.0000 0.55550  0.33108  0.56140  Biso   1.000  O
  O116     1.0000 0.44450  0.83108  0.93860  Biso   1.000  O
  O117     1.0000 0.49650  0.62800  0.64520  Biso   1.000  O
  O118     1.0000 0.50350  0.12800  0.85480  Biso   1.000  O
  O119     1.0000 0.50350  0.37200  0.35480  Biso   1.000  O
  O120     1.0000 0.49650  0.87200  0.14520  Biso   1.000  O
  O121     1.0000 0.52950  0.59670  0.27940  Biso   1.000  O
  O122     1.0000 0.47050  0.09670  0.22060  Biso   1.000  O
  O123     1.0000 0.47050  0.40330  0.72060  Biso   1.000  O
  O124     1.0000 0.52950  0.90330  0.77940  Biso   1.000  O
  O125     1.0000 0.42560  0.47000  0.20380  Biso   1.000  O
  O126     1.0000 0.57440  0.97000  0.29620  Biso   1.000  O
  O127     1.0000 0.57440  0.53000  0.79620  Biso   1.000  O
  O128     1.0000 0.42560  0.03000  0.70380  Biso   1.000  O
  O129     1.0000 0.88420  0.63518  0.85820  Biso   1.000  O
  O130     1.0000 0.11580  0.13518  0.64180  Biso   1.000  O
  O131     1.0000 0.11580  0.36482  0.14180  Biso   1.000  O
  O132     1.0000 0.88420  0.86482  0.35820  Biso   1.000  O
  H1       1.0000 0.11354  0.79860  0.34337  Biso   1.000  H
  H2       1.0000 0.88646  0.29860  0.15663  Biso   1.000  H
  H3       1.0000 0.88646  0.20140  0.65663  Biso   1.000  H
  H4       1.0000 0.11354  0.70140  0.84337  Biso   1.000  H
  H5       1.0000 0.23422  0.77035  0.34001  Biso   1.000  H
  H6       1.0000 0.76578  0.27035  0.15999  Biso   1.000  H
  H7       1.0000 0.76578  0.22965  0.65999  Biso   1.000  H
  H8       1.0000 0.23422  0.72965  0.84001  Biso   1.000  H
  H9       1.0000 0.32161  0.69465  0.32542  Biso   1.000  H
  H10      1.0000 0.67839  0.19465  0.17458  Biso   1.000  H
  H11      1.0000 0.67839  0.30535  0.67458  Biso   1.000  H
  H12      1.0000 0.32161  0.80535  0.82542  Biso   1.000  H
  H13      1.0000 0.33780  0.60654  0.30337  Biso   1.000  H
  H14      1.0000 0.66220  0.10654  0.19663  Biso   1.000  H
  H15      1.0000 0.66220  0.39346  0.69663  Biso   1.000  H
  H16      1.0000 0.33780  0.89346  0.80337  Biso   1.000  H
  H17      1.0000 0.28167  0.51618  0.25541  Biso   1.000  H
  H18      1.0000 0.71833  0.01618  0.24459  Biso   1.000  H
  H19      1.0000 0.71833  0.48382  0.74459  Biso   1.000  H
  H20      1.0000 0.28167  0.98382  0.75541  Biso   1.000  H
  H21      1.0000 0.17620  0.46696  0.19882  Biso   1.000  H
  H22      1.0000 0.82380  0.96696  0.30118  Biso   1.000  H
  H23      1.0000 0.82380  0.53304  0.80118  Biso   1.000  H
  H24      1.0000 0.17620  0.03304  0.69882  Biso   1.000  H
  H25      1.0000 0.03562  0.46694  0.13421  Biso   1.000  H
  H26      1.0000 0.96438  0.96694  0.36579  Biso   1.000  H
  H27      1.0000 0.96438  0.53306  0.86579  Biso   1.000  H
  H28      1.0000 0.03562  0.03306  0.63421  Biso   1.000  H
  H29      1.0000 0.87822  0.57459  0.99316  Biso   1.000  H
  H30      1.0000 0.12178  0.07459  0.50684  Biso   1.000  H
  H31      1.0000 0.12178  0.42541  0.00684  Biso   1.000  H
  H32      1.0000 0.87822  0.92541  0.49316  Biso   1.000  H
  H33      1.0000 0.75623  0.54468  0.95001  Biso   1.000  H
  H34      1.0000 0.24377  0.04468  0.54999  Biso   1.000  H
  H35      1.0000 0.24377  0.45532  0.04999  Biso   1.000  H
  H36      1.0000 0.75623  0.95532  0.45001  Biso   1.000  H
  H37      1.0000 0.80558  0.41536  0.11722  Biso   1.000  H
  H38      1.0000 0.19442  0.91536  0.38278  Biso   1.000  H
  H39      1.0000 0.19442  0.58464  0.88278  Biso   1.000  H
  H40      1.0000 0.80558  0.08464  0.61722  Biso   1.000  H
  H41      1.0000 0.92814  0.44356  0.15616  Biso   1.000  H
  H42      1.0000 0.07186  0.94356  0.34384  Biso   1.000  H
  H43      1.0000 0.07186  0.55644  0.84384  Biso   1.000  H
  H44      1.0000 0.92814  0.05644  0.65616  Biso   1.000  H
  H45      1.0000 0.97559  0.77093  0.33790  Biso   1.000  H
  H46      1.0000 0.02441  0.27093  0.16210  Biso   1.000  H
  H47      1.0000 0.02441  0.22907  0.66210  Biso   1.000  H
  H48      1.0000 0.97559  0.72907  0.83790  Biso   1.000  H
  H49      1.0000 0.88113  0.63805  0.44437  Biso   1.000  H
  H50      1.0000 0.11887  0.13805  0.05563  Biso   1.000  H
  H51      1.0000 0.11887  0.36195  0.55563  Biso   1.000  H
  H52      1.0000 0.88113  0.86195  0.94437  Biso   1.000  H
  H53      1.0000 0.75501  0.64134  0.45391  Biso   1.000  H
  H54      1.0000 0.24499  0.14134  0.04609  Biso   1.000  H
  H55      1.0000 0.24499  0.35866  0.54609  Biso   1.000  H
  H56      1.0000 0.75501  0.85866  0.95391  Biso   1.000  H
  H57      1.0000 0.72924  0.76599  0.27273  Biso   1.000  H
  H58      1.0000 0.27076  0.26599  0.22727  Biso   1.000  H
  H59      1.0000 0.27076  0.23401  0.72727  Biso   1.000  H
  H60      1.0000 0.72924  0.73401  0.77273  Biso   1.000  H
  H61      1.0000 0.85577  0.76447  0.26559  Biso   1.000  H
  H62      1.0000 0.14423  0.26447  0.23441  Biso   1.000  H
  H63      1.0000 0.14423  0.23553  0.73441  Biso   1.000  H
  H64      1.0000 0.85577  0.73553  0.76559  Biso   1.000  H
  H65      1.0000 0.82912  0.75028  0.01347  Biso   1.000  H
  H66      1.0000 0.17088  0.25028  0.48653  Biso   1.000  H
  H67      1.0000 0.17088  0.24972  0.98653  Biso   1.000  H
  H68      1.0000 0.82912  0.74972  0.51347  Biso   1.000  H
  H69      1.0000 0.71981  0.71043  0.04005  Biso   1.000  H
  H70      1.0000 0.28019  0.21043  0.45995  Biso   1.000  H
  H71      1.0000 0.28019  0.28957  0.95995  Biso   1.000  H
  H72      1.0000 0.71981  0.78957  0.54005  Biso   1.000  H
  H73      1.0000 0.65762  0.63758  0.11565  Biso   1.000  H
  H74      1.0000 0.34238  0.13758  0.38435  Biso   1.000  H
  H75      1.0000 0.34238  0.36242  0.88435  Biso   1.000  H
  H76      1.0000 0.65762  0.86242  0.61565  Biso   1.000  H
  H77      1.0000 0.66630  0.56152  0.20066  Biso   1.000  H
  H78      1.0000 0.33370  0.06152  0.29934  Biso   1.000  H
  H79      1.0000 0.33370  0.43848  0.79934  Biso   1.000  H
  H80      1.0000 0.66630  0.93848  0.70066  Biso   1.000  H
  H81      1.0000 0.74675  0.49063  0.29007  Biso   1.000  H
  H82      1.0000 0.25325  0.99063  0.20993  Biso   1.000  H
  H83      1.0000 0.25325  0.50937  0.70993  Biso   1.000  H
  H84      1.0000 0.74675  0.00937  0.79007  Biso   1.000  H
  H85      1.0000 0.86353  0.46439  0.36481  Biso   1.000  H
  H86      1.0000 0.13647  0.96439  0.13519  Biso   1.000  H
  H87      1.0000 0.13647  0.53561  0.63519  Biso   1.000  H
  H88      1.0000 0.86353  0.03561  0.86481  Biso   1.000  H
  H89      1.0000 0.00235  0.48686  0.40921  Biso   1.000  H
  H90      1.0000 0.99765  0.98686  0.09079  Biso   1.000  H
  H91      1.0000 0.99765  0.51314  0.59079  Biso   1.000  H
  H92      1.0000 0.00235  0.01314  0.90921  Biso   1.000  H
  H93      1.0000 0.12108  0.62800  0.47716  Biso   1.000  H
  H94      1.0000 0.87892  0.12800  0.02284  Biso   1.000  H
  H95      1.0000 0.87892  0.37200  0.52284  Biso   1.000  H
  H96      1.0000 0.12108  0.87200  0.97716  Biso   1.000  H
  H97      1.0000 0.24575  0.62045  0.54370  Biso   1.000  H
  H98      1.0000 0.75425  0.12045  0.95630  Biso   1.000  H
  H99      1.0000 0.75425  0.37955  0.45630  Biso   1.000  H
  H100     1.0000 0.24575  0.87955  0.04370  Biso   1.000  H
  H101     1.0000 0.24202  0.46538  0.46840  Biso   1.000  H
  H102     1.0000 0.75798  0.96538  0.03160  Biso   1.000  H
  H103     1.0000 0.75798  0.53462  0.53160  Biso   1.000  H
  H104     1.0000 0.24202  0.03462  0.96840  Biso   1.000  H
  H105     1.0000 0.11743  0.47280  0.40113  Biso   1.000  H
  H106     1.0000 0.88257  0.97280  0.09887  Biso   1.000  H
  H107     1.0000 0.88257  0.52720  0.59887  Biso   1.000  H
  H108     1.0000 0.11743  0.02720  0.90113  Biso   1.000  H
  H109     1.0000 0.96931  0.74648  0.03298  Biso   1.000  H
  H110     1.0000 0.03069  0.24648  0.46702  Biso   1.000  H
  H111     1.0000 0.03069  0.25352  0.96702  Biso   1.000  H
  H112     1.0000 0.96931  0.75352  0.53298  Biso   1.000  H
  H113     1.0000 0.12898  0.62832  0.02994  Biso   1.000  H
  H114     1.0000 0.87102  0.12832  0.47006  Biso   1.000  H
  H115     1.0000 0.87102  0.37168  0.97006  Biso   1.000  H
  H116     1.0000 0.12898  0.87168  0.52994  Biso   1.000  H
  H117     1.0000 0.24881  0.65554  0.02466  Biso   1.000  H
  H118     1.0000 0.75119  0.15554  0.47534  Biso   1.000  H
  H119     1.0000 0.75119  0.34446  0.97534  Biso   1.000  H
  H120     1.0000 0.24881  0.84446  0.52466  Biso   1.000  H
  H121     1.0000 0.19709  0.80366  0.10254  Biso   1.000  H
  H122     1.0000 0.80291  0.30366  0.39746  Biso   1.000  H
  H123     1.0000 0.80291  0.19634  0.89746  Biso   1.000  H
  H124     1.0000 0.19709  0.69634  0.60254  Biso   1.000  H
  H125     1.0000 0.07622  0.77665  0.10311  Biso   1.000  H
  H126     1.0000 0.92378  0.27665  0.39689  Biso   1.000  H
  H127     1.0000 0.92378  0.22335  0.89689  Biso   1.000  H
  H128     1.0000 0.07622  0.72335  0.60311  Biso   1.000  H
  H129     1.0000 0.56786  0.25345  0.22562  Biso   1.000  H
  H130     1.0000 0.43214  0.75345  0.27438  Biso   1.000  H
  H131     1.0000 0.43214  0.74655  0.77438  Biso   1.000  H
  H132     1.0000 0.56786  0.24655  0.72562  Biso   1.000  H
  H133     1.0000 0.49494  0.25453  0.18919  Biso   1.000  H
  H134     1.0000 0.50506  0.75453  0.31081  Biso   1.000  H
  H135     1.0000 0.50506  0.74547  0.81081  Biso   1.000  H
  H136     1.0000 0.49494  0.24547  0.68919  Biso   1.000  H
  H137     1.0000 0.48302  0.26138  0.93353  Biso   1.000  H
  H138     1.0000 0.51698  0.76138  0.56647  Biso   1.000  H
  H139     1.0000 0.51698  0.73862  0.06647  Biso   1.000  H
  H140     1.0000 0.48302  0.23862  0.43353  Biso   1.000  H
  H141     1.0000 0.41987  0.28619  0.89399  Biso   1.000  H
  H142     1.0000 0.58013  0.78619  0.60601  Biso   1.000  H
  H143     1.0000 0.58013  0.71381  0.10601  Biso   1.000  H
  H144     1.0000 0.41987  0.21381  0.39399  Biso   1.000  H
  H145     1.0000 0.39822  0.33588  0.12188  Biso   1.000  H
  H146     1.0000 0.60178  0.83588  0.37812  Biso   1.000  H
  H147     1.0000 0.60178  0.66412  0.87812  Biso   1.000  H
  H148     1.0000 0.39822  0.16412  0.62188  Biso   1.000  H
  H149     1.0000 0.40676  0.38548  0.16136  Biso   1.000  H
  H150     1.0000 0.59324  0.88548  0.33864  Biso   1.000  H
  H151     1.0000 0.59324  0.61452  0.83864  Biso   1.000  H
  H152     1.0000 0.40676  0.11452  0.66136  Biso   1.000  H
  H153     1.0000 0.49823  0.44282  0.00365  Biso   1.000  H
  H154     1.0000 0.50177  0.94282  0.49635  Biso   1.000  H
  H155     1.0000 0.50177  0.55718  0.99635  Biso   1.000  H
  H156     1.0000 0.49823  0.05718  0.50365  Biso   1.000  H
  H157     1.0000 0.43070  0.43555  0.94858  Biso   1.000  H
  H158     1.0000 0.56930  0.93555  0.55142  Biso   1.000  H
  H159     1.0000 0.56930  0.56445  0.05142  Biso   1.000  H
  H160     1.0000 0.43070  0.06445  0.44858  Biso   1.000  H
  H161     1.0000 0.59287  0.44183  0.21709  Biso   1.000  H
  H162     1.0000 0.40713  0.94183  0.28291  Biso   1.000  H
  H163     1.0000 0.40713  0.55817  0.78291  Biso   1.000  H
  H164     1.0000 0.59287  0.05817  0.71709  Biso   1.000  H
  H165     1.0000 0.52212  0.46054  0.18090  Biso   1.000  H
  H166     1.0000 0.47788  0.96054  0.31910  Biso   1.000  H
  H167     1.0000 0.47788  0.53946  0.81910  Biso   1.000  H
  H168     1.0000 0.52212  0.03946  0.68090  Biso   1.000  H
  H169     1.0000 0.67244  0.37178  0.24249  Biso   1.000  H
  H170     1.0000 0.32756  0.87178  0.25751  Biso   1.000  H
  H171     1.0000 0.32756  0.62822  0.75751  Biso   1.000  H
  H172     1.0000 0.67244  0.12822  0.74249  Biso   1.000  H
  H173     1.0000 0.65629  0.32545  0.28168  Biso   1.000  H
  H174     1.0000 0.34371  0.82545  0.21832  Biso   1.000  H
  H175     1.0000 0.34371  0.67455  0.71832  Biso   1.000  H
  H176     1.0000 0.65629  0.17455  0.78168  Biso   1.000  H
  H177     1.0000 0.58976  0.33731  0.84174  Biso   1.000  H
  H178     1.0000 0.41024  0.83731  0.65826  Biso   1.000  H
  H179     1.0000 0.41024  0.66269  0.15826  Biso   1.000  H
  H180     1.0000 0.58976  0.16269  0.34174  Biso   1.000  H
  H181     1.0000 0.60710  0.38698  0.87644  Biso   1.000  H
  H182     1.0000 0.39290  0.88698  0.62356  Biso   1.000  H
  H183     1.0000 0.39290  0.61302  0.12356  Biso   1.000  H
  H184     1.0000 0.60710  0.11302  0.37644  Biso   1.000  H
  H185     1.0000 0.44462  0.50395  0.33283  Biso   1.000  H
  H186     1.0000 0.55538  0.00395  0.16717  Biso   1.000  H
  H187     1.0000 0.55538  0.49605  0.66717  Biso   1.000  H
  H188     1.0000 0.44462  0.99605  0.83283  Biso   1.000  H
  H189     1.0000 0.42193  0.51257  0.41865  Biso   1.000  H
  H190     1.0000 0.57807  0.01257  0.08135  Biso   1.000  H
  H191     1.0000 0.57807  0.48743  0.58135  Biso   1.000  H
  H192     1.0000 0.42193  0.98743  0.91865  Biso   1.000  H
  H193     1.0000 0.41191  0.67546  0.47247  Biso   1.000  H
  H194     1.0000 0.58809  0.17546  0.02753  Biso   1.000  H
  H195     1.0000 0.58809  0.32454  0.52753  Biso   1.000  H
  H196     1.0000 0.41191  0.82454  0.97247  Biso   1.000  H
  H197     1.0000 0.45518  0.69668  0.41233  Biso   1.000  H
  H198     1.0000 0.54482  0.19668  0.08767  Biso   1.000  H
  H199     1.0000 0.54482  0.30332  0.58767  Biso   1.000  H
  H200     1.0000 0.45518  0.80332  0.91233  Biso   1.000  H
  H201     1.0000 0.52973  0.64938  0.67266  Biso   1.000  H
  H202     1.0000 0.47027  0.14938  0.82734  Biso   1.000  H
  H203     1.0000 0.47027  0.35062  0.32734  Biso   1.000  H
  H204     1.0000 0.52973  0.85062  0.17266  Biso   1.000  H
  H205     1.0000 0.45892  0.63004  0.67155  Biso   1.000  H
  H206     1.0000 0.54108  0.13004  0.82845  Biso   1.000  H
  H207     1.0000 0.54108  0.36996  0.32845  Biso   1.000  H
  H208     1.0000 0.45892  0.86996  0.17155  Biso   1.000  H
  H209     1.0000 0.50971  0.60832  0.22601  Biso   1.000  H
  H210     1.0000 0.49029  0.10832  0.27399  Biso   1.000  H
  H211     1.0000 0.49029  0.39168  0.77399  Biso   1.000  H
  H212     1.0000 0.50971  0.89168  0.72601  Biso   1.000  H
  H213     1.0000 0.52233  0.56461  0.28173  Biso   1.000  H
  H214     1.0000 0.47767  0.06461  0.21827  Biso   1.000  H
  H215     1.0000 0.47767  0.43539  0.71827  Biso   1.000  H
  H216     1.0000 0.52233  0.93539  0.78173  Biso   1.000  H
  H217     1.0000 0.46553  0.49956  0.19613  Biso   1.000  H
  H218     1.0000 0.53447  0.99956  0.30387  Biso   1.000  H
  H219     1.0000 0.53447  0.50044  0.80387  Biso   1.000  H
  H220     1.0000 0.46553  0.00044  0.69613  Biso   1.000  H
  H221     1.0000 0.39176  0.47476  0.15599  Biso   1.000  H
  H222     1.0000 0.60824  0.97476  0.34401  Biso   1.000  H
  H223     1.0000 0.60824  0.52524  0.84401  Biso   1.000  H
  H224     1.0000 0.39176  0.02524  0.65599  Biso   1.000  H
  H225     1.0000 0.90832  0.62360  0.90719  Biso   1.000  H
  H226     1.0000 0.09168  0.12360  0.59281  Biso   1.000  H
  H227     1.0000 0.09168  0.37640  0.09281  Biso   1.000  H
  H228     1.0000 0.90832  0.87640  0.40719  Biso   1.000  H
  H229     1.0000 0.90552  0.62851  0.81227  Biso   1.000  H
  H230     1.0000 0.09448  0.12851  0.68773  Biso   1.000  H
  H231     1.0000 0.09448  0.37149  0.18773  Biso   1.000  H
  H232     1.0000 0.90552  0.87149  0.31227  Biso   1.000  H
