data_image0
_cell_length_a       10.513
_cell_length_b       10.28
_cell_length_c       9.402
_cell_angle_alpha    90
_cell_angle_beta     116.032
_cell_angle_gamma    90

_symmetry_space_group_name_H-M    "P 1"
_symmetry_int_tables_number       1

loop_
  _symmetry_equiv_pos_as_xyz
  'x, y, z'

loop_
  _atom_site_label
  _atom_site_occupancy
  _atom_site_fract_x
  _atom_site_fract_y
  _atom_site_fract_z
  _atom_site_thermal_displace_type
  _atom_site_B_iso_or_equiv
  _atom_site_type_symbol
  Cu1      1.0000 0.13189  0.57461  0.43251  Biso   1.000  Cu
  Cu2      1.0000 0.86811  0.07461  0.06749  Biso   1.000  Cu
  Cu3      1.0000 0.86811  0.42539  0.56749  Biso   1.000  Cu
  Cu4      1.0000 0.13189  0.92539  0.93251  Biso   1.000  Cu
  Cu5      1.0000 0.64679  0.25812  0.74374  Biso   1.000  Cu
  Cu6      1.0000 0.35321  0.75812  0.75626  Biso   1.000  Cu
  Cu7      1.0000 0.35321  0.74188  0.25626  Biso   1.000  Cu
  Cu8      1.0000 0.64679  0.24188  0.24374  Biso   1.000  Cu
  N1       1.0000 0.51610  0.40160  0.68530  Biso   1.000  N
  N2       1.0000 0.48390  0.90160  0.81470  Biso   1.000  N
  N3       1.0000 0.48390  0.59840  0.31470  Biso   1.000  N
  N4       1.0000 0.51610  0.09840  0.18530  Biso   1.000  N
  N5       1.0000 0.40000  0.42060  0.54730  Biso   1.000  N
  N6       1.0000 0.60000  0.92060  0.95270  Biso   1.000  N
  N7       1.0000 0.60000  0.57940  0.45270  Biso   1.000  N
  N8       1.0000 0.40000  0.07940  0.04730  Biso   1.000  N
  N9       1.0000 0.33840  0.52890  0.55910  Biso   1.000  N
  N10      1.0000 0.66160  0.02890  0.94090  Biso   1.000  N
  N11      1.0000 0.66160  0.47110  0.44090  Biso   1.000  N
  N12      1.0000 0.33840  0.97110  0.05910  Biso   1.000  N
  N13      1.0000 0.41210  0.58410  0.70320  Biso   1.000  N
  N14      1.0000 0.58790  0.08410  0.79680  Biso   1.000  N
  N15      1.0000 0.58790  0.41590  0.29680  Biso   1.000  N
  N16      1.0000 0.41210  0.91590  0.20320  Biso   1.000  N
  C1       1.0000 0.51790  0.50210  0.77460  Biso   1.000  C
  C2       1.0000 0.48210  0.00210  0.72540  Biso   1.000  C
  C3       1.0000 0.48210  0.49790  0.22540  Biso   1.000  C
  C4       1.0000 0.51790  0.99790  0.27460  Biso   1.000  C
  N17      1.0000 0.62200  0.51510  0.93790  Biso   1.000  N
  N18      1.0000 0.37800  0.01510  0.56210  Biso   1.000  N
  N19      1.0000 0.37800  0.48490  0.06210  Biso   1.000  N
  N20      1.0000 0.62200  0.98490  0.43790  Biso   1.000  N
  O1       1.0000 0.61510  0.61220  0.00960  Biso   1.000  O
  O2       1.0000 0.38490  0.11220  0.49040  Biso   1.000  O
  O3       1.0000 0.38490  0.38780  0.99040  Biso   1.000  O
  O4       1.0000 0.61510  0.88780  0.50960  Biso   1.000  O
  O5       1.0000 0.70640  0.42540  0.99260  Biso   1.000  O
  O6       1.0000 0.29360  0.92540  0.50740  Biso   1.000  O
  O7       1.0000 0.29360  0.57460  0.00740  Biso   1.000  O
  O8       1.0000 0.70640  0.07460  0.49260  Biso   1.000  O
  N21      1.0000 0.01500  0.41380  0.34070  Biso   1.000  N
  N22      1.0000 0.98500  0.91380  0.15930  Biso   1.000  N
  N23      1.0000 0.98500  0.58620  0.65930  Biso   1.000  N
  N24      1.0000 0.01500  0.08620  0.84070  Biso   1.000  N
  N25      1.0000 0.90500  0.37930  0.36680  Biso   1.000  N
  N26      1.0000 0.09500  0.87930  0.13320  Biso   1.000  N
  N27      1.0000 0.09500  0.62070  0.63320  Biso   1.000  N
  N28      1.0000 0.90500  0.12070  0.86680  Biso   1.000  N
  N29      1.0000 0.84590  0.27290  0.28480  Biso   1.000  N
  N30      1.0000 0.15410  0.77290  0.21520  Biso   1.000  N
  N31      1.0000 0.15410  0.72710  0.71520  Biso   1.000  N
  N32      1.0000 0.84590  0.22710  0.78480  Biso   1.000  N
  N33      1.0000 0.91980  0.23270  0.20600  Biso   1.000  N
  N34      1.0000 0.08020  0.73270  0.29400  Biso   1.000  N
  N35      1.0000 0.08020  0.76730  0.79400  Biso   1.000  N
  N36      1.0000 0.91980  0.26730  0.70600  Biso   1.000  N
  C5       1.0000 0.02060  0.32190  0.24360  Biso   1.000  C
  C6       1.0000 0.97940  0.82190  0.25640  Biso   1.000  C
  C7       1.0000 0.97940  0.67810  0.75640  Biso   1.000  C
  C8       1.0000 0.02060  0.17810  0.74360  Biso   1.000  C
  N37      1.0000 0.12850  0.32090  0.18730  Biso   1.000  N
  N38      1.0000 0.87150  0.82090  0.31270  Biso   1.000  N
  N39      1.0000 0.87150  0.67910  0.81270  Biso   1.000  N
  N40      1.0000 0.12850  0.17910  0.68730  Biso   1.000  N
  O9       1.0000 0.15550  0.21740  0.14400  Biso   1.000  O
  O10      1.0000 0.84450  0.71740  0.35600  Biso   1.000  O
  O11      1.0000 0.84450  0.78260  0.85600  Biso   1.000  O
  O12      1.0000 0.15550  0.28260  0.64400  Biso   1.000  O
  O13      1.0000 0.18440  0.42590  0.18820  Biso   1.000  O
  O14      1.0000 0.81560  0.92590  0.31180  Biso   1.000  O
  O15      1.0000 0.81560  0.57410  0.81180  Biso   1.000  O
  O16      1.0000 0.18440  0.07410  0.68820  Biso   1.000  O
