data_image0
_cell_length_a       11.0379
_cell_length_b       16.0222
_cell_length_c       20.8778
_cell_angle_alpha    77.187
_cell_angle_beta     82.664
_cell_angle_gamma    75.705

_symmetry_space_group_name_H-M    "P 1"
_symmetry_int_tables_number       1

loop_
  _symmetry_equiv_pos_as_xyz
  'x, y, z'

loop_
  _atom_site_label
  _atom_site_occupancy
  _atom_site_fract_x
  _atom_site_fract_y
  _atom_site_fract_z
  _atom_site_thermal_displace_type
  _atom_site_B_iso_or_equiv
  _atom_site_type_symbol
  Cu1      1.0000 0.98632  0.71767  0.25660  Biso   1.000  Cu
  Cu2      1.0000 0.01368  0.28233  0.74340  Biso   1.000  Cu
  Cu3      1.0000 0.00749  0.22072  0.23653  Biso   1.000  Cu
  Cu4      1.0000 0.99251  0.77928  0.76347  Biso   1.000  Cu
  O1       1.0000 0.13181  0.47851  0.18558  Biso   1.000  O
  O2       1.0000 0.86819  0.52149  0.81442  Biso   1.000  O
  O3       1.0000 0.05650  0.41289  0.32989  Biso   1.000  O
  O4       1.0000 0.94350  0.58711  0.67011  Biso   1.000  O
  O5       1.0000 0.85879  0.00159  0.30453  Biso   1.000  O
  O6       1.0000 0.14121  0.99841  0.69547  Biso   1.000  O
  O7       1.0000 0.94190  0.99422  0.16284  Biso   1.000  O
  O8       1.0000 0.05810  0.00578  0.83716  Biso   1.000  O
  C1       1.0000 0.33600  0.41050  0.15650  Biso   1.000  C
  C2       1.0000 0.66400  0.58950  0.84350  Biso   1.000  C
  H1       1.0000 0.36830  0.36500  0.19460  Biso   1.000  H
  H2       1.0000 0.63170  0.63500  0.80540  Biso   1.000  H
  H3       1.0000 0.38790  0.39720  0.11610  Biso   1.000  H
  H4       1.0000 0.61210  0.60280  0.88390  Biso   1.000  H
  Li1      1.0000 0.97550  0.47020  0.24540  Biso   1.000  Li
  Li2      1.0000 0.02450  0.52980  0.75460  Biso   1.000  Li
  Li3      1.0000 0.01860  0.97140  0.24930  Biso   1.000  Li
  Li4      1.0000 0.98140  0.02860  0.75070  Biso   1.000  Li
  C3       1.0000 0.18360  0.40300  0.41260  Biso   1.000  C
  C4       1.0000 0.81640  0.59700  0.58740  Biso   1.000  C
  H5       1.0000 0.16930  0.39630  0.46110  Biso   1.000  H
  H6       1.0000 0.83070  0.60370  0.53890  Biso   1.000  H
  H7       1.0000 0.25380  0.43280  0.39730  Biso   1.000  H
  H8       1.0000 0.74620  0.56720  0.60270  Biso   1.000  H
  P1       1.0000 0.13889  0.08906  0.25576  Biso   1.000  P
  P2       1.0000 0.86111  0.91094  0.74424  Biso   1.000  P
  P3       1.0000 0.86339  0.63236  0.24330  Biso   1.000  P
  P4       1.0000 0.13661  0.36764  0.75670  Biso   1.000  P
  P5       1.0000 0.10903  0.80376  0.26870  Biso   1.000  P
  P6       1.0000 0.89097  0.19624  0.73130  Biso   1.000  P
  P7       1.0000 0.87194  0.35109  0.22459  Biso   1.000  P
  P8       1.0000 0.12806  0.64891  0.77541  Biso   1.000  P
  C5       1.0000 0.12470  0.32420  0.34460  Biso   1.000  C
  C6       1.0000 0.87530  0.67580  0.65540  Biso   1.000  C
  H9       1.0000 0.17080  0.30660  0.30410  Biso   1.000  H
  H10      1.0000 0.82920  0.69340  0.69590  Biso   1.000  H
  H11      1.0000 0.06620  0.28510  0.36220  Biso   1.000  H
  H12      1.0000 0.93380  0.71490  0.63780  Biso   1.000  H
  C7       1.0000 0.21240  0.31590  0.39320  Biso   1.000  C
  C8       1.0000 0.78760  0.68410  0.60680  Biso   1.000  C
  H13      1.0000 0.30000  0.30150  0.37400  Biso   1.000  H
  H14      1.0000 0.70000  0.69850  0.62600  Biso   1.000  H
  H15      1.0000 0.20070  0.26920  0.43180  Biso   1.000  H
  H16      1.0000 0.79930  0.73080  0.56820  Biso   1.000  H
  C9       1.0000 0.33770  0.49910  0.16590  Biso   1.000  C
  C10      1.0000 0.66230  0.50090  0.83410  Biso   1.000  C
  H17      1.0000 0.39790  0.49520  0.19830  Biso   1.000  H
  H18      1.0000 0.60210  0.50480  0.80170  Biso   1.000  H
  H19      1.0000 0.36160  0.53600  0.12380  Biso   1.000  H
  H20      1.0000 0.63840  0.46400  0.87620  Biso   1.000  H
  C11      1.0000 0.20950  0.53590  0.19030  Biso   1.000  C
  C12      1.0000 0.79050  0.46410  0.80970  Biso   1.000  C
  H21      1.0000 0.20800  0.54160  0.23660  Biso   1.000  H
  H22      1.0000 0.79200  0.45840  0.76340  Biso   1.000  H
  H23      1.0000 0.17810  0.59500  0.16360  Biso   1.000  H
  H24      1.0000 0.82190  0.40500  0.83640  Biso   1.000  H
  C13      1.0000 0.06890  0.45420  0.38060  Biso   1.000  C
  C14      1.0000 0.93110  0.54580  0.61940  Biso   1.000  C
  H25      1.0000 0.99490  0.45520  0.41290  Biso   1.000  H
  H26      1.0000 0.00510  0.54480  0.58710  Biso   1.000  H
  H27      1.0000 0.07610  0.51550  0.36240  Biso   1.000  H
  H28      1.0000 0.92390  0.48450  0.63760  Biso   1.000  H
  C15      1.0000 0.20200  0.41380  0.15041  Biso   1.000  C
  C16      1.0000 0.79800  0.58620  0.84959  Biso   1.000  C
  H29      1.0000 0.18300  0.43010  0.10360  Biso   1.000  H
  H30      1.0000 0.81700  0.56990  0.89640  Biso   1.000  H
  H31      1.0000 0.18220  0.35600  0.16970  Biso   1.000  H
  H32      1.0000 0.81780  0.64400  0.83030  Biso   1.000  H
  C17      1.0000 0.21640  0.97480  0.47883  Biso   1.000  C
  C18      1.0000 0.78360  0.02520  0.52117  Biso   1.000  C
  H33      1.0000 0.24540  0.96880  0.52290  Biso   1.000  H
  H34      1.0000 0.75460  0.03120  0.47710  Biso   1.000  H
  H35      1.0000 0.17460  0.92620  0.48040  Biso   1.000  H
  H36      1.0000 0.82540  0.07380  0.51960  Biso   1.000  H
  C19      1.0000 0.78290  0.34460  0.01055  Biso   1.000  C
  C20      1.0000 0.21710  0.65540  0.98945  Biso   1.000  C
  H37      1.0000 0.74440  0.36370  0.96790  Biso   1.000  H
  H38      1.0000 0.25560  0.63630  0.03210  Biso   1.000  H
  H39      1.0000 0.84510  0.28850  0.00960  Biso   1.000  H
  H40      1.0000 0.15490  0.71150  0.99040  Biso   1.000  H
  C21      1.0000 0.32830  0.96870  0.42798  Biso   1.000  C
  C22      1.0000 0.67170  0.03130  0.57202  Biso   1.000  C
  H41      1.0000 0.38530  0.91000  0.43840  Biso   1.000  H
  H42      1.0000 0.61470  0.09000  0.56160  Biso   1.000  H
  H43      1.0000 0.37510  0.01330  0.42990  Biso   1.000  H
  H44      1.0000 0.62490  0.98670  0.57010  Biso   1.000  H
  C23      1.0000 0.46020  0.16600  0.09612  Biso   1.000  C
  C24      1.0000 0.53980  0.83400  0.90388  Biso   1.000  C
  H45      1.0000 0.54130  0.15780  0.06920  Biso   1.000  H
  H46      1.0000 0.45870  0.84220  0.93080  Biso   1.000  H
  H47      1.0000 0.41290  0.22720  0.08170  Biso   1.000  H
  H48      1.0000 0.58710  0.77280  0.91830  Biso   1.000  H
  C25      1.0000 0.55560  0.38820  0.39721  Biso   1.000  C
  C26      1.0000 0.44440  0.61180  0.60279  Biso   1.000  C
  H49      1.0000 0.59250  0.43050  0.41180  Biso   1.000  H
  H50      1.0000 0.40750  0.56950  0.58820  Biso   1.000  H
  H51      1.0000 0.47970  0.38060  0.42670  Biso   1.000  H
  H52      1.0000 0.52030  0.61940  0.57330  Biso   1.000  H
  C27      1.0000 0.55630  0.76275  0.35679  Biso   1.000  C
  C28      1.0000 0.44370  0.23725  0.64321  Biso   1.000  C
  H53      1.0000 0.52700  0.82610  0.35790  Biso   1.000  H
  H54      1.0000 0.47300  0.17390  0.64210  Biso   1.000  H
  H55      1.0000 0.48620  0.74250  0.34440  Biso   1.000  H
  H56      1.0000 0.51380  0.25750  0.65560  Biso   1.000  H
  C29      1.0000 0.10700  0.72590  0.47336  Biso   1.000  C
  C30      1.0000 0.89300  0.27410  0.52664  Biso   1.000  C
  H57      1.0000 0.03250  0.73140  0.50530  Biso   1.000  H
  H58      1.0000 0.96750  0.26860  0.49470  Biso   1.000  H
  H59      1.0000 0.16430  0.75850  0.48430  Biso   1.000  H
  H60      1.0000 0.83570  0.24150  0.51570  Biso   1.000  H
  C31      1.0000 0.17320  0.62910  0.47954  Biso   1.000  C
  C32      1.0000 0.82680  0.37090  0.52046  Biso   1.000  C
  H61      1.0000 0.20300  0.60580  0.52420  Biso   1.000  H
  H62      1.0000 0.79700  0.39420  0.47580  Biso   1.000  H
  H63      1.0000 0.11340  0.59510  0.47330  Biso   1.000  H
  H64      1.0000 0.88660  0.40490  0.52670  Biso   1.000  H
  C33      1.0000 0.38600  0.10250  0.08516  Biso   1.000  C
  C34      1.0000 0.61400  0.89750  0.91484  Biso   1.000  C
  H65      1.0000 0.43840  0.04190  0.09360  Biso   1.000  H
  H66      1.0000 0.56160  0.95810  0.90640  Biso   1.000  H
  H67      1.0000 0.36510  0.11710  0.03870  Biso   1.000  H
  H68      1.0000 0.63490  0.88290  0.96130  Biso   1.000  H
  C35      1.0000 0.66770  0.74950  0.30519  Biso   1.000  C
  C36      1.0000 0.33230  0.25050  0.69481  Biso   1.000  C
  H69      1.0000 0.64010  0.78130  0.26130  Biso   1.000  H
  H70      1.0000 0.35990  0.21870  0.73870  Biso   1.000  H
  H71      1.0000 0.73400  0.77530  0.31540  Biso   1.000  H
  H72      1.0000 0.26600  0.22470  0.68460  Biso   1.000  H
  C37      1.0000 0.68270  0.33080  0.06575  Biso   1.000  C
  C38      1.0000 0.31730  0.66920  0.93425  Biso   1.000  C
  H73      1.0000 0.64430  0.28350  0.06000  Biso   1.000  H
  H74      1.0000 0.35570  0.71650  0.94000  Biso   1.000  H
  H75      1.0000 0.61620  0.38540  0.06370  Biso   1.000  H
  H76      1.0000 0.38380  0.61460  0.93630  Biso   1.000  H
  C39      1.0000 0.59320  0.71190  0.42464  Biso   1.000  C
  C40      1.0000 0.40680  0.28810  0.57536  Biso   1.000  C
  H77      1.0000 0.51900  0.71840  0.45680  Biso   1.000  H
  H78      1.0000 0.48100  0.28160  0.54320  Biso   1.000  H
  H79      1.0000 0.65730  0.73600  0.43900  Biso   1.000  H
  H80      1.0000 0.34270  0.26400  0.56100  Biso   1.000  H
  C41      1.0000 0.73650  0.30602  0.13303  Biso   1.000  C
  C42      1.0000 0.26350  0.69398  0.86697  Biso   1.000  C
  H81      1.0000 0.79680  0.24840  0.13670  Biso   1.000  H
  H82      1.0000 0.20320  0.75160  0.86330  Biso   1.000  H
  H83      1.0000 0.66780  0.30020  0.16800  Biso   1.000  H
  H84      1.0000 0.33220  0.69980  0.83200  Biso   1.000  H
  C43      1.0000 0.28370  0.61845  0.42836  Biso   1.000  C
  C44      1.0000 0.71630  0.38155  0.57164  Biso   1.000  C
  H85      1.0000 0.32340  0.55520  0.43160  Biso   1.000  H
  H86      1.0000 0.67660  0.44480  0.56840  Biso   1.000  H
  H87      1.0000 0.34680  0.64800  0.43720  Biso   1.000  H
  H88      1.0000 0.65320  0.35200  0.56280  Biso   1.000  H
  C45      1.0000 0.64520  0.61510  0.42311  Biso   1.000  C
  C46      1.0000 0.35480  0.38490  0.57689  Biso   1.000  C
  H89      1.0000 0.57800  0.58980  0.41340  Biso   1.000  H
  H90      1.0000 0.42200  0.41020  0.58660  Biso   1.000  H
  H91      1.0000 0.67310  0.58350  0.46700  Biso   1.000  H
  H92      1.0000 0.32690  0.41650  0.53300  Biso   1.000  H
  C47      1.0000 0.48420  0.15080  0.16850  Biso   1.000  C
  C48      1.0000 0.51580  0.84920  0.83150  Biso   1.000  C
  H93      1.0000 0.52690  0.19560  0.17490  Biso   1.000  H
  H94      1.0000 0.47310  0.80440  0.82510  Biso   1.000  H
  H95      1.0000 0.54020  0.09230  0.18140  Biso   1.000  H
  H96      1.0000 0.45980  0.90770  0.81860  Biso   1.000  H
  C49      1.0000 0.12320  0.06280  0.46126  Biso   1.000  C
  C50      1.0000 0.87680  0.93720  0.53874  Biso   1.000  C
  H97      1.0000 0.04900  0.06460  0.49350  Biso   1.000  H
  H98      1.0000 0.95100  0.93540  0.50650  Biso   1.000  H
  H99      1.0000 0.16270  0.11090  0.46400  Biso   1.000  H
  H100     1.0000 0.83730  0.88910  0.53600  Biso   1.000  H
  C51      1.0000 0.78980  0.66990  0.02125  Biso   1.000  C
  C52      1.0000 0.21020  0.33010  0.97875  Biso   1.000  C
  H101     1.0000 0.75770  0.69470  0.97720  Biso   1.000  H
  H102     1.0000 0.24230  0.30530  0.02280  Biso   1.000  H
  H103     1.0000 0.85000  0.61330  0.01910  Biso   1.000  H
  H104     1.0000 0.15000  0.38670  0.98090  Biso   1.000  H
  C53      1.0000 0.51920  0.42440  0.32697  Biso   1.000  C
  C54      1.0000 0.48080  0.57560  0.67303  Biso   1.000  C
  H105     1.0000 0.46360  0.48370  0.32430  Biso   1.000  H
  H106     1.0000 0.53640  0.51630  0.67570  Biso   1.000  H
  H107     1.0000 0.47220  0.38600  0.31450  Biso   1.000  H
  H108     1.0000 0.52780  0.61400  0.68550  Biso   1.000  H
  C55      1.0000 0.63520  0.42980  0.27862  Biso   1.000  C
  C56      1.0000 0.36480  0.57020  0.72138  Biso   1.000  C
  H109     1.0000 0.60860  0.44950  0.23310  Biso   1.000  H
  H110     1.0000 0.39140  0.55050  0.76690  Biso   1.000  H
  H111     1.0000 0.67570  0.47420  0.28760  Biso   1.000  H
  H112     1.0000 0.32430  0.52580  0.71240  Biso   1.000  H
  C57      1.0000 0.28630  0.98364  0.35862  Biso   1.000  C
  C58      1.0000 0.71370  0.01636  0.64138  Biso   1.000  C
  H113     1.0000 0.24740  0.93530  0.35560  Biso   1.000  H
  H114     1.0000 0.75260  0.06470  0.64440  Biso   1.000  H
  H115     1.0000 0.36060  0.98230  0.32650  Biso   1.000  H
  H116     1.0000 0.63940  0.01770  0.67350  Biso   1.000  H
  C59      1.0000 0.08140  0.07691  0.39232  Biso   1.000  C
  C60      1.0000 0.91860  0.92309  0.60768  Biso   1.000  C
  H117     1.0000 0.02360  0.13530  0.38190  Biso   1.000  H
  H118     1.0000 0.97640  0.86470  0.61810  Biso   1.000  H
  H119     1.0000 0.03500  0.03190  0.39080  Biso   1.000  H
  H120     1.0000 0.96500  0.96810  0.60920  Biso   1.000  H
  C61      1.0000 0.64940  0.30060  0.40217  Biso   1.000  C
  C62      1.0000 0.35060  0.69940  0.59783  Biso   1.000  C
  H121     1.0000 0.60940  0.25660  0.39210  Biso   1.000  H
  H122     1.0000 0.39060  0.74340  0.60790  Biso   1.000  H
  H123     1.0000 0.67520  0.28010  0.44780  Biso   1.000  H
  H124     1.0000 0.32480  0.71990  0.55220  Biso   1.000  H
  C63      1.0000 0.44620  0.83990  0.15831  Biso   1.000  C
  C64      1.0000 0.55380  0.16010  0.84169  Biso   1.000  C
  H125     1.0000 0.49540  0.88340  0.15940  Biso   1.000  H
  H126     1.0000 0.50460  0.11660  0.84060  Biso   1.000  H
  H127     1.0000 0.50160  0.78050  0.16870  Biso   1.000  H
  H128     1.0000 0.49840  0.21950  0.83130  Biso   1.000  H
  C65      1.0000 0.36200  0.15614  0.21249  Biso   1.000  C
  C66      1.0000 0.63800  0.84386  0.78751  Biso   1.000  C
  H129     1.0000 0.30920  0.21640  0.20220  Biso   1.000  H
  H130     1.0000 0.69080  0.78360  0.79780  Biso   1.000  H
  H131     1.0000 0.38110  0.14400  0.25920  Biso   1.000  H
  H132     1.0000 0.61890  0.85600  0.74080  Biso   1.000  H
  C67      1.0000 0.79030  0.94240  0.34439  Biso   1.000  C
  C68      1.0000 0.20970  0.05760  0.65561  Biso   1.000  C
  H133     1.0000 0.81100  0.93000  0.39080  Biso   1.000  H
  H134     1.0000 0.18900  0.07000  0.60920  Biso   1.000  H
  H135     1.0000 0.80930  0.88630  0.32860  Biso   1.000  H
  H136     1.0000 0.19070  0.11370  0.67140  Biso   1.000  H
  C69      1.0000 0.84890  0.41390  0.01993  Biso   1.000  C
  C70      1.0000 0.15110  0.58610  0.98007  Biso   1.000  C
  H137     1.0000 0.78850  0.47160  0.01600  Biso   1.000  H
  H138     1.0000 0.21150  0.52840  0.98400  Biso   1.000  H
  H139     1.0000 0.91750  0.41940  0.98480  Biso   1.000  H
  H140     1.0000 0.08250  0.58060  0.01520  Biso   1.000  H
  C71      1.0000 0.40170  0.85510  0.08957  Biso   1.000  C
  C72      1.0000 0.59830  0.14490  0.91043  Biso   1.000  C
  H141     1.0000 0.47510  0.84690  0.05710  Biso   1.000  H
  H142     1.0000 0.52490  0.15310  0.94290  Biso   1.000  H
  H143     1.0000 0.35230  0.91620  0.07750  Biso   1.000  H
  H144     1.0000 0.64770  0.08380  0.92250  Biso   1.000  H
  C73      1.0000 0.68170  0.65460  0.07167  Biso   1.000  C
  C74      1.0000 0.31830  0.34540  0.92833  Biso   1.000  C
  H145     1.0000 0.64280  0.61070  0.06050  Biso   1.000  H
  H146     1.0000 0.35720  0.38930  0.93950  Biso   1.000  H
  H147     1.0000 0.61720  0.71010  0.07030  Biso   1.000  H
  H148     1.0000 0.38280  0.28990  0.92970  Biso   1.000  H
  C75      1.0000 0.24240  0.65748  0.35915  Biso   1.000  C
  C76      1.0000 0.75760  0.34252  0.64085  Biso   1.000  C
  H149     1.0000 0.18650  0.62340  0.34880  Biso   1.000  H
  H150     1.0000 0.81350  0.37660  0.65120  Biso   1.000  H
  H151     1.0000 0.31710  0.65190  0.32730  Biso   1.000  H
  H152     1.0000 0.68290  0.34810  0.67270  Biso   1.000  H
  C77      1.0000 0.26500  0.10650  0.13035  Biso   1.000  C
  C78      1.0000 0.73500  0.89350  0.86965  Biso   1.000  C
  H153     1.0000 0.20830  0.16490  0.11800  Biso   1.000  H
  H154     1.0000 0.79170  0.83510  0.88200  Biso   1.000  H
  H155     1.0000 0.22250  0.06180  0.12380  Biso   1.000  H
  H156     1.0000 0.77750  0.93820  0.87620  Biso   1.000  H
  C79      1.0000 0.76520  0.30781  0.35450  Biso   1.000  C
  C80      1.0000 0.23480  0.69219  0.64550  Biso   1.000  C
  H157     1.0000 0.80920  0.34800  0.36690  Biso   1.000  H
  H158     1.0000 0.19080  0.65200  0.63310  Biso   1.000  H
  H159     1.0000 0.82330  0.24930  0.35800  Biso   1.000  H
  H160     1.0000 0.17670  0.75070  0.64200  Biso   1.000  H
  C81      1.0000 0.32120  0.79091  0.08786  Biso   1.000  C
  C82      1.0000 0.67880  0.20909  0.91214  Biso   1.000  C
  H161     1.0000 0.29070  0.80250  0.04340  Biso   1.000  H
  H162     1.0000 0.70930  0.19750  0.95660  Biso   1.000  H
  H163     1.0000 0.37260  0.73010  0.09670  Biso   1.000  H
  H164     1.0000 0.62740  0.26990  0.90330  Biso   1.000  H
  C83      1.0000 0.33510  0.84804  0.21005  Biso   1.000  C
  C84      1.0000 0.66490  0.15196  0.78995  Biso   1.000  C
  H165     1.0000 0.28520  0.90940  0.20240  Biso   1.000  H
  H166     1.0000 0.71480  0.09060  0.79760  Biso   1.000  H
  H167     1.0000 0.36690  0.83470  0.25430  Biso   1.000  H
  H168     1.0000 0.63310  0.16530  0.74570  Biso   1.000  H
  C85      1.0000 0.85630  0.73300  0.03961  Biso   1.000  C
  C86      1.0000 0.14370  0.26700  0.96039  Biso   1.000  C
  H169     1.0000 0.79780  0.79100  0.03840  Biso   1.000  H
  H170     1.0000 0.20220  0.20900  0.96160  Biso   1.000  H
  H171     1.0000 0.92820  0.74070  0.00710  Biso   1.000  H
  H172     1.0000 0.07180  0.25930  0.99290  Biso   1.000  H
  C87      1.0000 0.75500  0.60137  0.37152  Biso   1.000  C
  C88      1.0000 0.24500  0.39863  0.62848  Biso   1.000  C
  H173     1.0000 0.78220  0.53800  0.37040  Biso   1.000  H
  H174     1.0000 0.21780  0.46200  0.62960  Biso   1.000  H
  H175     1.0000 0.82620  0.61980  0.38450  Biso   1.000  H
  H176     1.0000 0.17380  0.38020  0.61550  Biso   1.000  H
  C89      1.0000 0.20990  0.79990  0.13883  Biso   1.000  C
  C90      1.0000 0.79010  0.20010  0.86117  Biso   1.000  C
  H177     1.0000 0.16090  0.75620  0.13760  Biso   1.000  H
  H178     1.0000 0.83910  0.24380  0.86240  Biso   1.000  H
  H179     1.0000 0.15470  0.85920  0.12740  Biso   1.000  H
  H180     1.0000 0.84530  0.14080  0.87260  Biso   1.000  H
  C91      1.0000 0.90320  0.69810  0.10839  Biso   1.000  C
  C92      1.0000 0.09680  0.30190  0.89161  Biso   1.000  C
  H181     1.0000 0.96720  0.64260  0.10830  Biso   1.000  H
  H182     1.0000 0.03280  0.35740  0.89170  Biso   1.000  H
  H183     1.0000 0.94370  0.74110  0.11950  Biso   1.000  H
  H184     1.0000 0.05630  0.25890  0.88050  Biso   1.000  H
  C93      1.0000 0.28880  0.09051  0.20294  Biso   1.000  C
  C94      1.0000 0.71120  0.90949  0.79706  Biso   1.000  C
  H185     1.0000 0.34440  0.03050  0.21400  Biso   1.000  H
  H186     1.0000 0.65560  0.96950  0.78600  Biso   1.000  H
  C95      1.0000 0.82310  0.97540  0.08450  Biso   1.000  C
  C96      1.0000 0.17690  0.02460  0.91550  Biso   1.000  C
  H187     1.0000 0.73420  0.97820  0.07940  Biso   1.000  H
  H188     1.0000 0.26580  0.02180  0.92060  Biso   1.000  H
  H189     1.0000 0.87730  0.93460  0.05770  Biso   1.000  H
  H190     1.0000 0.12270  0.06540  0.94230  Biso   1.000  H
  C97      1.0000 0.77860  0.08780  0.29230  Biso   1.000  C
  C98      1.0000 0.22140  0.91220  0.70770  Biso   1.000  C
  H191     1.0000 0.76780  0.10800  0.24460  Biso   1.000  H
  H192     1.0000 0.23220  0.89200  0.75540  Biso   1.000  H
  H193     1.0000 0.81620  0.12980  0.30710  Biso   1.000  H
  H194     1.0000 0.18380  0.87020  0.69290  Biso   1.000  H
  C99      1.0000 0.80280  0.37491  0.14355  Biso   1.000  C
  C100     1.0000 0.19720  0.62509  0.85645  Biso   1.000  C
  H195     1.0000 0.73850  0.43150  0.14120  Biso   1.000  H
  H196     1.0000 0.26150  0.56850  0.85880  Biso   1.000  H
  C101     1.0000 0.65480  0.98800  0.33810  Biso   1.000  C
  C102     1.0000 0.34520  0.01200  0.66190  Biso   1.000  C
  H197     1.0000 0.60230  0.96930  0.37830  Biso   1.000  H
  H198     1.0000 0.39770  0.03070  0.62170  Biso   1.000  H
  H199     1.0000 0.62270  0.97620  0.29960  Biso   1.000  H
  H200     1.0000 0.37730  0.02380  0.70040  Biso   1.000  H
  C103     1.0000 0.19230  0.07140  0.34063  Biso   1.000  C
  C104     1.0000 0.80770  0.92860  0.65937  Biso   1.000  C
  H201     1.0000 0.23500  0.11940  0.34140  Biso   1.000  H
  H202     1.0000 0.76500  0.88060  0.65860  Biso   1.000  H
  C105     1.0000 0.95780  0.05660  0.10399  Biso   1.000  C
  C106     1.0000 0.04220  0.94340  0.89601  Biso   1.000  C
  H203     1.0000 0.03830  0.03600  0.07920  Biso   1.000  H
  H204     1.0000 0.96170  0.96400  0.92080  Biso   1.000  H
  H205     1.0000 0.95770  0.11390  0.11450  Biso   1.000  H
  H206     1.0000 0.04230  0.88610  0.88550  Biso   1.000  H
  C107     1.0000 0.17380  0.75406  0.35074  Biso   1.000  C
  C108     1.0000 0.82620  0.24594  0.64926  Biso   1.000  C
  H207     1.0000 0.23470  0.78820  0.35680  Biso   1.000  H
  H208     1.0000 0.76530  0.21180  0.64320  Biso   1.000  H
  C109     1.0000 0.65680  0.08380  0.32897  Biso   1.000  C
  C110     1.0000 0.34320  0.91620  0.67103  Biso   1.000  C
  H209     1.0000 0.58700  0.12180  0.30340  Biso   1.000  H
  H210     1.0000 0.41300  0.87820  0.69660  Biso   1.000  H
  H211     1.0000 0.65170  0.10150  0.37190  Biso   1.000  H
  H212     1.0000 0.34830  0.89850  0.62810  Biso   1.000  H
  C111     1.0000 0.73050  0.34191  0.28351  Biso   1.000  C
  C112     1.0000 0.26950  0.65809  0.71649  Biso   1.000  C
  H213     1.0000 0.68970  0.29900  0.27140  Biso   1.000  H
  H214     1.0000 0.31030  0.70100  0.72860  Biso   1.000  H
  C113     1.0000 0.72600  0.62172  0.14134  Biso   1.000  C
  C114     1.0000 0.27400  0.37828  0.85866  Biso   1.000  C
  H215     1.0000 0.65220  0.61710  0.17310  Biso   1.000  H
  H216     1.0000 0.34780  0.38290  0.82690  Biso   1.000  H
  H217     1.0000 0.78080  0.56210  0.14420  Biso   1.000  H
  H218     1.0000 0.21920  0.43790  0.85580  Biso   1.000  H
  C115     1.0000 0.79780  0.68134  0.16110  Biso   1.000  C
  C116     1.0000 0.20220  0.31866  0.83890  Biso   1.000  C
  H219     1.0000 0.73850  0.73890  0.16420  Biso   1.000  H
  H220     1.0000 0.26150  0.26110  0.83580  Biso   1.000  H
  C117     1.0000 0.25010  0.78619  0.20851  Biso   1.000  C
  C118     1.0000 0.74990  0.21381  0.79149  Biso   1.000  C
  H221     1.0000 0.29880  0.72430  0.22110  Biso   1.000  H
  H222     1.0000 0.70120  0.27570  0.77890  Biso   1.000  H
  C119     1.0000 0.85080  0.94760  0.15472  Biso   1.000  C
  C120     1.0000 0.14920  0.05240  0.84528  Biso   1.000  C
  H223     1.0000 0.77380  0.96270  0.18370  Biso   1.000  H
  H224     1.0000 0.22620  0.03730  0.81630  Biso   1.000  H
  H225     1.0000 0.88500  0.88330  0.16580  Biso   1.000  H
  H226     1.0000 0.11500  0.11670  0.83420  Biso   1.000  H
  C121     1.0000 0.72260  0.65285  0.30261  Biso   1.000  C
  C122     1.0000 0.27740  0.34715  0.69739  Biso   1.000  C
  H227     1.0000 0.65610  0.62940  0.28890  Biso   1.000  H
  H228     1.0000 0.34390  0.37060  0.71110  Biso   1.000  H
  C123     1.0000 0.06630  0.76620  0.40393  Biso   1.000  C
  C124     1.0000 0.93370  0.23380  0.59607  Biso   1.000  C
  H229     1.0000 0.00000  0.73890  0.39560  Biso   1.000  H
  H230     1.0000 0.00000  0.26110  0.60440  Biso   1.000  H
  H231     1.0000 0.02990  0.82980  0.40100  Biso   1.000  H
  H232     1.0000 0.97010  0.17020  0.59900  Biso   1.000  H
  C125     1.0000 0.90290  0.38953  0.08747  Biso   1.000  C
  C126     1.0000 0.09710  0.61047  0.91253  Biso   1.000  C
  H233     1.0000 0.97000  0.33530  0.08940  Biso   1.000  H
  H234     1.0000 0.03000  0.66470  0.91060  Biso   1.000  H
  H235     1.0000 0.94070  0.43720  0.09310  Biso   1.000  H
  H236     1.0000 0.05930  0.56280  0.90690  Biso   1.000  H
  C127     1.0000 0.85140  0.06520  0.06480  Biso   1.000  C
  C128     1.0000 0.14860  0.93480  0.93520  Biso   1.000  C
  H237     1.0000 0.87540  0.07950  0.01700  Biso   1.000  H
  H238     1.0000 0.12460  0.92050  0.98300  Biso   1.000  H
  H239     1.0000 0.77860  0.11110  0.07630  Biso   1.000  H
  H240     1.0000 0.22140  0.88890  0.92370  Biso   1.000  H
