data_image0
_cell_length_a       18.3517
_cell_length_b       18.3517
_cell_length_c       14.035
_cell_angle_alpha    90
_cell_angle_beta     90
_cell_angle_gamma    120

_symmetry_space_group_name_H-M    "P 1"
_symmetry_int_tables_number       1

loop_
  _symmetry_equiv_pos_as_xyz
  'x, y, z'

loop_
  _atom_site_label
  _atom_site_occupancy
  _atom_site_fract_x
  _atom_site_fract_y
  _atom_site_fract_z
  _atom_site_thermal_displace_type
  _atom_site_B_iso_or_equiv
  _atom_site_type_symbol
  Cu1      1.0000 0.40940  0.78672  0.30268  Biso   1.000  Cu
  Cu2      1.0000 0.21328  0.62268  0.30268  Biso   1.000  Cu
  Cu3      1.0000 0.37732  0.59060  0.30268  Biso   1.000  Cu
  Cu4      1.0000 0.78672  0.40940  0.69732  Biso   1.000  Cu
  Cu5      1.0000 0.59060  0.37732  0.69732  Biso   1.000  Cu
  Cu6      1.0000 0.62268  0.21328  0.69732  Biso   1.000  Cu
  P1       1.0000 0.47371  0.71788  0.24536  Biso   1.000  P
  P2       1.0000 0.28212  0.75583  0.24536  Biso   1.000  P
  P3       1.0000 0.24417  0.52629  0.24536  Biso   1.000  P
  P4       1.0000 0.71788  0.47371  0.75464  Biso   1.000  P
  P5       1.0000 0.52629  0.24417  0.75464  Biso   1.000  P
  P6       1.0000 0.75583  0.28212  0.75464  Biso   1.000  P
  C1       1.0000 0.49330  0.74660  0.11780  Biso   1.000  C
  C2       1.0000 0.25340  0.74670  0.11780  Biso   1.000  C
  C3       1.0000 0.25330  0.50670  0.11780  Biso   1.000  C
  C4       1.0000 0.74660  0.49330  0.88220  Biso   1.000  C
  C5       1.0000 0.50670  0.25330  0.88220  Biso   1.000  C
  C6       1.0000 0.74670  0.25340  0.88220  Biso   1.000  C
  C7       1.0000 0.54140  0.82820  0.08910  Biso   1.000  C
  C8       1.0000 0.17180  0.71320  0.08910  Biso   1.000  C
  C9       1.0000 0.28680  0.45860  0.08910  Biso   1.000  C
  C10      1.0000 0.82820  0.54140  0.91090  Biso   1.000  C
  C11      1.0000 0.45860  0.28680  0.91090  Biso   1.000  C
  C12      1.0000 0.71320  0.17180  0.91090  Biso   1.000  C
  H1       1.0000 0.56730  0.87120  0.13580  Biso   1.000  H
  H2       1.0000 0.12880  0.69610  0.13580  Biso   1.000  H
  H3       1.0000 0.30390  0.43270  0.13580  Biso   1.000  H
  H4       1.0000 0.87120  0.56730  0.86420  Biso   1.000  H
  H5       1.0000 0.43270  0.30390  0.86420  Biso   1.000  H
  H6       1.0000 0.69610  0.12880  0.86420  Biso   1.000  H
  C13      1.0000 0.55140  0.84920  0.99340  Biso   1.000  C
  C14      1.0000 0.15080  0.70220  0.99340  Biso   1.000  C
  C15      1.0000 0.29780  0.44860  0.99340  Biso   1.000  C
  C16      1.0000 0.84920  0.55140  0.00660  Biso   1.000  C
  C17      1.0000 0.44860  0.29780  0.00660  Biso   1.000  C
  C18      1.0000 0.70220  0.15080  0.00660  Biso   1.000  C
  H7       1.0000 0.58590  0.90620  0.97460  Biso   1.000  H
  H8       1.0000 0.09380  0.67970  0.97460  Biso   1.000  H
  H9       1.0000 0.32030  0.41410  0.97460  Biso   1.000  H
  H10      1.0000 0.90620  0.58590  0.02540  Biso   1.000  H
  H11      1.0000 0.41410  0.32030  0.02540  Biso   1.000  H
  H12      1.0000 0.67970  0.09380  0.02540  Biso   1.000  H
  C19      1.0000 0.51080  0.78700  0.92510  Biso   1.000  C
  C20      1.0000 0.21300  0.72380  0.92510  Biso   1.000  C
  C21      1.0000 0.27620  0.48920  0.92510  Biso   1.000  C
  C22      1.0000 0.78700  0.51080  0.07490  Biso   1.000  C
  C23      1.0000 0.48920  0.27620  0.07490  Biso   1.000  C
  C24      1.0000 0.72380  0.21300  0.07490  Biso   1.000  C
  H13      1.0000 0.51550  0.80070  0.85940  Biso   1.000  H
  H14      1.0000 0.19930  0.71480  0.85940  Biso   1.000  H
  H15      1.0000 0.28520  0.48450  0.85940  Biso   1.000  H
  H16      1.0000 0.80070  0.51550  0.14060  Biso   1.000  H
  H17      1.0000 0.48450  0.28520  0.14060  Biso   1.000  H
  H18      1.0000 0.71480  0.19930  0.14060  Biso   1.000  H
  C25      1.0000 0.46480  0.70640  0.95430  Biso   1.000  C
  C26      1.0000 0.29360  0.75840  0.95430  Biso   1.000  C
  C27      1.0000 0.24160  0.53520  0.95430  Biso   1.000  C
  C28      1.0000 0.70640  0.46480  0.04570  Biso   1.000  C
  C29      1.0000 0.53520  0.24160  0.04570  Biso   1.000  C
  C30      1.0000 0.75840  0.29360  0.04570  Biso   1.000  C
  H19      1.0000 0.43640  0.66360  0.90790  Biso   1.000  H
  H20      1.0000 0.33640  0.77280  0.90790  Biso   1.000  H
  H21      1.0000 0.22720  0.56360  0.90790  Biso   1.000  H
  H22      1.0000 0.66360  0.43640  0.09210  Biso   1.000  H
  H23      1.0000 0.56360  0.22720  0.09210  Biso   1.000  H
  H24      1.0000 0.77280  0.33640  0.09210  Biso   1.000  H
  C31      1.0000 0.45740  0.68420  0.04780  Biso   1.000  C
  C32      1.0000 0.31580  0.77320  0.04780  Biso   1.000  C
  C33      1.0000 0.22680  0.54260  0.04780  Biso   1.000  C
  C34      1.0000 0.68420  0.45740  0.95220  Biso   1.000  C
  C35      1.0000 0.54260  0.22680  0.95220  Biso   1.000  C
  C36      1.0000 0.77320  0.31580  0.95220  Biso   1.000  C
  H25      1.0000 0.42680  0.62630  0.06480  Biso   1.000  H
  H26      1.0000 0.37370  0.80050  0.06480  Biso   1.000  H
  H27      1.0000 0.19950  0.57320  0.06480  Biso   1.000  H
  H28      1.0000 0.62630  0.42680  0.93520  Biso   1.000  H
  H29      1.0000 0.57320  0.19950  0.93520  Biso   1.000  H
  H30      1.0000 0.80050  0.37370  0.93520  Biso   1.000  H
  C37      1.0000 0.57900  0.75520  0.29500  Biso   1.000  C
  C38      1.0000 0.24480  0.82380  0.29500  Biso   1.000  C
  C39      1.0000 0.17620  0.42100  0.29500  Biso   1.000  C
  C40      1.0000 0.75520  0.57900  0.70500  Biso   1.000  C
  C41      1.0000 0.42100  0.17620  0.70500  Biso   1.000  C
  C42      1.0000 0.82380  0.24480  0.70500  Biso   1.000  C
  C43      1.0000 0.65220  0.78320  0.24240  Biso   1.000  C
  C44      1.0000 0.21680  0.86900  0.24240  Biso   1.000  C
  C45      1.0000 0.13100  0.34780  0.24240  Biso   1.000  C
  C46      1.0000 0.78320  0.65220  0.75760  Biso   1.000  C
  C47      1.0000 0.34780  0.13100  0.75760  Biso   1.000  C
  C48      1.0000 0.86900  0.21680  0.75760  Biso   1.000  C
  H31      1.0000 0.65000  0.78720  0.17500  Biso   1.000  H
  H32      1.0000 0.21280  0.86280  0.17500  Biso   1.000  H
  H33      1.0000 0.13720  0.35000  0.17500  Biso   1.000  H
  H34      1.0000 0.78720  0.65000  0.82500  Biso   1.000  H
  H35      1.0000 0.35000  0.13720  0.82500  Biso   1.000  H
  H36      1.0000 0.86280  0.21280  0.82500  Biso   1.000  H
  C49      1.0000 0.72840  0.80560  0.28580  Biso   1.000  C
  C50      1.0000 0.19440  0.92280  0.28580  Biso   1.000  C
  C51      1.0000 0.07720  0.27160  0.28580  Biso   1.000  C
  C52      1.0000 0.80560  0.72840  0.71420  Biso   1.000  C
  C53      1.0000 0.27160  0.07720  0.71420  Biso   1.000  C
  C54      1.0000 0.92280  0.19440  0.71420  Biso   1.000  C
  H37      1.0000 0.77780  0.82640  0.24800  Biso   1.000  H
  H38      1.0000 0.17360  0.95140  0.24800  Biso   1.000  H
  H39      1.0000 0.04860  0.22220  0.24800  Biso   1.000  H
  H40      1.0000 0.82640  0.77780  0.75200  Biso   1.000  H
  H41      1.0000 0.22220  0.04860  0.75200  Biso   1.000  H
  H42      1.0000 0.95140  0.17360  0.75200  Biso   1.000  H
  C55      1.0000 0.73340  0.79810  0.38230  Biso   1.000  C
  C56      1.0000 0.20190  0.93530  0.38230  Biso   1.000  C
  C57      1.0000 0.06470  0.26660  0.38230  Biso   1.000  C
  C58      1.0000 0.79810  0.73340  0.61770  Biso   1.000  C
  C59      1.0000 0.26660  0.06470  0.61770  Biso   1.000  C
  C60      1.0000 0.93530  0.20190  0.61770  Biso   1.000  C
  H43      1.0000 0.78540  0.81230  0.41180  Biso   1.000  H
  H44      1.0000 0.18770  0.97310  0.41180  Biso   1.000  H
  H45      1.0000 0.02690  0.21460  0.41180  Biso   1.000  H
  H46      1.0000 0.81230  0.78540  0.58820  Biso   1.000  H
  H47      1.0000 0.21460  0.02690  0.58820  Biso   1.000  H
  H48      1.0000 0.97310  0.18770  0.58820  Biso   1.000  H
  C61      1.0000 0.66200  0.76990  0.43490  Biso   1.000  C
  C62      1.0000 0.23010  0.89210  0.43490  Biso   1.000  C
  C63      1.0000 0.10790  0.33800  0.43490  Biso   1.000  C
  C64      1.0000 0.76990  0.66200  0.56510  Biso   1.000  C
  C65      1.0000 0.33800  0.10790  0.56510  Biso   1.000  C
  C66      1.0000 0.89210  0.23010  0.56510  Biso   1.000  C
  H49      1.0000 0.66460  0.76490  0.50200  Biso   1.000  H
  H50      1.0000 0.23510  0.89970  0.50200  Biso   1.000  H
  H51      1.0000 0.10030  0.33540  0.50200  Biso   1.000  H
  H52      1.0000 0.76490  0.66460  0.49800  Biso   1.000  H
  H53      1.0000 0.33540  0.10030  0.49800  Biso   1.000  H
  H54      1.0000 0.89970  0.23510  0.49800  Biso   1.000  H
  C67      1.0000 0.58590  0.74830  0.39260  Biso   1.000  C
  C68      1.0000 0.25170  0.83760  0.39260  Biso   1.000  C
  C69      1.0000 0.16240  0.41410  0.39260  Biso   1.000  C
  C70      1.0000 0.74830  0.58590  0.60740  Biso   1.000  C
  C71      1.0000 0.41410  0.16240  0.60740  Biso   1.000  C
  C72      1.0000 0.83760  0.25170  0.60740  Biso   1.000  C
  H55      1.0000 0.53720  0.72830  0.43130  Biso   1.000  H
  H56      1.0000 0.27170  0.80890  0.43130  Biso   1.000  H
  H57      1.0000 0.19110  0.46280  0.43130  Biso   1.000  H
  H58      1.0000 0.72830  0.53720  0.56870  Biso   1.000  H
  H59      1.0000 0.46280  0.19110  0.56870  Biso   1.000  H
  H60      1.0000 0.80890  0.27170  0.56870  Biso   1.000  H
  C73      1.0000 0.45370  0.85520  0.41560  Biso   1.000  C
  C74      1.0000 0.14480  0.59850  0.41560  Biso   1.000  C
  C75      1.0000 0.40150  0.54630  0.41560  Biso   1.000  C
  C76      1.0000 0.85520  0.45370  0.58440  Biso   1.000  C
  C77      1.0000 0.54630  0.40150  0.58440  Biso   1.000  C
  C78      1.0000 0.59850  0.14480  0.58440  Biso   1.000  C
  N1       1.0000 0.48760  0.90080  0.47700  Biso   1.000  N
  N2       1.0000 0.09920  0.58680  0.47700  Biso   1.000  N
  N3       1.0000 0.41320  0.51240  0.47700  Biso   1.000  N
  N4       1.0000 0.90080  0.48760  0.52300  Biso   1.000  N
  N5       1.0000 0.51240  0.41320  0.52300  Biso   1.000  N
  N6       1.0000 0.58680  0.09920  0.52300  Biso   1.000  N
  Li1      1.0000 0.54020  0.97670  0.58650  Biso   1.000  Li
  Li2      1.0000 0.02330  0.56350  0.58650  Biso   1.000  Li
  Li3      1.0000 0.43650  0.45980  0.58650  Biso   1.000  Li
  Li4      1.0000 0.97670  0.54020  0.41350  Biso   1.000  Li
  Li5      1.0000 0.45980  0.43650  0.41350  Biso   1.000  Li
  Li6      1.0000 0.56350  0.02330  0.41350  Biso   1.000  Li
  O1       1.0000 0.46800  0.95230  0.69560  Biso   1.000  O
  O2       1.0000 0.04770  0.51570  0.69560  Biso   1.000  O
  O3       1.0000 0.48430  0.53200  0.69560  Biso   1.000  O
  O4       1.0000 0.95230  0.46800  0.30440  Biso   1.000  O
  O5       1.0000 0.53200  0.48430  0.30440  Biso   1.000  O
  O6       1.0000 0.51570  0.04770  0.30440  Biso   1.000  O
  C79      1.0000 0.49720  0.98820  0.78720  Biso   1.000  C
  C80      1.0000 0.01180  0.50900  0.78720  Biso   1.000  C
  C81      1.0000 0.49100  0.50280  0.78720  Biso   1.000  C
  C82      1.0000 0.98820  0.49720  0.21280  Biso   1.000  C
  C83      1.0000 0.50280  0.49100  0.21280  Biso   1.000  C
  C84      1.0000 0.50900  0.01180  0.21280  Biso   1.000  C
  H61      1.0000 0.54190  0.04790  0.78160  Biso   1.000  H
  H62      1.0000 0.95210  0.49400  0.78160  Biso   1.000  H
  H63      1.0000 0.50600  0.45810  0.78160  Biso   1.000  H
  H64      1.0000 0.04790  0.54190  0.21840  Biso   1.000  H
  H65      1.0000 0.45810  0.50600  0.21840  Biso   1.000  H
  H66      1.0000 0.49400  0.95210  0.21840  Biso   1.000  H
  H67      1.0000 0.52000  0.95720  0.82230  Biso   1.000  H
  H68      1.0000 0.04280  0.56280  0.82230  Biso   1.000  H
  H69      1.0000 0.43720  0.48000  0.82230  Biso   1.000  H
  H70      1.0000 0.95720  0.52000  0.17770  Biso   1.000  H
  H71      1.0000 0.48000  0.43720  0.17770  Biso   1.000  H
  H72      1.0000 0.56280  0.04280  0.17770  Biso   1.000  H
  C85      1.0000 0.42140  0.98080  0.83700  Biso   1.000  C
  C86      1.0000 0.01920  0.44060  0.83700  Biso   1.000  C
  C87      1.0000 0.55940  0.57860  0.83700  Biso   1.000  C
  C88      1.0000 0.98080  0.42140  0.16300  Biso   1.000  C
  C89      1.0000 0.57860  0.55940  0.16300  Biso   1.000  C
  C90      1.0000 0.44060  0.01920  0.16300  Biso   1.000  C
  H73      1.0000 0.41320  0.95220  0.89900  Biso   1.000  H
  H74      1.0000 0.04780  0.46100  0.89900  Biso   1.000  H
  H75      1.0000 0.53900  0.58680  0.89900  Biso   1.000  H
  H76      1.0000 0.95220  0.41320  0.10100  Biso   1.000  H
  H77      1.0000 0.58680  0.53900  0.10100  Biso   1.000  H
  H78      1.0000 0.46100  0.04780  0.10100  Biso   1.000  H
  H79      1.0000 0.42880  0.03740  0.84840  Biso   1.000  H
  H80      1.0000 0.96260  0.39140  0.84840  Biso   1.000  H
  H81      1.0000 0.60860  0.57120  0.84840  Biso   1.000  H
  H82      1.0000 0.03740  0.42880  0.15160  Biso   1.000  H
  H83      1.0000 0.57120  0.60860  0.15160  Biso   1.000  H
  H84      1.0000 0.39140  0.96260  0.15160  Biso   1.000  H
  C91      1.0000 0.34850  0.93130  0.77410  Biso   1.000  C
  C92      1.0000 0.06870  0.41720  0.77410  Biso   1.000  C
  C93      1.0000 0.58280  0.65150  0.77410  Biso   1.000  C
  C94      1.0000 0.93130  0.34850  0.22590  Biso   1.000  C
  C95      1.0000 0.65150  0.58280  0.22590  Biso   1.000  C
  C96      1.0000 0.41720  0.06870  0.22590  Biso   1.000  C
  H85      1.0000 0.30680  0.95040  0.77900  Biso   1.000  H
  H86      1.0000 0.04960  0.35640  0.77900  Biso   1.000  H
  H87      1.0000 0.64360  0.69320  0.77900  Biso   1.000  H
  H88      1.0000 0.95040  0.30680  0.22100  Biso   1.000  H
  H89      1.0000 0.69320  0.64360  0.22100  Biso   1.000  H
  H90      1.0000 0.35640  0.04960  0.22100  Biso   1.000  H
  H91      1.0000 0.32080  0.87060  0.78900  Biso   1.000  H
  H92      1.0000 0.12940  0.45020  0.78900  Biso   1.000  H
  H93      1.0000 0.54980  0.67920  0.78900  Biso   1.000  H
  H94      1.0000 0.87060  0.32080  0.21100  Biso   1.000  H
  H95      1.0000 0.67920  0.54980  0.21100  Biso   1.000  H
  H96      1.0000 0.45020  0.12940  0.21100  Biso   1.000  H
  C97      1.0000 0.38980  0.95020  0.67580  Biso   1.000  C
  C98      1.0000 0.04980  0.43960  0.67580  Biso   1.000  C
  C99      1.0000 0.56040  0.61020  0.67580  Biso   1.000  C
  C100     1.0000 0.95020  0.38980  0.32420  Biso   1.000  C
  C101     1.0000 0.61020  0.56040  0.32420  Biso   1.000  C
  C102     1.0000 0.43960  0.04980  0.32420  Biso   1.000  C
  H97      1.0000 0.35520  0.90540  0.62950  Biso   1.000  H
  H98      1.0000 0.09460  0.44980  0.62950  Biso   1.000  H
  H99      1.0000 0.55020  0.64480  0.62950  Biso   1.000  H
  H100     1.0000 0.90540  0.35520  0.37050  Biso   1.000  H
  H101     1.0000 0.64480  0.55020  0.37050  Biso   1.000  H
  H102     1.0000 0.44980  0.09460  0.37050  Biso   1.000  H
  H103     1.0000 0.39960  0.00500  0.65110  Biso   1.000  H
  H104     1.0000 0.99500  0.39460  0.65110  Biso   1.000  H
  H105     1.0000 0.60540  0.60040  0.65110  Biso   1.000  H
  H106     1.0000 0.00500  0.39960  0.34890  Biso   1.000  H
  H107     1.0000 0.60040  0.60540  0.34890  Biso   1.000  H
  H108     1.0000 0.39460  0.99500  0.34890  Biso   1.000  H
  O7       1.0000 0.63200  0.96150  0.63460  Biso   1.000  O
  O8       1.0000 0.03850  0.67050  0.63460  Biso   1.000  O
  O9       1.0000 0.32950  0.36800  0.63460  Biso   1.000  O
  O10      1.0000 0.96150  0.63200  0.36540  Biso   1.000  O
  O11      1.0000 0.36800  0.32950  0.36540  Biso   1.000  O
  O12      1.0000 0.67050  0.03850  0.36540  Biso   1.000  O
  C103     1.0000 0.69620  0.02260  0.69390  Biso   1.000  C
  C104     1.0000 0.97740  0.67360  0.69390  Biso   1.000  C
  C105     1.0000 0.32640  0.30380  0.69390  Biso   1.000  C
  C106     1.0000 0.02260  0.69620  0.30610  Biso   1.000  C
  C107     1.0000 0.30380  0.32640  0.30610  Biso   1.000  C
  C108     1.0000 0.67360  0.97740  0.30610  Biso   1.000  C
  H109     1.0000 0.67540  0.05080  0.73530  Biso   1.000  H
  H110     1.0000 0.94920  0.62460  0.73530  Biso   1.000  H
  H111     1.0000 0.37540  0.32460  0.73530  Biso   1.000  H
  H112     1.0000 0.05080  0.67540  0.26470  Biso   1.000  H
  H113     1.0000 0.32460  0.37540  0.26470  Biso   1.000  H
  H114     1.0000 0.62460  0.94920  0.26470  Biso   1.000  H
  H115     1.0000 0.74320  0.06460  0.65620  Biso   1.000  H
  H116     1.0000 0.93540  0.67860  0.65620  Biso   1.000  H
  H117     1.0000 0.32140  0.25680  0.65620  Biso   1.000  H
  H118     1.0000 0.06460  0.74320  0.34380  Biso   1.000  H
  H119     1.0000 0.25680  0.32140  0.34380  Biso   1.000  H
  H120     1.0000 0.67860  0.93540  0.34380  Biso   1.000  H
  C109     1.0000 0.72070  0.97180  0.74750  Biso   1.000  C
  C110     1.0000 0.02820  0.74890  0.74750  Biso   1.000  C
  C111     1.0000 0.25110  0.27930  0.74750  Biso   1.000  C
  C112     1.0000 0.97180  0.72070  0.25250  Biso   1.000  C
  C113     1.0000 0.27930  0.25110  0.25250  Biso   1.000  C
  C114     1.0000 0.74890  0.02820  0.25250  Biso   1.000  C
  H121     1.0000 0.69900  0.96470  0.81140  Biso   1.000  H
  H122     1.0000 0.03530  0.73430  0.81140  Biso   1.000  H
  H123     1.0000 0.26570  0.30100  0.81140  Biso   1.000  H
  H124     1.0000 0.96470  0.69900  0.18860  Biso   1.000  H
  H125     1.0000 0.30100  0.26570  0.18860  Biso   1.000  H
  H126     1.0000 0.73430  0.03530  0.18860  Biso   1.000  H
  H127     1.0000 0.78120  0.00080  0.75110  Biso   1.000  H
  H128     1.0000 0.99920  0.78040  0.75110  Biso   1.000  H
  H129     1.0000 0.21960  0.21880  0.75110  Biso   1.000  H
  H130     1.0000 0.00080  0.78120  0.24890  Biso   1.000  H
  H131     1.0000 0.21880  0.21960  0.24890  Biso   1.000  H
  H132     1.0000 0.78040  0.99920  0.24890  Biso   1.000  H
  C115     1.0000 0.69060  0.89000  0.70380  Biso   1.000  C
  C116     1.0000 0.11000  0.80060  0.70380  Biso   1.000  C
  C117     1.0000 0.19940  0.30940  0.70380  Biso   1.000  C
  C118     1.0000 0.89000  0.69060  0.29620  Biso   1.000  C
  C119     1.0000 0.30940  0.19940  0.29620  Biso   1.000  C
  C120     1.0000 0.80060  0.11000  0.29620  Biso   1.000  C
  H133     1.0000 0.73270  0.88970  0.66080  Biso   1.000  H
  H134     1.0000 0.11030  0.84300  0.66080  Biso   1.000  H
  H135     1.0000 0.15700  0.26730  0.66080  Biso   1.000  H
  H136     1.0000 0.88970  0.73270  0.33920  Biso   1.000  H
  H137     1.0000 0.26730  0.15700  0.33920  Biso   1.000  H
  H138     1.0000 0.84300  0.11030  0.33920  Biso   1.000  H
  H139     1.0000 0.67420  0.84520  0.75190  Biso   1.000  H
  H140     1.0000 0.15480  0.82900  0.75190  Biso   1.000  H
  H141     1.0000 0.17100  0.32580  0.75190  Biso   1.000  H
  H142     1.0000 0.84520  0.67420  0.24810  Biso   1.000  H
  H143     1.0000 0.32580  0.17100  0.24810  Biso   1.000  H
  H144     1.0000 0.82900  0.15480  0.24810  Biso   1.000  H
  C121     1.0000 0.61790  0.88160  0.65100  Biso   1.000  C
  C122     1.0000 0.11840  0.73630  0.65100  Biso   1.000  C
  C123     1.0000 0.26370  0.38210  0.65100  Biso   1.000  C
  C124     1.0000 0.88160  0.61790  0.34900  Biso   1.000  C
  C125     1.0000 0.38210  0.26370  0.34900  Biso   1.000  C
  C126     1.0000 0.73630  0.11840  0.34900  Biso   1.000  C
  H145     1.0000 0.61160  0.85230  0.59060  Biso   1.000  H
  H146     1.0000 0.14770  0.75930  0.59060  Biso   1.000  H
  H147     1.0000 0.24070  0.38840  0.59060  Biso   1.000  H
  H148     1.0000 0.85230  0.61160  0.40940  Biso   1.000  H
  H149     1.0000 0.38840  0.24070  0.40940  Biso   1.000  H
  H150     1.0000 0.75930  0.14770  0.40940  Biso   1.000  H
  H151     1.0000 0.56640  0.84920  0.68880  Biso   1.000  H
  H152     1.0000 0.15080  0.71720  0.68880  Biso   1.000  H
  H153     1.0000 0.28280  0.43360  0.68880  Biso   1.000  H
  H154     1.0000 0.84920  0.56640  0.31120  Biso   1.000  H
  H155     1.0000 0.43360  0.28280  0.31120  Biso   1.000  H
  H156     1.0000 0.71720  0.15080  0.31120  Biso   1.000  H
  C127     1.0000 0.71580  0.02560  0.65850  Biso   1.000  C
  C128     1.0000 0.97440  0.69020  0.65850  Biso   1.000  C
  C129     1.0000 0.30980  0.28420  0.65850  Biso   1.000  C
  C130     1.0000 0.02560  0.71580  0.34150  Biso   1.000  C
  C131     1.0000 0.28420  0.30980  0.34150  Biso   1.000  C
  C132     1.0000 0.69020  0.97440  0.34150  Biso   1.000  C
  H157     1.0000 0.71910  0.05420  0.70960  Biso   1.000  H
  H158     1.0000 0.94580  0.66490  0.70960  Biso   1.000  H
  H159     1.0000 0.33510  0.28090  0.70960  Biso   1.000  H
  H160     1.0000 0.05420  0.71910  0.29040  Biso   1.000  H
  H161     1.0000 0.28090  0.33510  0.29040  Biso   1.000  H
  H162     1.0000 0.66490  0.94580  0.29040  Biso   1.000  H
  H163     1.0000 0.74040  0.06220  0.61350  Biso   1.000  H
  H164     1.0000 0.93780  0.67820  0.61350  Biso   1.000  H
  H165     1.0000 0.32180  0.25960  0.61350  Biso   1.000  H
  H166     1.0000 0.06220  0.74040  0.38650  Biso   1.000  H
  H167     1.0000 0.25960  0.32180  0.38650  Biso   1.000  H
  H168     1.0000 0.67820  0.93780  0.38650  Biso   1.000  H
  C133     1.0000 0.75750  0.98620  0.67450  Biso   1.000  C
  C134     1.0000 0.01380  0.77130  0.67450  Biso   1.000  C
  C135     1.0000 0.22870  0.24250  0.67450  Biso   1.000  C
  C136     1.0000 0.98620  0.75750  0.32550  Biso   1.000  C
  C137     1.0000 0.24250  0.22870  0.32550  Biso   1.000  C
  C138     1.0000 0.77130  0.01380  0.32550  Biso   1.000  C
  H169     1.0000 0.79540  0.00800  0.64570  Biso   1.000  H
  H170     1.0000 0.99200  0.78740  0.64570  Biso   1.000  H
  H171     1.0000 0.21260  0.20460  0.64570  Biso   1.000  H
  H172     1.0000 0.00800  0.79540  0.35430  Biso   1.000  H
  H173     1.0000 0.20460  0.21260  0.35430  Biso   1.000  H
  H174     1.0000 0.78740  0.99200  0.35430  Biso   1.000  H
  H175     1.0000 0.76900  0.99090  0.72370  Biso   1.000  H
  H176     1.0000 0.00910  0.77810  0.72370  Biso   1.000  H
  H177     1.0000 0.22190  0.23100  0.72370  Biso   1.000  H
  H178     1.0000 0.99090  0.76900  0.27630  Biso   1.000  H
  H179     1.0000 0.23100  0.22190  0.27630  Biso   1.000  H
  H180     1.0000 0.77810  0.00910  0.27630  Biso   1.000  H
  C139     1.0000 0.71880  0.90290  0.64750  Biso   1.000  C
  C140     1.0000 0.09710  0.81590  0.64750  Biso   1.000  C
  C141     1.0000 0.18410  0.28120  0.64750  Biso   1.000  C
  C142     1.0000 0.90290  0.71880  0.35250  Biso   1.000  C
  C143     1.0000 0.28120  0.18410  0.35250  Biso   1.000  C
  C144     1.0000 0.81590  0.09710  0.35250  Biso   1.000  C
  H181     1.0000 0.72530  0.87230  0.69380  Biso   1.000  H
  H182     1.0000 0.12770  0.85300  0.69380  Biso   1.000  H
  H183     1.0000 0.14700  0.27470  0.69380  Biso   1.000  H
  H184     1.0000 0.87230  0.72530  0.30620  Biso   1.000  H
  H185     1.0000 0.27470  0.14700  0.30620  Biso   1.000  H
  H186     1.0000 0.85300  0.12770  0.30620  Biso   1.000  H
  H187     1.0000 0.74220  0.89680  0.59340  Biso   1.000  H
  H188     1.0000 0.10320  0.84540  0.59340  Biso   1.000  H
  H189     1.0000 0.15460  0.25780  0.59340  Biso   1.000  H
  H190     1.0000 0.89680  0.74220  0.40660  Biso   1.000  H
  H191     1.0000 0.25780  0.15460  0.40660  Biso   1.000  H
  H192     1.0000 0.84540  0.10320  0.40660  Biso   1.000  H
  C145     1.0000 0.62760  0.88070  0.63540  Biso   1.000  C
  C146     1.0000 0.11930  0.74690  0.63540  Biso   1.000  C
  C147     1.0000 0.25310  0.37240  0.63540  Biso   1.000  C
  C148     1.0000 0.88070  0.62760  0.36460  Biso   1.000  C
  C149     1.0000 0.37240  0.25310  0.36460  Biso   1.000  C
  C150     1.0000 0.74690  0.11930  0.36460  Biso   1.000  C
  H193     1.0000 0.60390  0.85050  0.57600  Biso   1.000  H
  H194     1.0000 0.14950  0.75340  0.57600  Biso   1.000  H
  H195     1.0000 0.24660  0.39610  0.57600  Biso   1.000  H
  H196     1.0000 0.85050  0.60390  0.42400  Biso   1.000  H
  H197     1.0000 0.39610  0.24660  0.42400  Biso   1.000  H
  H198     1.0000 0.75340  0.14950  0.42400  Biso   1.000  H
  H199     1.0000 0.59320  0.84640  0.68870  Biso   1.000  H
  H200     1.0000 0.15360  0.74680  0.68870  Biso   1.000  H
  H201     1.0000 0.25320  0.40680  0.68870  Biso   1.000  H
  H202     1.0000 0.84640  0.59320  0.31130  Biso   1.000  H
  H203     1.0000 0.40680  0.25320  0.31130  Biso   1.000  H
  H204     1.0000 0.74680  0.15360  0.31130  Biso   1.000  H
