data_image0
_cell_length_a       18.3517
_cell_length_b       18.3517
_cell_length_c       14.035
_cell_angle_alpha    90
_cell_angle_beta     90
_cell_angle_gamma    120

_symmetry_space_group_name_H-M    "P 1"
_symmetry_int_tables_number       1

loop_
  _symmetry_equiv_pos_as_xyz
  'x, y, z'

loop_
  _atom_site_label
  _atom_site_occupancy
  _atom_site_fract_x
  _atom_site_fract_y
  _atom_site_fract_z
  _atom_site_thermal_displace_type
  _atom_site_B_iso_or_equiv
  _atom_site_type_symbol
  Cu1      1.0000 0.40939  0.78670  0.76068  Biso   1.000  Cu
  Cu2      1.0000 0.21330  0.62269  0.76068  Biso   1.000  Cu
  Cu3      1.0000 0.37731  0.59061  0.76068  Biso   1.000  Cu
  P1       1.0000 0.47364  0.71781  0.70349  Biso   1.000  P
  P2       1.0000 0.28219  0.75583  0.70349  Biso   1.000  P
  P3       1.0000 0.24417  0.52636  0.70349  Biso   1.000  P
  C1       1.0000 0.49300  0.74360  0.57500  Biso   1.000  C
  C2       1.0000 0.25640  0.74940  0.57500  Biso   1.000  C
  C3       1.0000 0.25060  0.50700  0.57500  Biso   1.000  C
  Cu4      1.0000 0.62265  0.21325  0.15533  Biso   1.000  Cu
  Cu5      1.0000 0.78675  0.40940  0.15533  Biso   1.000  Cu
  Cu6      1.0000 0.59060  0.37735  0.15533  Biso   1.000  Cu
  P4       1.0000 0.52622  0.24416  0.21276  Biso   1.000  P
  P5       1.0000 0.75584  0.28206  0.21276  Biso   1.000  P
  P6       1.0000 0.71794  0.47378  0.21276  Biso   1.000  P
  C4       1.0000 0.54130  0.82820  0.54750  Biso   1.000  C
  C5       1.0000 0.17180  0.71310  0.54750  Biso   1.000  C
  C6       1.0000 0.28690  0.45870  0.54750  Biso   1.000  C
  H1       1.0000 0.56740  0.87090  0.59440  Biso   1.000  H
  H2       1.0000 0.12910  0.69650  0.59440  Biso   1.000  H
  H3       1.0000 0.30350  0.43260  0.59440  Biso   1.000  H
  C7       1.0000 0.55090  0.84920  0.45130  Biso   1.000  C
  C8       1.0000 0.15080  0.70170  0.45130  Biso   1.000  C
  C9       1.0000 0.29830  0.44910  0.45130  Biso   1.000  C
  H4       1.0000 0.58500  0.90620  0.43210  Biso   1.000  H
  H5       1.0000 0.09380  0.67880  0.43210  Biso   1.000  H
  H6       1.0000 0.32120  0.41500  0.43210  Biso   1.000  H
  C10      1.0000 0.51010  0.78610  0.38300  Biso   1.000  C
  C11      1.0000 0.21390  0.72400  0.38300  Biso   1.000  C
  C12      1.0000 0.27600  0.48990  0.38300  Biso   1.000  C
  H7       1.0000 0.51450  0.79950  0.31720  Biso   1.000  H
  H8       1.0000 0.20050  0.71500  0.31720  Biso   1.000  H
  H9       1.0000 0.28500  0.48550  0.31720  Biso   1.000  H
  C13      1.0000 0.46460  0.70610  0.41240  Biso   1.000  C
  C14      1.0000 0.29390  0.75850  0.41240  Biso   1.000  C
  C15      1.0000 0.24150  0.53540  0.41240  Biso   1.000  C
  H10      1.0000 0.43620  0.66300  0.36630  Biso   1.000  H
  H11      1.0000 0.33700  0.77320  0.36630  Biso   1.000  H
  H12      1.0000 0.22680  0.56380  0.36630  Biso   1.000  H
  C16      1.0000 0.45770  0.68450  0.50620  Biso   1.000  C
  C17      1.0000 0.31550  0.77320  0.50620  Biso   1.000  C
  C18      1.0000 0.22680  0.54230  0.50620  Biso   1.000  C
  H13      1.0000 0.42760  0.62680  0.52360  Biso   1.000  H
  H14      1.0000 0.37320  0.80080  0.52360  Biso   1.000  H
  H15      1.0000 0.19920  0.57240  0.52360  Biso   1.000  H
  C19      1.0000 0.57860  0.75530  0.75330  Biso   1.000  C
  C20      1.0000 0.24470  0.82330  0.75330  Biso   1.000  C
  C21      1.0000 0.17670  0.42140  0.75330  Biso   1.000  C
  C22      1.0000 0.65210  0.78310  0.70100  Biso   1.000  C
  C23      1.0000 0.21690  0.86900  0.70100  Biso   1.000  C
  C24      1.0000 0.13100  0.34790  0.70100  Biso   1.000  C
  H16      1.0000 0.65030  0.78710  0.63360  Biso   1.000  H
  H17      1.0000 0.21290  0.86320  0.63360  Biso   1.000  H
  H18      1.0000 0.13680  0.34970  0.63360  Biso   1.000  H
  C25      1.0000 0.72810  0.80530  0.74520  Biso   1.000  C
  C26      1.0000 0.19470  0.92280  0.74520  Biso   1.000  C
  C27      1.0000 0.07720  0.27190  0.74520  Biso   1.000  C
  H19      1.0000 0.77750  0.82580  0.70740  Biso   1.000  H
  H20      1.0000 0.17420  0.95170  0.70740  Biso   1.000  H
  H21      1.0000 0.04830  0.22250  0.70740  Biso   1.000  H
  C28      1.0000 0.73400  0.79850  0.84090  Biso   1.000  C
  C29      1.0000 0.20150  0.93550  0.84090  Biso   1.000  C
  C30      1.0000 0.06450  0.26600  0.84090  Biso   1.000  C
  H22      1.0000 0.78600  0.81290  0.87050  Biso   1.000  H
  H23      1.0000 0.18710  0.97310  0.87050  Biso   1.000  H
  H24      1.0000 0.02690  0.21400  0.87050  Biso   1.000  H
  C31      1.0000 0.66150  0.77000  0.89320  Biso   1.000  C
  C32      1.0000 0.23000  0.89150  0.89320  Biso   1.000  C
  C33      1.0000 0.10850  0.33850  0.89320  Biso   1.000  C
  H25      1.0000 0.66350  0.76460  0.96030  Biso   1.000  H
  H26      1.0000 0.23540  0.89890  0.96030  Biso   1.000  H
  H27      1.0000 0.10110  0.33650  0.96030  Biso   1.000  H
  C34      1.0000 0.58550  0.74900  0.85020  Biso   1.000  C
  C35      1.0000 0.25100  0.83650  0.85020  Biso   1.000  C
  C36      1.0000 0.16350  0.41450  0.85020  Biso   1.000  C
  H28      1.0000 0.53680  0.72960  0.88870  Biso   1.000  H
  H29      1.0000 0.27040  0.80720  0.88870  Biso   1.000  H
  H30      1.0000 0.19280  0.46320  0.88870  Biso   1.000  H
  C37      1.0000 0.50640  0.25060  0.33940  Biso   1.000  C
  C38      1.0000 0.74940  0.25580  0.33940  Biso   1.000  C
  C39      1.0000 0.74420  0.49360  0.33940  Biso   1.000  C
  C40      1.0000 0.45850  0.28680  0.36930  Biso   1.000  C
  C41      1.0000 0.71320  0.17170  0.36930  Biso   1.000  C
  C42      1.0000 0.82830  0.54150  0.36930  Biso   1.000  C
  H31      1.0000 0.43280  0.30430  0.32290  Biso   1.000  H
  H32      1.0000 0.69570  0.12850  0.32290  Biso   1.000  H
  H33      1.0000 0.87150  0.56720  0.32290  Biso   1.000  H
  C43      1.0000 0.44820  0.29740  0.46440  Biso   1.000  C
  C44      1.0000 0.70260  0.15080  0.46440  Biso   1.000  C
  C45      1.0000 0.84920  0.55180  0.46440  Biso   1.000  C
  H34      1.0000 0.41320  0.31940  0.48300  Biso   1.000  H
  H35      1.0000 0.68060  0.09380  0.48300  Biso   1.000  H
  H36      1.0000 0.90620  0.58680  0.48300  Biso   1.000  H
  C46      1.0000 0.48840  0.27620  0.53280  Biso   1.000  C
  C47      1.0000 0.72380  0.21220  0.53280  Biso   1.000  C
  C48      1.0000 0.78780  0.51160  0.53280  Biso   1.000  C
  H37      1.0000 0.48350  0.28540  0.59850  Biso   1.000  H
  H38      1.0000 0.71460  0.19810  0.59850  Biso   1.000  H
  H39      1.0000 0.80190  0.51650  0.59850  Biso   1.000  H
  C49      1.0000 0.53510  0.24180  0.50380  Biso   1.000  C
  C50      1.0000 0.75820  0.29330  0.50380  Biso   1.000  C
  C51      1.0000 0.70670  0.46490  0.50380  Biso   1.000  C
  H40      1.0000 0.56350  0.22770  0.55050  Biso   1.000  H
  H41      1.0000 0.77230  0.33580  0.55050  Biso   1.000  H
  H42      1.0000 0.66420  0.43650  0.55050  Biso   1.000  H
  C52      1.0000 0.54300  0.22680  0.41070  Biso   1.000  C
  C53      1.0000 0.77320  0.31620  0.41070  Biso   1.000  C
  C54      1.0000 0.68380  0.45700  0.41070  Biso   1.000  C
  H43      1.0000 0.57390  0.19970  0.39410  Biso   1.000  H
  H44      1.0000 0.80030  0.37420  0.39410  Biso   1.000  H
  H45      1.0000 0.62580  0.42610  0.39410  Biso   1.000  H
  C55      1.0000 0.42060  0.17580  0.16330  Biso   1.000  C
  C56      1.0000 0.82420  0.24480  0.16330  Biso   1.000  C
  C57      1.0000 0.75520  0.57940  0.16330  Biso   1.000  C
  C58      1.0000 0.41370  0.16130  0.06500  Biso   1.000  C
  C59      1.0000 0.83870  0.25240  0.06500  Biso   1.000  C
  C60      1.0000 0.74760  0.58630  0.06500  Biso   1.000  C
  H46      1.0000 0.46240  0.18940  0.02610  Biso   1.000  H
  H47      1.0000 0.81060  0.27300  0.02610  Biso   1.000  H
  H48      1.0000 0.72700  0.53760  0.02610  Biso   1.000  H
  C61      1.0000 0.33740  0.10720  0.02340  Biso   1.000  C
  C62      1.0000 0.89280  0.23020  0.02340  Biso   1.000  C
  C63      1.0000 0.76980  0.66260  0.02340  Biso   1.000  C
  H49      1.0000 0.33420  0.09940  0.95630  Biso   1.000  H
  H50      1.0000 0.90060  0.23480  0.95630  Biso   1.000  H
  H51      1.0000 0.76520  0.66580  0.95630  Biso   1.000  H
  C64      1.0000 0.26730  0.06500  0.07630  Biso   1.000  C
  C65      1.0000 0.93500  0.20230  0.07630  Biso   1.000  C
  C66      1.0000 0.79770  0.73270  0.07630  Biso   1.000  C
  H52      1.0000 0.21530  0.02700  0.04690  Biso   1.000  H
  H53      1.0000 0.97300  0.18830  0.04690  Biso   1.000  H
  H54      1.0000 0.81170  0.78470  0.04690  Biso   1.000  H
  C67      1.0000 0.27140  0.07730  0.17360  Biso   1.000  C
  C68      1.0000 0.92270  0.19410  0.17360  Biso   1.000  C
  C69      1.0000 0.80590  0.72860  0.17360  Biso   1.000  C
  H55      1.0000 0.22190  0.04890  0.21130  Biso   1.000  H
  H56      1.0000 0.95110  0.17300  0.21130  Biso   1.000  H
  H57      1.0000 0.82700  0.77810  0.21130  Biso   1.000  H
  C70      1.0000 0.34780  0.13110  0.21630  Biso   1.000  C
  C71      1.0000 0.86890  0.21670  0.21630  Biso   1.000  C
  C72      1.0000 0.78330  0.65220  0.21630  Biso   1.000  C
  H58      1.0000 0.35030  0.13760  0.28360  Biso   1.000  H
  H59      1.0000 0.86240  0.21270  0.28360  Biso   1.000  H
  H60      1.0000 0.78730  0.64970  0.28360  Biso   1.000  H
  N1       1.0000 0.48740  0.90110  0.93470  Biso   1.000  N
  N2       1.0000 0.09890  0.58630  0.93470  Biso   1.000  N
  N3       1.0000 0.41370  0.51260  0.93470  Biso   1.000  N
  C73      1.0000 0.45350  0.85570  0.87440  Biso   1.000  C
  C74      1.0000 0.14430  0.59780  0.87440  Biso   1.000  C
  C75      1.0000 0.40220  0.54650  0.87440  Biso   1.000  C
  N4       1.0000 0.58730  0.09940  0.98080  Biso   1.000  N
  N5       1.0000 0.90060  0.48790  0.98080  Biso   1.000  N
  N6       1.0000 0.51210  0.41270  0.98080  Biso   1.000  N
  C76      1.0000 0.59910  0.14520  0.04330  Biso   1.000  C
  C77      1.0000 0.85480  0.45390  0.04330  Biso   1.000  C
  C78      1.0000 0.54610  0.40090  0.04330  Biso   1.000  C
  O1       1.0000 0.51530  0.04730  0.76300  Biso   1.000  O
  O2       1.0000 0.95270  0.46800  0.76300  Biso   1.000  O
  O3       1.0000 0.53200  0.48470  0.76300  Biso   1.000  O
  O4       1.0000 0.46790  0.95190  0.15430  Biso   1.000  O
  O5       1.0000 0.04810  0.51600  0.15430  Biso   1.000  O
  O6       1.0000 0.48400  0.53210  0.15430  Biso   1.000  O
  C79      1.0000 0.50920  0.01250  0.67100  Biso   1.000  C
  C80      1.0000 0.98750  0.49670  0.67100  Biso   1.000  C
  C81      1.0000 0.50330  0.49080  0.67100  Biso   1.000  C
  H61      1.0000 0.49530  0.95310  0.67570  Biso   1.000  H
  H62      1.0000 0.04690  0.54220  0.67570  Biso   1.000  H
  H63      1.0000 0.45780  0.50470  0.67570  Biso   1.000  H
  H64      1.0000 0.56290  0.04470  0.63580  Biso   1.000  H
  H65      1.0000 0.95530  0.51820  0.63580  Biso   1.000  H
  H66      1.0000 0.48180  0.43710  0.63580  Biso   1.000  H
  C82      1.0000 0.49780  0.98890  0.24530  Biso   1.000  C
  C83      1.0000 0.01110  0.50890  0.24530  Biso   1.000  C
  C84      1.0000 0.49110  0.50220  0.24530  Biso   1.000  C
  H67      1.0000 0.54160  0.04890  0.23890  Biso   1.000  H
  H68      1.0000 0.95110  0.49270  0.23890  Biso   1.000  H
  H69      1.0000 0.50730  0.45840  0.23890  Biso   1.000  H
  H70      1.0000 0.52170  0.95900  0.28040  Biso   1.000  H
  H71      1.0000 0.04100  0.56270  0.28040  Biso   1.000  H
  H72      1.0000 0.43730  0.47830  0.28040  Biso   1.000  H
  O7       1.0000 0.67130  0.03980  0.82120  Biso   1.000  O
  O8       1.0000 0.96020  0.63150  0.82120  Biso   1.000  O
  O9       1.0000 0.36850  0.32870  0.82120  Biso   1.000  O
  C85      1.0000 0.38950  0.95110  0.13170  Biso   1.000  C
  C86      1.0000 0.04890  0.43840  0.13170  Biso   1.000  C
  C87      1.0000 0.56160  0.61050  0.13170  Biso   1.000  C
  H73      1.0000 0.35530  0.90700  0.08450  Biso   1.000  H
  H74      1.0000 0.09300  0.44830  0.08450  Biso   1.000  H
  H75      1.0000 0.55170  0.64470  0.08450  Biso   1.000  H
  H76      1.0000 0.40020  0.00650  0.10820  Biso   1.000  H
  H77      1.0000 0.99350  0.39370  0.10820  Biso   1.000  H
  H78      1.0000 0.60630  0.59980  0.10820  Biso   1.000  H
  C88      1.0000 0.43950  0.01880  0.62150  Biso   1.000  C
  C89      1.0000 0.98120  0.42070  0.62150  Biso   1.000  C
  C90      1.0000 0.57930  0.56050  0.62150  Biso   1.000  C
  H79      1.0000 0.45890  0.04690  0.55900  Biso   1.000  H
  H80      1.0000 0.95310  0.41200  0.55900  Biso   1.000  H
  H81      1.0000 0.58800  0.54110  0.55900  Biso   1.000  H
  H82      1.0000 0.39030  0.96210  0.61120  Biso   1.000  H
  H83      1.0000 0.03790  0.42820  0.61120  Biso   1.000  H
  H84      1.0000 0.57180  0.60970  0.61120  Biso   1.000  H
  C91      1.0000 0.34740  0.93050  0.23180  Biso   1.000  C
  C92      1.0000 0.06950  0.41690  0.23180  Biso   1.000  C
  C93      1.0000 0.58310  0.65260  0.23180  Biso   1.000  C
  H85      1.0000 0.30570  0.94960  0.23770  Biso   1.000  H
  H86      1.0000 0.05040  0.35610  0.23770  Biso   1.000  H
  H87      1.0000 0.64390  0.69430  0.23770  Biso   1.000  H
  H88      1.0000 0.31970  0.86960  0.24590  Biso   1.000  H
  H89      1.0000 0.13040  0.45010  0.24590  Biso   1.000  H
  H90      1.0000 0.54990  0.68030  0.24590  Biso   1.000  H
  C94      1.0000 0.42220  0.98050  0.29540  Biso   1.000  C
  C95      1.0000 0.01950  0.44170  0.29540  Biso   1.000  C
  C96      1.0000 0.55830  0.57780  0.29540  Biso   1.000  C
  H91      1.0000 0.42930  0.03680  0.30800  Biso   1.000  H
  H92      1.0000 0.96320  0.39250  0.30800  Biso   1.000  H
  H93      1.0000 0.60750  0.57070  0.30800  Biso   1.000  H
  H94      1.0000 0.41430  0.95120  0.35700  Biso   1.000  H
  H95      1.0000 0.04880  0.46310  0.35700  Biso   1.000  H
  H96      1.0000 0.53690  0.58570  0.35700  Biso   1.000  H
  C97      1.0000 0.44070  0.05060  0.78020  Biso   1.000  C
  C98      1.0000 0.94940  0.39010  0.78020  Biso   1.000  C
  C99      1.0000 0.60990  0.55930  0.78020  Biso   1.000  C
  H97      1.0000 0.45130  0.09630  0.82550  Biso   1.000  H
  H98      1.0000 0.90370  0.35500  0.82550  Biso   1.000  H
  H99      1.0000 0.64500  0.54870  0.82550  Biso   1.000  H
  H100     1.0000 0.39560  0.99650  0.80600  Biso   1.000  H
  H101     1.0000 0.00350  0.39910  0.80600  Biso   1.000  H
  H102     1.0000 0.60090  0.60440  0.80600  Biso   1.000  H
  C100     1.0000 0.41750  0.06790  0.68360  Biso   1.000  C
  C101     1.0000 0.93210  0.34960  0.68360  Biso   1.000  C
  C102     1.0000 0.65040  0.58250  0.68360  Biso   1.000  C
  H103     1.0000 0.35670  0.04880  0.67970  Biso   1.000  H
  H104     1.0000 0.95120  0.30790  0.67970  Biso   1.000  H
  H105     1.0000 0.69210  0.64330  0.67970  Biso   1.000  H
  H106     1.0000 0.45030  0.12850  0.66780  Biso   1.000  H
  H107     1.0000 0.87150  0.32180  0.66780  Biso   1.000  H
  H108     1.0000 0.67820  0.54970  0.66780  Biso   1.000  H
  Li1      1.0000 0.54130  0.97580  0.04300  Biso   1.000  Li
  Li2      1.0000 0.02420  0.56550  0.04300  Biso   1.000  Li
  Li3      1.0000 0.43450  0.45870  0.04300  Biso   1.000  Li
  Li4      1.0000 0.56150  0.02240  0.87000  Biso   1.000  Li
  Li5      1.0000 0.97760  0.53910  0.87000  Biso   1.000  Li
  Li6      1.0000 0.46090  0.43850  0.87000  Biso   1.000  Li
  O10      1.0000 0.63240  0.96280  0.09050  Biso   1.000  O
  O11      1.0000 0.03720  0.66960  0.09050  Biso   1.000  O
  O12      1.0000 0.33040  0.36760  0.09050  Biso   1.000  O
  C103     1.0000 0.69840  0.02130  0.14880  Biso   1.000  C
  C104     1.0000 0.97870  0.67710  0.14880  Biso   1.000  C
  C105     1.0000 0.32290  0.30160  0.14880  Biso   1.000  C
  H109     1.0000 0.68170  0.05810  0.18250  Biso   1.000  H
  H110     1.0000 0.94190  0.62360  0.18250  Biso   1.000  H
  H111     1.0000 0.37640  0.31830  0.18250  Biso   1.000  H
  H112     1.0000 0.74940  0.05690  0.11040  Biso   1.000  H
  H113     1.0000 0.94310  0.69250  0.11040  Biso   1.000  H
  H114     1.0000 0.30750  0.25060  0.11040  Biso   1.000  H
  C106     1.0000 0.71400  0.97080  0.21600  Biso   1.000  C
  C107     1.0000 0.02920  0.74320  0.21600  Biso   1.000  C
  C108     1.0000 0.25680  0.28600  0.21600  Biso   1.000  C
  H115     1.0000 0.67860  0.95910  0.27350  Biso   1.000  H
  H116     1.0000 0.04090  0.71950  0.27350  Biso   1.000  H
  H117     1.0000 0.28050  0.32140  0.27350  Biso   1.000  H
  H118     1.0000 0.77370  0.99960  0.23510  Biso   1.000  H
  H119     1.0000 0.00040  0.77410  0.23510  Biso   1.000  H
  H120     1.0000 0.22590  0.22630  0.23510  Biso   1.000  H
  C109     1.0000 0.69100  0.89260  0.16450  Biso   1.000  C
  C110     1.0000 0.10740  0.79840  0.16450  Biso   1.000  C
  C111     1.0000 0.20160  0.30900  0.16450  Biso   1.000  C
  H121     1.0000 0.73870  0.89820  0.12590  Biso   1.000  H
  H122     1.0000 0.10180  0.84050  0.12590  Biso   1.000  H
  H123     1.0000 0.15950  0.26130  0.12590  Biso   1.000  H
  H124     1.0000 0.67270  0.84470  0.20900  Biso   1.000  H
  H125     1.0000 0.15530  0.82800  0.20900  Biso   1.000  H
  H126     1.0000 0.17200  0.32730  0.20900  Biso   1.000  H
  C112     1.0000 0.62170  0.88190  0.10390  Biso   1.000  C
  C113     1.0000 0.11810  0.73980  0.10390  Biso   1.000  C
  C114     1.0000 0.26020  0.37830  0.10390  Biso   1.000  C
  H127     1.0000 0.62330  0.85690  0.04200  Biso   1.000  H
  H128     1.0000 0.14310  0.76640  0.04200  Biso   1.000  H
  H129     1.0000 0.23360  0.37670  0.04200  Biso   1.000  H
  H130     1.0000 0.56700  0.84450  0.13500  Biso   1.000  H
  H131     1.0000 0.15550  0.72250  0.13500  Biso   1.000  H
  H132     1.0000 0.27750  0.43300  0.13500  Biso   1.000  H
  C115     1.0000 0.67030  0.97620  0.76100  Biso   1.000  C
  C116     1.0000 0.02380  0.69410  0.76100  Biso   1.000  C
  C117     1.0000 0.30590  0.32970  0.76100  Biso   1.000  C
  H133     1.0000 0.62570  0.95650  0.71190  Biso   1.000  H
  H134     1.0000 0.04350  0.66920  0.71190  Biso   1.000  H
  H135     1.0000 0.33080  0.37430  0.71190  Biso   1.000  H
  H136     1.0000 0.66460  0.92760  0.79800  Biso   1.000  H
  H137     1.0000 0.07240  0.73700  0.79800  Biso   1.000  H
  H138     1.0000 0.26300  0.33540  0.79800  Biso   1.000  H
  C118     1.0000 0.75450  0.02710  0.72100  Biso   1.000  C
  C119     1.0000 0.97290  0.72740  0.72100  Biso   1.000  C
  C120     1.0000 0.27260  0.24550  0.72100  Biso   1.000  C
  H139     1.0000 0.78680  0.99810  0.73290  Biso   1.000  H
  H140     1.0000 0.00190  0.78870  0.73290  Biso   1.000  H
  H141     1.0000 0.21130  0.21320  0.73290  Biso   1.000  H
  H142     1.0000 0.74910  0.02970  0.65080  Biso   1.000  H
  H143     1.0000 0.97030  0.71940  0.65080  Biso   1.000  H
  H144     1.0000 0.28060  0.25090  0.65080  Biso   1.000  H
  C121     1.0000 0.80280  0.11270  0.75700  Biso   1.000  C
  C122     1.0000 0.88730  0.69010  0.75700  Biso   1.000  C
  C123     1.0000 0.30990  0.19720  0.75700  Biso   1.000  C
  H145     1.0000 0.83010  0.15440  0.70520  Biso   1.000  H
  H146     1.0000 0.84560  0.67570  0.70520  Biso   1.000  H
  H147     1.0000 0.32430  0.16990  0.70520  Biso   1.000  H
  H148     1.0000 0.84550  0.11880  0.80430  Biso   1.000  H
  H149     1.0000 0.88120  0.72670  0.80430  Biso   1.000  H
  H150     1.0000 0.27330  0.15450  0.80430  Biso   1.000  H
  C124     1.0000 0.73270  0.11860  0.80200  Biso   1.000  C
  C125     1.0000 0.88140  0.61410  0.80200  Biso   1.000  C
  C126     1.0000 0.38590  0.26730  0.80200  Biso   1.000  C
  H151     1.0000 0.75210  0.15230  0.86070  Biso   1.000  H
  H152     1.0000 0.84770  0.59980  0.86070  Biso   1.000  H
  H153     1.0000 0.40020  0.24790  0.86070  Biso   1.000  H
  H154     1.0000 0.71170  0.14600  0.75730  Biso   1.000  H
  H155     1.0000 0.85400  0.56570  0.75730  Biso   1.000  H
  H156     1.0000 0.43430  0.28830  0.75730  Biso   1.000  H
  C127     1.0000 0.68980  0.97430  0.79400  Biso   1.000  C
  C128     1.0000 0.02570  0.71550  0.79400  Biso   1.000  C
  C129     1.0000 0.28450  0.31020  0.79400  Biso   1.000  C
  C130     1.0000 0.77690  0.00590  0.82800  Biso   1.000  C
  C131     1.0000 0.99410  0.77100  0.82800  Biso   1.000  C
  C132     1.0000 0.22900  0.22310  0.82800  Biso   1.000  C
  C133     1.0000 0.82040  0.09760  0.81300  Biso   1.000  C
  C134     1.0000 0.90240  0.72280  0.81300  Biso   1.000  C
  C135     1.0000 0.27720  0.17960  0.81300  Biso   1.000  C
  C136     1.0000 0.75390  0.12050  0.83300  Biso   1.000  C
  C137     1.0000 0.87950  0.63340  0.83300  Biso   1.000  C
  C138     1.0000 0.36660  0.24610  0.83300  Biso   1.000  C
  C139     1.0000 0.71610  0.02540  0.11100  Biso   1.000  C
  C140     1.0000 0.97460  0.69070  0.11100  Biso   1.000  C
  C141     1.0000 0.30930  0.28390  0.11100  Biso   1.000  C
  C142     1.0000 0.74400  0.97810  0.17700  Biso   1.000  C
  C143     1.0000 0.02190  0.76590  0.17700  Biso   1.000  C
  C144     1.0000 0.23410  0.25600  0.17700  Biso   1.000  C
  C145     1.0000 0.71490  0.90340  0.10800  Biso   1.000  C
  C146     1.0000 0.09660  0.81150  0.10800  Biso   1.000  C
  C147     1.0000 0.18850  0.28510  0.10800  Biso   1.000  C
  H157     1.0000 0.68590  0.96600  0.72440  Biso   1.000  H
  H158     1.0000 0.03400  0.71990  0.72440  Biso   1.000  H
  H159     1.0000 0.28010  0.31410  0.72440  Biso   1.000  H
  H160     1.0000 0.65040  0.92030  0.82550  Biso   1.000  H
  H161     1.0000 0.07970  0.73010  0.82550  Biso   1.000  H
  H162     1.0000 0.26990  0.34960  0.82550  Biso   1.000  H
  H163     1.0000 0.77720  0.99240  0.89610  Biso   1.000  H
  H164     1.0000 0.00760  0.78480  0.89610  Biso   1.000  H
  H165     1.0000 0.21520  0.22280  0.89610  Biso   1.000  H
  H166     1.0000 0.80440  0.98050  0.79080  Biso   1.000  H
  H167     1.0000 0.01950  0.82390  0.79080  Biso   1.000  H
  H168     1.0000 0.17610  0.19560  0.79080  Biso   1.000  H
  H169     1.0000 0.84190  0.11250  0.74750  Biso   1.000  H
  H170     1.0000 0.88750  0.72940  0.74750  Biso   1.000  H
  H171     1.0000 0.27060  0.15810  0.74750  Biso   1.000  H
  H172     1.0000 0.86810  0.12680  0.85840  Biso   1.000  H
  H173     1.0000 0.87320  0.74130  0.85840  Biso   1.000  H
  H174     1.0000 0.25870  0.13190  0.85840  Biso   1.000  H
  H175     1.0000 0.75960  0.14310  0.89800  Biso   1.000  H
  H176     1.0000 0.85690  0.61650  0.89800  Biso   1.000  H
  H177     1.0000 0.38350  0.24040  0.89800  Biso   1.000  H
  H178     1.0000 0.75820  0.16340  0.78670  Biso   1.000  H
  H179     1.0000 0.83660  0.59480  0.78670  Biso   1.000  H
  H180     1.0000 0.40520  0.24180  0.78670  Biso   1.000  H
  H181     1.0000 0.71830  0.07430  0.14360  Biso   1.000  H
  H182     1.0000 0.92570  0.64400  0.14360  Biso   1.000  H
  H183     1.0000 0.35600  0.28170  0.14360  Biso   1.000  H
  H184     1.0000 0.75080  0.04480  0.05250  Biso   1.000  H
  H185     1.0000 0.95520  0.70600  0.05250  Biso   1.000  H
  H186     1.0000 0.29400  0.24920  0.05250  Biso   1.000  H
  H187     1.0000 0.71400  0.96230  0.23820  Biso   1.000  H
  H188     1.0000 0.03770  0.75170  0.23820  Biso   1.000  H
  H189     1.0000 0.24830  0.28600  0.23820  Biso   1.000  H
  H190     1.0000 0.80600  0.00830  0.18750  Biso   1.000  H
  H191     1.0000 0.99170  0.79770  0.18750  Biso   1.000  H
  H192     1.0000 0.20230  0.19400  0.18750  Biso   1.000  H
  H193     1.0000 0.72120  0.85710  0.13520  Biso   1.000  H
  H194     1.0000 0.14290  0.86410  0.13520  Biso   1.000  H
  H195     1.0000 0.13590  0.27880  0.13520  Biso   1.000  H
  H196     1.0000 0.74310  0.92030  0.04530  Biso   1.000  H
  H197     1.0000 0.07970  0.82280  0.04530  Biso   1.000  H
  H198     1.0000 0.17720  0.25690  0.04530  Biso   1.000  H
  H199     1.0000 0.59130  0.84410  0.04990  Biso   1.000  H
  H200     1.0000 0.15590  0.74720  0.04990  Biso   1.000  H
  H201     1.0000 0.25280  0.40870  0.04990  Biso   1.000  H
  H202     1.0000 0.59170  0.85610  0.16410  Biso   1.000  H
  H203     1.0000 0.14390  0.73560  0.16410  Biso   1.000  H
  H204     1.0000 0.26440  0.40830  0.16410  Biso   1.000  H
