data_image0
_cell_length_a       9.4578
_cell_length_b       13.4794
_cell_length_c       17.0208
_cell_angle_alpha    90
_cell_angle_beta     101.346
_cell_angle_gamma    90

_symmetry_space_group_name_H-M    "P 1"
_symmetry_int_tables_number       1

loop_
  _symmetry_equiv_pos_as_xyz
  'x, y, z'

loop_
  _atom_site_label
  _atom_site_occupancy
  _atom_site_fract_x
  _atom_site_fract_y
  _atom_site_fract_z
  _atom_site_thermal_displace_type
  _atom_site_B_iso_or_equiv
  _atom_site_type_symbol
  Sm1      1.0000 0.71420  0.96509  0.50227  Biso   1.000  Sm
  Sm2      1.0000 0.78580  0.46509  0.99773  Biso   1.000  Sm
  Sm3      1.0000 0.28580  0.03491  0.49773  Biso   1.000  Sm
  Sm4      1.0000 0.21420  0.53491  0.00227  Biso   1.000  Sm
  Cu1      1.0000 0.71503  0.63980  0.48121  Biso   1.000  Cu
  Cu2      1.0000 0.78497  0.13980  0.01879  Biso   1.000  Cu
  Cu3      1.0000 0.28497  0.36020  0.51879  Biso   1.000  Cu
  Cu4      1.0000 0.21503  0.86020  0.98121  Biso   1.000  Cu
  S1       1.0000 0.18131  0.78383  0.42190  Biso   1.000  S
  S2       1.0000 0.31869  0.28383  0.07810  Biso   1.000  S
  S3       1.0000 0.81869  0.21617  0.57810  Biso   1.000  S
  S4       1.0000 0.68131  0.71617  0.92190  Biso   1.000  S
  O1       1.0000 0.45320  0.90224  0.50419  Biso   1.000  O
  O2       1.0000 0.04680  0.40224  0.99581  Biso   1.000  O
  O3       1.0000 0.54680  0.09776  0.49581  Biso   1.000  O
  O4       1.0000 0.95320  0.59776  0.00419  Biso   1.000  O
  O5       1.0000 0.62180  0.78873  0.52656  Biso   1.000  O
  O6       1.0000 0.87820  0.28873  0.97344  Biso   1.000  O
  O7       1.0000 0.37820  0.21127  0.47344  Biso   1.000  O
  O8       1.0000 0.12180  0.71127  0.02656  Biso   1.000  O
  O9       1.0000 0.16350  0.89050  0.42617  Biso   1.000  O
  O10      1.0000 0.33650  0.39050  0.07383  Biso   1.000  O
  O11      1.0000 0.83650  0.10950  0.57383  Biso   1.000  O
  O12      1.0000 0.66350  0.60950  0.92617  Biso   1.000  O
  O13      1.0000 0.28740  0.75390  0.37670  Biso   1.000  O
  O14      1.0000 0.21260  0.25390  0.12330  Biso   1.000  O
  O15      1.0000 0.71260  0.24610  0.62330  Biso   1.000  O
  O16      1.0000 0.78740  0.74610  0.87670  Biso   1.000  O
  O17      1.0000 0.04230  0.73670  0.39690  Biso   1.000  O
  O18      1.0000 0.45770  0.23670  0.10310  Biso   1.000  O
  O19      1.0000 0.95770  0.26330  0.60310  Biso   1.000  O
  O20      1.0000 0.54230  0.76330  0.89690  Biso   1.000  O
  O21      1.0000 0.56040  0.95580  0.36805  Biso   1.000  O
  O22      1.0000 0.93960  0.45580  0.13195  Biso   1.000  O
  O23      1.0000 0.43960  0.04420  0.63195  Biso   1.000  O
  O24      1.0000 0.06040  0.54420  0.86805  Biso   1.000  O
  O25      1.0000 0.34770  0.03240  0.36412  Biso   1.000  O
  O26      1.0000 0.15230  0.53240  0.13588  Biso   1.000  O
  O27      1.0000 0.65230  0.96760  0.63588  Biso   1.000  O
  O28      1.0000 0.84770  0.46760  0.86412  Biso   1.000  O
  O29      1.0000 0.92730  0.90050  0.57848  Biso   1.000  O
  O30      1.0000 0.57270  0.40050  0.92152  Biso   1.000  O
  O31      1.0000 0.07270  0.09950  0.42152  Biso   1.000  O
  O32      1.0000 0.42730  0.59950  0.07848  Biso   1.000  O
  O33      1.0000 0.15120  0.95260  0.58188  Biso   1.000  O
  O34      1.0000 0.34880  0.45260  0.91812  Biso   1.000  O
  O35      1.0000 0.84880  0.04740  0.41812  Biso   1.000  O
  O36      1.0000 0.65120  0.54740  0.08188  Biso   1.000  O
  O37      1.0000 0.79680  0.83750  0.41373  Biso   1.000  O
  O38      1.0000 0.70320  0.33750  0.08627  Biso   1.000  O
  O39      1.0000 0.20320  0.16250  0.58627  Biso   1.000  O
  O40      1.0000 0.29680  0.66250  0.91373  Biso   1.000  O
  H1       1.0000 0.88740  0.84130  0.41640  Biso   1.000  H
  H2       1.0000 0.61260  0.34130  0.08360  Biso   1.000  H
  H3       1.0000 0.11260  0.15870  0.58360  Biso   1.000  H
  H4       1.0000 0.38740  0.65870  0.91640  Biso   1.000  H
  H5       1.0000 0.75400  0.84490  0.36530  Biso   1.000  H
  H6       1.0000 0.74600  0.34490  0.13470  Biso   1.000  H
  H7       1.0000 0.24600  0.15510  0.63470  Biso   1.000  H
  H8       1.0000 0.25400  0.65510  0.86530  Biso   1.000  H
  N1       1.0000 0.29830  0.89790  0.08893  Biso   1.000  N
  N2       1.0000 0.20170  0.39790  0.41107  Biso   1.000  N
  N3       1.0000 0.70170  0.10210  0.91107  Biso   1.000  N
  N4       1.0000 0.79830  0.60210  0.58893  Biso   1.000  N
  N5       1.0000 0.16060  0.87790  0.86860  Biso   1.000  N
  N6       1.0000 0.33940  0.37790  0.63140  Biso   1.000  N
  N7       1.0000 0.83940  0.12210  0.13140  Biso   1.000  N
  N8       1.0000 0.66060  0.62210  0.36860  Biso   1.000  N
  C1       1.0000 0.49430  0.81600  0.52630  Biso   1.000  C
  C2       1.0000 0.00570  0.31600  0.97370  Biso   1.000  C
  C3       1.0000 0.50570  0.18400  0.47370  Biso   1.000  C
  C4       1.0000 0.99430  0.68400  0.02630  Biso   1.000  C
  C5       1.0000 0.39220  0.75000  0.55830  Biso   1.000  C
  C6       1.0000 0.10780  0.25000  0.94170  Biso   1.000  C
  C7       1.0000 0.60780  0.25000  0.44170  Biso   1.000  C
  C8       1.0000 0.89220  0.75000  0.05830  Biso   1.000  C
  C9       1.0000 0.24770  0.73740  0.52080  Biso   1.000  C
  C10      1.0000 0.25230  0.23740  0.97920  Biso   1.000  C
  C11      1.0000 0.75230  0.26260  0.47920  Biso   1.000  C
  C12      1.0000 0.74770  0.76260  0.02080  Biso   1.000  C
  C13      1.0000 0.15620  0.68210  0.55760  Biso   1.000  C
  C14      1.0000 0.34380  0.18210  0.94240  Biso   1.000  C
  C15      1.0000 0.84380  0.31790  0.44240  Biso   1.000  C
  C16      1.0000 0.65620  0.81790  0.05760  Biso   1.000  C
  H9       1.0000 0.06040  0.67330  0.53260  Biso   1.000  H
  H10      1.0000 0.43960  0.17330  0.96740  Biso   1.000  H
  H11      1.0000 0.93960  0.32670  0.46740  Biso   1.000  H
  H12      1.0000 0.56040  0.82670  0.03260  Biso   1.000  H
  C17      1.0000 0.20740  0.63990  0.63190  Biso   1.000  C
  C18      1.0000 0.29260  0.13990  0.86810  Biso   1.000  C
  C19      1.0000 0.79260  0.36010  0.36810  Biso   1.000  C
  C20      1.0000 0.70740  0.86010  0.13190  Biso   1.000  C
  H13      1.0000 0.14480  0.60420  0.65700  Biso   1.000  H
  H14      1.0000 0.35520  0.10420  0.84300  Biso   1.000  H
  H15      1.0000 0.85520  0.39580  0.34300  Biso   1.000  H
  H16      1.0000 0.64480  0.89580  0.15700  Biso   1.000  H
  C21      1.0000 0.35090  0.65020  0.66950  Biso   1.000  C
  C22      1.0000 0.14910  0.15020  0.83050  Biso   1.000  C
  C23      1.0000 0.64910  0.34980  0.33050  Biso   1.000  C
  C24      1.0000 0.85090  0.84980  0.16950  Biso   1.000  C
  H17      1.0000 0.38480  0.62050  0.71900  Biso   1.000  H
  H18      1.0000 0.11520  0.12050  0.78100  Biso   1.000  H
  H19      1.0000 0.61520  0.37950  0.28100  Biso   1.000  H
  H20      1.0000 0.88480  0.87950  0.21900  Biso   1.000  H
  C25      1.0000 0.44400  0.70560  0.63220  Biso   1.000  C
  C26      1.0000 0.05600  0.20560  0.86780  Biso   1.000  C
  C27      1.0000 0.55600  0.29440  0.36780  Biso   1.000  C
  C28      1.0000 0.94400  0.79440  0.13220  Biso   1.000  C
  H21      1.0000 0.54040  0.71280  0.65680  Biso   1.000  H
  H22      1.0000 0.95960  0.21280  0.84320  Biso   1.000  H
  H23      1.0000 0.45960  0.28720  0.34320  Biso   1.000  H
  H24      1.0000 0.04040  0.78720  0.15680  Biso   1.000  H
  C29      1.0000 0.43640  0.98410  0.33450  Biso   1.000  C
  C30      1.0000 0.06360  0.48410  0.16550  Biso   1.000  C
  C31      1.0000 0.56360  0.01590  0.66550  Biso   1.000  C
  C32      1.0000 0.93640  0.51590  0.83450  Biso   1.000  C
  C33      1.0000 0.39010  0.95500  0.24780  Biso   1.000  C
  C34      1.0000 0.10990  0.45500  0.25220  Biso   1.000  C
  C35      1.0000 0.60990  0.04500  0.75220  Biso   1.000  C
  C36      1.0000 0.89010  0.54500  0.74780  Biso   1.000  C
  C37      1.0000 0.38760  0.85620  0.22550  Biso   1.000  C
  C38      1.0000 0.11240  0.35620  0.27450  Biso   1.000  C
  C39      1.0000 0.61240  0.14380  0.77450  Biso   1.000  C
  C40      1.0000 0.88760  0.64380  0.72550  Biso   1.000  C
  H25      1.0000 0.41810  0.80740  0.26370  Biso   1.000  H
  H26      1.0000 0.08190  0.30740  0.23630  Biso   1.000  H
  H27      1.0000 0.58190  0.19260  0.73630  Biso   1.000  H
  H28      1.0000 0.91810  0.69260  0.76370  Biso   1.000  H
  C41      1.0000 0.34000  0.83070  0.14670  Biso   1.000  C
  C42      1.0000 0.16000  0.33070  0.35330  Biso   1.000  C
  C43      1.0000 0.66000  0.16930  0.85330  Biso   1.000  C
  C44      1.0000 0.84000  0.66930  0.64670  Biso   1.000  C
  H29      1.0000 0.33660  0.76380  0.13280  Biso   1.000  H
  H30      1.0000 0.16340  0.26380  0.36720  Biso   1.000  H
  H31      1.0000 0.66340  0.23620  0.86720  Biso   1.000  H
  H32      1.0000 0.83660  0.73620  0.63280  Biso   1.000  H
  C45      1.0000 0.30510  0.99360  0.11040  Biso   1.000  C
  C46      1.0000 0.19490  0.49360  0.38960  Biso   1.000  C
  C47      1.0000 0.69490  0.00640  0.88960  Biso   1.000  C
  C48      1.0000 0.80510  0.50640  0.61040  Biso   1.000  C
  H33      1.0000 0.27930  0.04120  0.07060  Biso   1.000  H
  H34      1.0000 0.22070  0.54120  0.42940  Biso   1.000  H
  H35      1.0000 0.72070  0.95880  0.92940  Biso   1.000  H
  H36      1.0000 0.77930  0.45880  0.57060  Biso   1.000  H
  C49      1.0000 0.34830  0.02510  0.18820  Biso   1.000  C
  C50      1.0000 0.15170  0.52510  0.31180  Biso   1.000  C
  C51      1.0000 0.65170  0.97490  0.81180  Biso   1.000  C
  C52      1.0000 0.84830  0.47490  0.68820  Biso   1.000  C
  H37      1.0000 0.34950  0.09230  0.20060  Biso   1.000  H
  H38      1.0000 0.15050  0.59230  0.29940  Biso   1.000  H
  H39      1.0000 0.65050  0.90770  0.79940  Biso   1.000  H
  H40      1.0000 0.84950  0.40770  0.70060  Biso   1.000  H
  C53      1.0000 0.05360  0.92180  0.61340  Biso   1.000  C
  C54      1.0000 0.44640  0.42180  0.88660  Biso   1.000  C
  C55      1.0000 0.94640  0.07820  0.38660  Biso   1.000  C
  C56      1.0000 0.55360  0.57820  0.11340  Biso   1.000  C
  C57      1.0000 0.08930  0.90640  0.70330  Biso   1.000  C
  C58      1.0000 0.41070  0.40640  0.79670  Biso   1.000  C
  C59      1.0000 0.91070  0.09360  0.29670  Biso   1.000  C
  C60      1.0000 0.58930  0.59360  0.20330  Biso   1.000  C
  C61      1.0000 0.98310  0.90160  0.74830  Biso   1.000  C
  C62      1.0000 0.51690  0.40160  0.75170  Biso   1.000  C
  C63      1.0000 0.01690  0.09840  0.25170  Biso   1.000  C
  C64      1.0000 0.48310  0.59840  0.24830  Biso   1.000  C
  H41      1.0000 0.88640  0.90770  0.72410  Biso   1.000  H
  H42      1.0000 0.61360  0.40770  0.77590  Biso   1.000  H
  H43      1.0000 0.11360  0.09230  0.27590  Biso   1.000  H
  H44      1.0000 0.38640  0.59230  0.22410  Biso   1.000  H
  C65      1.0000 0.02320  0.88750  0.83040  Biso   1.000  C
  C66      1.0000 0.47680  0.38750  0.66960  Biso   1.000  C
  C67      1.0000 0.97680  0.11250  0.16960  Biso   1.000  C
  C68      1.0000 0.52320  0.61250  0.33040  Biso   1.000  C
  H45      1.0000 0.95110  0.88450  0.86050  Biso   1.000  H
  H46      1.0000 0.54890  0.38450  0.63950  Biso   1.000  H
  H47      1.0000 0.04890  0.11550  0.13950  Biso   1.000  H
  H48      1.0000 0.45110  0.61550  0.36050  Biso   1.000  H
  C69      1.0000 0.26400  0.88320  0.82380  Biso   1.000  C
  C70      1.0000 0.23600  0.38320  0.67620  Biso   1.000  C
  C71      1.0000 0.73600  0.11680  0.17620  Biso   1.000  C
  C72      1.0000 0.76400  0.61680  0.32380  Biso   1.000  C
  H49      1.0000 0.36010  0.87720  0.84920  Biso   1.000  H
  H50      1.0000 0.13990  0.37720  0.65080  Biso   1.000  H
  H51      1.0000 0.63990  0.12280  0.15080  Biso   1.000  H
  H52      1.0000 0.86010  0.62280  0.34920  Biso   1.000  H
  C73      1.0000 0.23210  0.89700  0.74200  Biso   1.000  C
  C74      1.0000 0.26790  0.39700  0.75800  Biso   1.000  C
  C75      1.0000 0.76790  0.10300  0.25800  Biso   1.000  C
  C76      1.0000 0.73210  0.60300  0.24200  Biso   1.000  C
  H53      1.0000 0.30570  0.90000  0.71300  Biso   1.000  H
  H54      1.0000 0.19430  0.40000  0.78700  Biso   1.000  H
  H55      1.0000 0.69430  0.10000  0.28700  Biso   1.000  H
  H56      1.0000 0.80570  0.60000  0.21300  Biso   1.000  H
