data_image0
_cell_length_a       9.536
_cell_length_b       13.5065
_cell_length_c       17.0794
_cell_angle_alpha    90
_cell_angle_beta     101.418
_cell_angle_gamma    90

_symmetry_space_group_name_H-M    "P 1"
_symmetry_int_tables_number       1

loop_
  _symmetry_equiv_pos_as_xyz
  'x, y, z'

loop_
  _atom_site_label
  _atom_site_occupancy
  _atom_site_fract_x
  _atom_site_fract_y
  _atom_site_fract_z
  _atom_site_thermal_displace_type
  _atom_site_B_iso_or_equiv
  _atom_site_type_symbol
  Pr1      1.0000 0.21511  0.03576  0.00189  Biso   1.000  Pr
  Pr2      1.0000 0.28489  0.53576  0.49811  Biso   1.000  Pr
  Pr3      1.0000 0.78489  0.96424  0.99811  Biso   1.000  Pr
  Pr4      1.0000 0.71511  0.46424  0.50189  Biso   1.000  Pr
  Cu1      1.0000 0.21375  0.36244  0.98163  Biso   1.000  Cu
  Cu2      1.0000 0.28625  0.86244  0.51837  Biso   1.000  Cu
  Cu3      1.0000 0.78625  0.63756  0.01837  Biso   1.000  Cu
  Cu4      1.0000 0.71375  0.13756  0.48163  Biso   1.000  Cu
  S1       1.0000 0.67992  0.21689  0.92103  Biso   1.000  S
  S2       1.0000 0.82008  0.71689  0.57897  Biso   1.000  S
  S3       1.0000 0.32008  0.78311  0.07897  Biso   1.000  S
  S4       1.0000 0.17992  0.28311  0.42103  Biso   1.000  S
  O1       1.0000 0.95330  0.09982  0.00276  Biso   1.000  O
  O2       1.0000 0.54670  0.59982  0.49724  Biso   1.000  O
  O3       1.0000 0.04670  0.90018  0.99724  Biso   1.000  O
  O4       1.0000 0.45330  0.40018  0.50276  Biso   1.000  O
  O5       1.0000 0.11830  0.21476  0.02387  Biso   1.000  O
  O6       1.0000 0.38170  0.71476  0.47613  Biso   1.000  O
  O7       1.0000 0.88170  0.78524  0.97613  Biso   1.000  O
  O8       1.0000 0.61830  0.28524  0.52387  Biso   1.000  O
  O9       1.0000 0.66190  0.11005  0.92533  Biso   1.000  O
  O10      1.0000 0.83810  0.61005  0.57467  Biso   1.000  O
  O11      1.0000 0.33810  0.88995  0.07467  Biso   1.000  O
  O12      1.0000 0.16190  0.38995  0.42533  Biso   1.000  O
  O13      1.0000 0.78470  0.24670  0.87550  Biso   1.000  O
  O14      1.0000 0.71530  0.74670  0.62450  Biso   1.000  O
  O15      1.0000 0.21530  0.75330  0.12450  Biso   1.000  O
  O16      1.0000 0.28470  0.25330  0.37550  Biso   1.000  O
  O17      1.0000 0.54120  0.26430  0.89610  Biso   1.000  O
  O18      1.0000 0.95880  0.76430  0.60390  Biso   1.000  O
  O19      1.0000 0.45880  0.73570  0.10390  Biso   1.000  O
  O20      1.0000 0.04120  0.23570  0.39610  Biso   1.000  O
  O21      1.0000 0.05900  0.04250  0.86617  Biso   1.000  O
  O22      1.0000 0.44100  0.54250  0.63383  Biso   1.000  O
  O23      1.0000 0.94100  0.95750  0.13383  Biso   1.000  O
  O24      1.0000 0.55900  0.45750  0.36617  Biso   1.000  O
  O25      1.0000 0.84890  0.96492  0.86308  Biso   1.000  O
  O26      1.0000 0.65110  0.46492  0.63692  Biso   1.000  O
  O27      1.0000 0.15110  0.03508  0.13692  Biso   1.000  O
  O28      1.0000 0.34890  0.53508  0.36308  Biso   1.000  O
  O29      1.0000 0.42920  0.10311  0.08057  Biso   1.000  O
  O30      1.0000 0.07080  0.60311  0.41943  Biso   1.000  O
  O31      1.0000 0.57080  0.89689  0.91943  Biso   1.000  O
  O32      1.0000 0.92920  0.39689  0.58057  Biso   1.000  O
  O33      1.0000 0.65020  0.04890  0.08301  Biso   1.000  O
  O34      1.0000 0.84980  0.54890  0.41699  Biso   1.000  O
  O35      1.0000 0.34980  0.95110  0.91699  Biso   1.000  O
  O36      1.0000 0.15020  0.45110  0.58301  Biso   1.000  O
  O37      1.0000 0.29810  0.16340  0.91041  Biso   1.000  O
  O38      1.0000 0.20190  0.66340  0.58959  Biso   1.000  O
  O39      1.0000 0.70190  0.83660  0.08959  Biso   1.000  O
  O40      1.0000 0.79810  0.33660  0.41041  Biso   1.000  O
  H1       1.0000 0.25490  0.15610  0.86220  Biso   1.000  H
  H2       1.0000 0.24510  0.65610  0.63780  Biso   1.000  H
  H3       1.0000 0.74510  0.84390  0.13780  Biso   1.000  H
  H4       1.0000 0.75490  0.34390  0.36220  Biso   1.000  H
  H5       1.0000 0.38790  0.15990  0.91280  Biso   1.000  H
  H6       1.0000 0.11210  0.65990  0.58720  Biso   1.000  H
  H7       1.0000 0.61210  0.84010  0.08720  Biso   1.000  H
  H8       1.0000 0.88790  0.34010  0.41280  Biso   1.000  H
  N1       1.0000 0.79580  0.10060  0.58879  Biso   1.000  N
  N2       1.0000 0.70420  0.60060  0.91121  Biso   1.000  N
  N3       1.0000 0.20420  0.89940  0.41121  Biso   1.000  N
  N4       1.0000 0.29580  0.39940  0.08879  Biso   1.000  N
  N5       1.0000 0.66050  0.12120  0.36933  Biso   1.000  N
  N6       1.0000 0.83950  0.62120  0.13067  Biso   1.000  N
  N7       1.0000 0.33950  0.87880  0.63067  Biso   1.000  N
  N8       1.0000 0.16050  0.37880  0.86933  Biso   1.000  N
  C1       1.0000 0.99280  0.18640  0.02410  Biso   1.000  C
  C2       1.0000 0.50720  0.68640  0.47590  Biso   1.000  C
  C3       1.0000 0.00720  0.81360  0.97590  Biso   1.000  C
  C4       1.0000 0.49280  0.31360  0.52410  Biso   1.000  C
  C5       1.0000 0.88990  0.25140  0.05650  Biso   1.000  C
  C6       1.0000 0.61010  0.75140  0.44350  Biso   1.000  C
  C7       1.0000 0.11010  0.74860  0.94350  Biso   1.000  C
  C8       1.0000 0.38990  0.24860  0.55650  Biso   1.000  C
  C9       1.0000 0.74600  0.26240  0.01940  Biso   1.000  C
  C10      1.0000 0.75400  0.76240  0.48060  Biso   1.000  C
  C11      1.0000 0.25400  0.73760  0.98060  Biso   1.000  C
  C12      1.0000 0.24600  0.23760  0.51940  Biso   1.000  C
  C13      1.0000 0.65460  0.31690  0.05680  Biso   1.000  C
  C14      1.0000 0.84540  0.81690  0.44320  Biso   1.000  C
  C15      1.0000 0.34540  0.68310  0.94320  Biso   1.000  C
  C16      1.0000 0.15460  0.18310  0.55680  Biso   1.000  C
  H9       1.0000 0.55930  0.32520  0.03210  Biso   1.000  H
  H10      1.0000 0.94070  0.82520  0.46790  Biso   1.000  H
  H11      1.0000 0.44070  0.67480  0.96790  Biso   1.000  H
  H12      1.0000 0.05930  0.17480  0.53210  Biso   1.000  H
  C17      1.0000 0.70580  0.35900  0.13110  Biso   1.000  C
  C18      1.0000 0.79420  0.85900  0.36890  Biso   1.000  C
  C19      1.0000 0.29420  0.64100  0.86890  Biso   1.000  C
  C20      1.0000 0.20580  0.14100  0.63110  Biso   1.000  C
  H13      1.0000 0.64380  0.39400  0.15660  Biso   1.000  H
  H14      1.0000 0.85620  0.89400  0.34340  Biso   1.000  H
  H15      1.0000 0.35620  0.60600  0.84340  Biso   1.000  H
  H16      1.0000 0.14380  0.10600  0.65660  Biso   1.000  H
  C21      1.0000 0.84880  0.34940  0.16770  Biso   1.000  C
  C22      1.0000 0.65120  0.84940  0.33230  Biso   1.000  C
  C23      1.0000 0.15120  0.65060  0.83230  Biso   1.000  C
  C24      1.0000 0.34880  0.15060  0.66770  Biso   1.000  C
  H17      1.0000 0.88280  0.37870  0.21700  Biso   1.000  H
  H18      1.0000 0.61720  0.87870  0.28300  Biso   1.000  H
  H19      1.0000 0.11720  0.62130  0.78300  Biso   1.000  H
  H20      1.0000 0.38280  0.12130  0.71700  Biso   1.000  H
  C25      1.0000 0.94100  0.29560  0.13010  Biso   1.000  C
  C26      1.0000 0.55900  0.79560  0.36990  Biso   1.000  C
  C27      1.0000 0.05900  0.70440  0.86990  Biso   1.000  C
  C28      1.0000 0.44100  0.20440  0.63010  Biso   1.000  C
  H21      1.0000 0.03690  0.28930  0.15420  Biso   1.000  H
  H22      1.0000 0.46310  0.78930  0.34580  Biso   1.000  H
  H23      1.0000 0.96310  0.71070  0.84580  Biso   1.000  H
  H24      1.0000 0.53690  0.21070  0.65420  Biso   1.000  H
  C29      1.0000 0.93570  0.01410  0.83280  Biso   1.000  C
  C30      1.0000 0.56430  0.51410  0.66720  Biso   1.000  C
  C31      1.0000 0.06430  0.98590  0.16720  Biso   1.000  C
  C32      1.0000 0.43570  0.48590  0.33280  Biso   1.000  C
  C33      1.0000 0.88870  0.04310  0.74700  Biso   1.000  C
  C34      1.0000 0.61130  0.54310  0.75300  Biso   1.000  C
  C35      1.0000 0.11130  0.95690  0.25300  Biso   1.000  C
  C36      1.0000 0.38870  0.45690  0.24700  Biso   1.000  C
  C37      1.0000 0.88450  0.14170  0.72490  Biso   1.000  C
  C38      1.0000 0.61550  0.64170  0.77510  Biso   1.000  C
  C39      1.0000 0.11550  0.85830  0.27510  Biso   1.000  C
  C40      1.0000 0.38450  0.35830  0.22490  Biso   1.000  C
  H25      1.0000 0.91380  0.19040  0.76310  Biso   1.000  H
  H26      1.0000 0.58620  0.69040  0.73690  Biso   1.000  H
  H27      1.0000 0.08620  0.80960  0.23690  Biso   1.000  H
  H28      1.0000 0.41380  0.30960  0.26310  Biso   1.000  H
  C41      1.0000 0.83680  0.16730  0.64650  Biso   1.000  C
  C42      1.0000 0.66320  0.66730  0.85350  Biso   1.000  C
  C43      1.0000 0.16320  0.83270  0.35350  Biso   1.000  C
  C44      1.0000 0.33680  0.33270  0.14650  Biso   1.000  C
  H29      1.0000 0.83290  0.23410  0.63290  Biso   1.000  H
  H30      1.0000 0.66710  0.73410  0.86710  Biso   1.000  H
  H31      1.0000 0.16710  0.76590  0.36710  Biso   1.000  H
  H32      1.0000 0.33290  0.26590  0.13290  Biso   1.000  H
  C45      1.0000 0.80450  0.00490  0.61060  Biso   1.000  C
  C46      1.0000 0.69550  0.50490  0.88940  Biso   1.000  C
  C47      1.0000 0.19550  0.99510  0.38940  Biso   1.000  C
  C48      1.0000 0.30450  0.49510  0.11060  Biso   1.000  C
  H33      1.0000 0.77960  0.95720  0.57100  Biso   1.000  H
  H34      1.0000 0.72040  0.45720  0.92900  Biso   1.000  H
  H35      1.0000 0.22040  0.04280  0.42900  Biso   1.000  H
  H36      1.0000 0.27960  0.54280  0.07100  Biso   1.000  H
  C49      1.0000 0.84790  0.97380  0.68790  Biso   1.000  C
  C50      1.0000 0.65210  0.47380  0.81210  Biso   1.000  C
  C51      1.0000 0.15210  0.02620  0.31210  Biso   1.000  C
  C52      1.0000 0.34790  0.52620  0.18790  Biso   1.000  C
  H37      1.0000 0.84990  0.90670  0.70020  Biso   1.000  H
  H38      1.0000 0.65010  0.40670  0.79980  Biso   1.000  H
  H39      1.0000 0.15010  0.09330  0.29980  Biso   1.000  H
  H40      1.0000 0.34990  0.59330  0.20020  Biso   1.000  H
  C53      1.0000 0.55320  0.08110  0.11490  Biso   1.000  C
  C54      1.0000 0.94680  0.58110  0.38510  Biso   1.000  C
  C55      1.0000 0.44680  0.91890  0.88510  Biso   1.000  C
  C56      1.0000 0.05320  0.41890  0.61490  Biso   1.000  C
  C57      1.0000 0.58940  0.09510  0.20400  Biso   1.000  C
  C58      1.0000 0.91060  0.59510  0.29600  Biso   1.000  C
  C59      1.0000 0.41060  0.90490  0.79600  Biso   1.000  C
  C60      1.0000 0.08940  0.40490  0.70400  Biso   1.000  C
  C61      1.0000 0.48430  0.10060  0.24920  Biso   1.000  C
  C62      1.0000 0.01570  0.60060  0.25080  Biso   1.000  C
  C63      1.0000 0.51570  0.89940  0.75080  Biso   1.000  C
  C64      1.0000 0.98430  0.39940  0.74920  Biso   1.000  C
  H41      1.0000 0.38830  0.09560  0.22490  Biso   1.000  H
  H42      1.0000 0.11170  0.59560  0.27510  Biso   1.000  H
  H43      1.0000 0.61170  0.90440  0.77510  Biso   1.000  H
  H44      1.0000 0.88830  0.40440  0.72490  Biso   1.000  H
  C65      1.0000 0.52360  0.11360  0.33070  Biso   1.000  C
  C66      1.0000 0.97640  0.61360  0.16930  Biso   1.000  C
  C67      1.0000 0.47640  0.88640  0.66930  Biso   1.000  C
  C68      1.0000 0.02360  0.38640  0.83070  Biso   1.000  C
  H45      1.0000 0.45190  0.11740  0.36040  Biso   1.000  H
  H46      1.0000 0.04810  0.61740  0.13960  Biso   1.000  H
  H47      1.0000 0.54810  0.88260  0.63960  Biso   1.000  H
  H48      1.0000 0.95190  0.38260  0.86040  Biso   1.000  H
  C69      1.0000 0.76250  0.11480  0.32450  Biso   1.000  C
  C70      1.0000 0.73750  0.61480  0.17550  Biso   1.000  C
  C71      1.0000 0.23750  0.88520  0.67550  Biso   1.000  C
  C72      1.0000 0.26250  0.38520  0.82450  Biso   1.000  C
  H49      1.0000 0.85790  0.11940  0.35010  Biso   1.000  H
  H50      1.0000 0.64210  0.61940  0.14990  Biso   1.000  H
  H51      1.0000 0.14210  0.88060  0.64990  Biso   1.000  H
  H52      1.0000 0.35790  0.38060  0.85010  Biso   1.000  H
  C73      1.0000 0.73160  0.10180  0.24330  Biso   1.000  C
  C74      1.0000 0.76840  0.60180  0.25670  Biso   1.000  C
  C75      1.0000 0.26840  0.89820  0.75670  Biso   1.000  C
  C76      1.0000 0.23160  0.39820  0.74330  Biso   1.000  C
  H53      1.0000 0.80500  0.09760  0.21480  Biso   1.000  H
  H54      1.0000 0.69500  0.59760  0.28520  Biso   1.000  H
  H55      1.0000 0.19500  0.90240  0.78520  Biso   1.000  H
  H56      1.0000 0.30500  0.40240  0.71480  Biso   1.000  H
