data_image0
_cell_length_a       9.5893
_cell_length_b       13.5647
_cell_length_c       17.1549
_cell_angle_alpha    90
_cell_angle_beta     101.129
_cell_angle_gamma    90

_symmetry_space_group_name_H-M    "P 1"
_symmetry_int_tables_number       1

loop_
  _symmetry_equiv_pos_as_xyz
  'x, y, z'

loop_
  _atom_site_label
  _atom_site_occupancy
  _atom_site_fract_x
  _atom_site_fract_y
  _atom_site_fract_z
  _atom_site_thermal_displace_type
  _atom_site_B_iso_or_equiv
  _atom_site_type_symbol
  La1      1.0000 0.71617  0.96355  0.50153  Biso   1.000  La
  La2      1.0000 0.78383  0.46355  0.99847  Biso   1.000  La
  La3      1.0000 0.28383  0.03645  0.49847  Biso   1.000  La
  La4      1.0000 0.21617  0.53645  0.00153  Biso   1.000  La
  Cu1      1.0000 0.71253  0.63571  0.48222  Biso   1.000  Cu
  Cu2      1.0000 0.78747  0.13571  0.01778  Biso   1.000  Cu
  Cu3      1.0000 0.28747  0.36429  0.51778  Biso   1.000  Cu
  Cu4      1.0000 0.21253  0.86429  0.98222  Biso   1.000  Cu
  S1       1.0000 0.17889  0.78246  0.42044  Biso   1.000  S
  S2       1.0000 0.32111  0.28246  0.07956  Biso   1.000  S
  S3       1.0000 0.82111  0.21754  0.57956  Biso   1.000  S
  S4       1.0000 0.67889  0.71754  0.92044  Biso   1.000  S
  O1       1.0000 0.45290  0.89831  0.50141  Biso   1.000  O
  O2       1.0000 0.04710  0.39831  0.99859  Biso   1.000  O
  O3       1.0000 0.54710  0.10169  0.49859  Biso   1.000  O
  O4       1.0000 0.95290  0.60169  0.00141  Biso   1.000  O
  O5       1.0000 0.61520  0.78225  0.52225  Biso   1.000  O
  O6       1.0000 0.88480  0.28225  0.97775  Biso   1.000  O
  O7       1.0000 0.38480  0.21775  0.47775  Biso   1.000  O
  O8       1.0000 0.11520  0.71775  0.02225  Biso   1.000  O
  O9       1.0000 0.16090  0.88890  0.42462  Biso   1.000  O
  O10      1.0000 0.33910  0.38890  0.07538  Biso   1.000  O
  O11      1.0000 0.83910  0.11110  0.57538  Biso   1.000  O
  O12      1.0000 0.66090  0.61110  0.92462  Biso   1.000  O
  O13      1.0000 0.28330  0.75300  0.37490  Biso   1.000  O
  O14      1.0000 0.21670  0.25300  0.12510  Biso   1.000  O
  O15      1.0000 0.71670  0.24700  0.62510  Biso   1.000  O
  O16      1.0000 0.78330  0.74700  0.87490  Biso   1.000  O
  O17      1.0000 0.04120  0.73490  0.39570  Biso   1.000  O
  O18      1.0000 0.45880  0.23490  0.10430  Biso   1.000  O
  O19      1.0000 0.95880  0.26510  0.60430  Biso   1.000  O
  O20      1.0000 0.54120  0.76510  0.89570  Biso   1.000  O
  O21      1.0000 0.64990  0.96296  0.63787  Biso   1.000  O
  O22      1.0000 0.85010  0.46296  0.86213  Biso   1.000  O
  O23      1.0000 0.35010  0.03704  0.36213  Biso   1.000  O
  O24      1.0000 0.14990  0.53704  0.13787  Biso   1.000  O
  O25      1.0000 0.44170  0.04136  0.63550  Biso   1.000  O
  O26      1.0000 0.05830  0.54136  0.86450  Biso   1.000  O
  O27      1.0000 0.55830  0.95864  0.36450  Biso   1.000  O
  O28      1.0000 0.94170  0.45864  0.13550  Biso   1.000  O
  O29      1.0000 0.93030  0.89389  0.58217  Biso   1.000  O
  O30      1.0000 0.56970  0.39389  0.91783  Biso   1.000  O
  O31      1.0000 0.06970  0.10611  0.41783  Biso   1.000  O
  O32      1.0000 0.43030  0.60611  0.08217  Biso   1.000  O
  O33      1.0000 0.14940  0.94899  0.58473  Biso   1.000  O
  O34      1.0000 0.35060  0.44899  0.91527  Biso   1.000  O
  O35      1.0000 0.85060  0.05101  0.41527  Biso   1.000  O
  O36      1.0000 0.64940  0.55101  0.08473  Biso   1.000  O
  O37      1.0000 0.79910  0.83610  0.40801  Biso   1.000  O
  O38      1.0000 0.70090  0.33610  0.09199  Biso   1.000  O
  O39      1.0000 0.20090  0.16390  0.59199  Biso   1.000  O
  O40      1.0000 0.29910  0.66390  0.90801  Biso   1.000  O
  H1       1.0000 0.88820  0.83950  0.40990  Biso   1.000  H
  H2       1.0000 0.61180  0.33950  0.09010  Biso   1.000  H
  H3       1.0000 0.11180  0.16050  0.59010  Biso   1.000  H
  H4       1.0000 0.38820  0.66050  0.90990  Biso   1.000  H
  H5       1.0000 0.75560  0.84350  0.36030  Biso   1.000  H
  H6       1.0000 0.74440  0.34350  0.13970  Biso   1.000  H
  H7       1.0000 0.24440  0.15650  0.63970  Biso   1.000  H
  H8       1.0000 0.25560  0.65650  0.86030  Biso   1.000  H
  N1       1.0000 0.70610  0.09910  0.91109  Biso   1.000  N
  N2       1.0000 0.79390  0.59910  0.58891  Biso   1.000  N
  N3       1.0000 0.29390  0.90090  0.08891  Biso   1.000  N
  N4       1.0000 0.20610  0.40090  0.41109  Biso   1.000  N
  N5       1.0000 0.16050  0.87960  0.87002  Biso   1.000  N
  N6       1.0000 0.33950  0.37960  0.62998  Biso   1.000  N
  N7       1.0000 0.83950  0.12040  0.12998  Biso   1.000  N
  N8       1.0000 0.66050  0.62040  0.37002  Biso   1.000  N
  C1       1.0000 0.49130  0.81170  0.52236  Biso   1.000  C
  C2       1.0000 0.00870  0.31170  0.97764  Biso   1.000  C
  C3       1.0000 0.50870  0.18830  0.47764  Biso   1.000  C
  C4       1.0000 0.99130  0.68830  0.02236  Biso   1.000  C
  C5       1.0000 0.38820  0.74770  0.55540  Biso   1.000  C
  C6       1.0000 0.11180  0.24770  0.94460  Biso   1.000  C
  C7       1.0000 0.61180  0.25230  0.44460  Biso   1.000  C
  C8       1.0000 0.88820  0.75230  0.05540  Biso   1.000  C
  C9       1.0000 0.24590  0.73710  0.51890  Biso   1.000  C
  C10      1.0000 0.25410  0.23710  0.98110  Biso   1.000  C
  C11      1.0000 0.75410  0.26290  0.48110  Biso   1.000  C
  C12      1.0000 0.74590  0.76290  0.01890  Biso   1.000  C
  C13      1.0000 0.15410  0.68390  0.55640  Biso   1.000  C
  C14      1.0000 0.34590  0.18390  0.94360  Biso   1.000  C
  C15      1.0000 0.84590  0.31610  0.44360  Biso   1.000  C
  C16      1.0000 0.65410  0.81610  0.05640  Biso   1.000  C
  H9       1.0000 0.05910  0.67650  0.53230  Biso   1.000  H
  H10      1.0000 0.44090  0.17650  0.96770  Biso   1.000  H
  H11      1.0000 0.94090  0.32350  0.46770  Biso   1.000  H
  H12      1.0000 0.55910  0.82350  0.03230  Biso   1.000  H
  C17      1.0000 0.20480  0.64210  0.62980  Biso   1.000  C
  C18      1.0000 0.29520  0.14210  0.87020  Biso   1.000  C
  C19      1.0000 0.79520  0.35790  0.37020  Biso   1.000  C
  C20      1.0000 0.70480  0.85790  0.12980  Biso   1.000  C
  H13      1.0000 0.14280  0.60740  0.65520  Biso   1.000  H
  H14      1.0000 0.35720  0.10740  0.84480  Biso   1.000  H
  H15      1.0000 0.85720  0.39260  0.34480  Biso   1.000  H
  H16      1.0000 0.64280  0.89260  0.15520  Biso   1.000  H
  C21      1.0000 0.34680  0.65100  0.66640  Biso   1.000  C
  C22      1.0000 0.15320  0.15100  0.83360  Biso   1.000  C
  C23      1.0000 0.65320  0.34900  0.33360  Biso   1.000  C
  C24      1.0000 0.84680  0.84900  0.16640  Biso   1.000  C
  H17      1.0000 0.37990  0.62210  0.71570  Biso   1.000  H
  H18      1.0000 0.12010  0.12210  0.78430  Biso   1.000  H
  H19      1.0000 0.62010  0.37790  0.28430  Biso   1.000  H
  H20      1.0000 0.87990  0.87790  0.21570  Biso   1.000  H
  C25      1.0000 0.43850  0.70350  0.62830  Biso   1.000  C
  C26      1.0000 0.06150  0.20350  0.87170  Biso   1.000  C
  C27      1.0000 0.56150  0.29650  0.37170  Biso   1.000  C
  C28      1.0000 0.93850  0.79650  0.12830  Biso   1.000  C
  H21      1.0000 0.53410  0.70910  0.65180  Biso   1.000  H
  H22      1.0000 0.96590  0.20910  0.84820  Biso   1.000  H
  H23      1.0000 0.46590  0.29090  0.34820  Biso   1.000  H
  H24      1.0000 0.03410  0.79090  0.15180  Biso   1.000  H
  C29      1.0000 0.56400  0.01250  0.66815  Biso   1.000  C
  C30      1.0000 0.93600  0.51250  0.83185  Biso   1.000  C
  C31      1.0000 0.43600  0.98750  0.33185  Biso   1.000  C
  C32      1.0000 0.06400  0.48750  0.16815  Biso   1.000  C
  C33      1.0000 0.61220  0.04190  0.75374  Biso   1.000  C
  C34      1.0000 0.88780  0.54190  0.74626  Biso   1.000  C
  C35      1.0000 0.38780  0.95810  0.24626  Biso   1.000  C
  C36      1.0000 0.11220  0.45810  0.25374  Biso   1.000  C
  C37      1.0000 0.61690  0.14040  0.77564  Biso   1.000  C
  C38      1.0000 0.88310  0.64040  0.72436  Biso   1.000  C
  C39      1.0000 0.38310  0.85960  0.22436  Biso   1.000  C
  C40      1.0000 0.11690  0.35960  0.27564  Biso   1.000  C
  H25      1.0000 0.58730  0.18880  0.73770  Biso   1.000  H
  H26      1.0000 0.91270  0.68880  0.76230  Biso   1.000  H
  H27      1.0000 0.41270  0.81120  0.26230  Biso   1.000  H
  H28      1.0000 0.08730  0.31120  0.23770  Biso   1.000  H
  C41      1.0000 0.66570  0.16630  0.85406  Biso   1.000  C
  C42      1.0000 0.83430  0.66630  0.64594  Biso   1.000  C
  C43      1.0000 0.33430  0.83370  0.14594  Biso   1.000  C
  C44      1.0000 0.16570  0.33370  0.35406  Biso   1.000  C
  H29      1.0000 0.67070  0.23280  0.86770  Biso   1.000  H
  H30      1.0000 0.82930  0.73280  0.63230  Biso   1.000  H
  H31      1.0000 0.32930  0.76720  0.13230  Biso   1.000  H
  H32      1.0000 0.17070  0.26720  0.36770  Biso   1.000  H
  C45      1.0000 0.69690  0.00390  0.88970  Biso   1.000  C
  C46      1.0000 0.80310  0.50390  0.61030  Biso   1.000  C
  C47      1.0000 0.30310  0.99610  0.11030  Biso   1.000  C
  C48      1.0000 0.19690  0.49610  0.38970  Biso   1.000  C
  H33      1.0000 0.72130  0.95640  0.92910  Biso   1.000  H
  H34      1.0000 0.77870  0.45640  0.57090  Biso   1.000  H
  H35      1.0000 0.27870  0.04360  0.07090  Biso   1.000  H
  H36      1.0000 0.22130  0.54360  0.42910  Biso   1.000  H
  C49      1.0000 0.65300  0.97280  0.81250  Biso   1.000  C
  C50      1.0000 0.84700  0.47280  0.68750  Biso   1.000  C
  C51      1.0000 0.34700  0.02720  0.18750  Biso   1.000  C
  C52      1.0000 0.15300  0.52720  0.31250  Biso   1.000  C
  H37      1.0000 0.65100  0.90600  0.80020  Biso   1.000  H
  H38      1.0000 0.84900  0.40600  0.69980  Biso   1.000  H
  H39      1.0000 0.34900  0.09400  0.19980  Biso   1.000  H
  H40      1.0000 0.15100  0.59400  0.30020  Biso   1.000  H
  C53      1.0000 0.05420  0.91700  0.61676  Biso   1.000  C
  C54      1.0000 0.44580  0.41700  0.88324  Biso   1.000  C
  C55      1.0000 0.94580  0.08300  0.38324  Biso   1.000  C
  C56      1.0000 0.55420  0.58300  0.11676  Biso   1.000  C
  C57      1.0000 0.09000  0.90340  0.70583  Biso   1.000  C
  C58      1.0000 0.41000  0.40340  0.79417  Biso   1.000  C
  C59      1.0000 0.91000  0.09660  0.29417  Biso   1.000  C
  C60      1.0000 0.59000  0.59660  0.20583  Biso   1.000  C
  C61      1.0000 0.98520  0.89650  0.75050  Biso   1.000  C
  C62      1.0000 0.51480  0.39650  0.74950  Biso   1.000  C
  C63      1.0000 0.01480  0.10350  0.24950  Biso   1.000  C
  C64      1.0000 0.48520  0.60350  0.25050  Biso   1.000  C
  H41      1.0000 0.88980  0.89960  0.72620  Biso   1.000  H
  H42      1.0000 0.61020  0.39960  0.77380  Biso   1.000  H
  H43      1.0000 0.11020  0.10040  0.27380  Biso   1.000  H
  H44      1.0000 0.38980  0.60040  0.22620  Biso   1.000  H
  C65      1.0000 0.02400  0.88480  0.83210  Biso   1.000  C
  C66      1.0000 0.47600  0.38480  0.66790  Biso   1.000  C
  C67      1.0000 0.97600  0.11520  0.16790  Biso   1.000  C
  C68      1.0000 0.52400  0.61520  0.33210  Biso   1.000  C
  H45      1.0000 0.95280  0.88030  0.86180  Biso   1.000  H
  H46      1.0000 0.54720  0.38030  0.63820  Biso   1.000  H
  H47      1.0000 0.04720  0.11970  0.13820  Biso   1.000  H
  H48      1.0000 0.45280  0.61970  0.36180  Biso   1.000  H
  C69      1.0000 0.26170  0.88700  0.82610  Biso   1.000  C
  C70      1.0000 0.23830  0.38700  0.67390  Biso   1.000  C
  C71      1.0000 0.73830  0.11300  0.17390  Biso   1.000  C
  C72      1.0000 0.76170  0.61300  0.32610  Biso   1.000  C
  H49      1.0000 0.35640  0.88390  0.85160  Biso   1.000  H
  H50      1.0000 0.14360  0.38390  0.64840  Biso   1.000  H
  H51      1.0000 0.64360  0.11610  0.14840  Biso   1.000  H
  H52      1.0000 0.85640  0.61610  0.35160  Biso   1.000  H
  C73      1.0000 0.23160  0.89910  0.74479  Biso   1.000  C
  C74      1.0000 0.26840  0.39910  0.75521  Biso   1.000  C
  C75      1.0000 0.76840  0.10090  0.25521  Biso   1.000  C
  C76      1.0000 0.73160  0.60090  0.24479  Biso   1.000  C
  H53      1.0000 0.30460  0.90420  0.71640  Biso   1.000  H
  H54      1.0000 0.19540  0.40420  0.78360  Biso   1.000  H
  H55      1.0000 0.69540  0.09580  0.28360  Biso   1.000  H
  H56      1.0000 0.80460  0.59580  0.21640  Biso   1.000  H
