data_image0
_cell_length_a       9.4978
_cell_length_b       13.4972
_cell_length_c       17.0539
_cell_angle_alpha    90
_cell_angle_beta     101.239
_cell_angle_gamma    90

_symmetry_space_group_name_H-M    "P 1"
_symmetry_int_tables_number       1

loop_
  _symmetry_equiv_pos_as_xyz
  'x, y, z'

loop_
  _atom_site_label
  _atom_site_occupancy
  _atom_site_fract_x
  _atom_site_fract_y
  _atom_site_fract_z
  _atom_site_thermal_displace_type
  _atom_site_B_iso_or_equiv
  _atom_site_type_symbol
  Nd1      1.0000 0.28531  0.03551  0.49798  Biso   1.000  Nd
  Nd2      1.0000 0.21469  0.53551  0.00202  Biso   1.000  Nd
  Nd3      1.0000 0.71469  0.96449  0.50202  Biso   1.000  Nd
  Nd4      1.0000 0.78531  0.46449  0.99798  Biso   1.000  Nd
  Cu1      1.0000 0.28591  0.36178  0.51854  Biso   1.000  Cu
  Cu2      1.0000 0.21409  0.86178  0.98146  Biso   1.000  Cu
  Cu3      1.0000 0.71409  0.63822  0.48146  Biso   1.000  Cu
  Cu4      1.0000 0.78591  0.13822  0.01854  Biso   1.000  Cu
  S1       1.0000 0.81986  0.21649  0.57875  Biso   1.000  S
  S2       1.0000 0.68014  0.71649  0.92125  Biso   1.000  S
  S3       1.0000 0.18014  0.78351  0.42125  Biso   1.000  S
  S4       1.0000 0.31986  0.28351  0.07875  Biso   1.000  S
  O1       1.0000 0.54640  0.09920  0.49700  Biso   1.000  O
  O2       1.0000 0.95360  0.59920  0.00300  Biso   1.000  O
  O3       1.0000 0.45360  0.90080  0.50300  Biso   1.000  O
  O4       1.0000 0.04640  0.40080  0.99700  Biso   1.000  O
  O5       1.0000 0.38030  0.21370  0.47530  Biso   1.000  O
  O6       1.0000 0.11970  0.71370  0.02470  Biso   1.000  O
  O7       1.0000 0.61970  0.78630  0.52470  Biso   1.000  O
  O8       1.0000 0.88030  0.28630  0.97530  Biso   1.000  O
  O9       1.0000 0.83770  0.10970  0.57420  Biso   1.000  O
  O10      1.0000 0.66230  0.60970  0.92580  Biso   1.000  O
  O11      1.0000 0.16230  0.89030  0.42580  Biso   1.000  O
  O12      1.0000 0.33770  0.39030  0.07420  Biso   1.000  O
  O13      1.0000 0.71480  0.24640  0.62450  Biso   1.000  O
  O14      1.0000 0.78520  0.74640  0.87550  Biso   1.000  O
  O15      1.0000 0.28520  0.75360  0.37550  Biso   1.000  O
  O16      1.0000 0.21480  0.25360  0.12450  Biso   1.000  O
  O17      1.0000 0.95850  0.26370  0.60360  Biso   1.000  O
  O18      1.0000 0.54150  0.76370  0.89640  Biso   1.000  O
  O19      1.0000 0.04150  0.73630  0.39640  Biso   1.000  O
  O20      1.0000 0.45850  0.23630  0.10360  Biso   1.000  O
  O21      1.0000 0.44060  0.04320  0.63320  Biso   1.000  O
  O22      1.0000 0.05940  0.54320  0.86680  Biso   1.000  O
  O23      1.0000 0.55940  0.95680  0.36680  Biso   1.000  O
  O24      1.0000 0.94060  0.45680  0.13320  Biso   1.000  O
  O25      1.0000 0.65120  0.96540  0.63690  Biso   1.000  O
  O26      1.0000 0.84880  0.46540  0.86310  Biso   1.000  O
  O27      1.0000 0.34880  0.03460  0.36310  Biso   1.000  O
  O28      1.0000 0.15120  0.53460  0.13690  Biso   1.000  O
  O29      1.0000 0.07120  0.10200  0.42030  Biso   1.000  O
  O30      1.0000 0.42880  0.60200  0.07970  Biso   1.000  O
  O31      1.0000 0.92880  0.89800  0.57970  Biso   1.000  O
  O32      1.0000 0.57120  0.39800  0.92030  Biso   1.000  O
  O33      1.0000 0.84950  0.04830  0.41720  Biso   1.000  O
  O34      1.0000 0.65050  0.54830  0.08280  Biso   1.000  O
  O35      1.0000 0.15050  0.95170  0.58280  Biso   1.000  O
  O36      1.0000 0.34950  0.45170  0.91720  Biso   1.000  O
  O37      1.0000 0.20360  0.16260  0.58850  Biso   1.000  O
  O38      1.0000 0.29640  0.66260  0.91150  Biso   1.000  O
  O39      1.0000 0.79640  0.83740  0.41150  Biso   1.000  O
  O40      1.0000 0.70360  0.33740  0.08850  Biso   1.000  O
  H1       1.0000 0.24710  0.15520  0.63660  Biso   1.000  H
  H2       1.0000 0.25290  0.65520  0.86340  Biso   1.000  H
  H3       1.0000 0.75290  0.84480  0.36340  Biso   1.000  H
  H4       1.0000 0.74710  0.34480  0.13660  Biso   1.000  H
  H5       1.0000 0.11360  0.15890  0.58650  Biso   1.000  H
  H6       1.0000 0.38640  0.65890  0.91350  Biso   1.000  H
  H7       1.0000 0.88640  0.84110  0.41350  Biso   1.000  H
  H8       1.0000 0.61360  0.34110  0.08650  Biso   1.000  H
  N1       1.0000 0.70350  0.10130  0.91130  Biso   1.000  N
  N2       1.0000 0.79650  0.60130  0.58870  Biso   1.000  N
  N3       1.0000 0.29650  0.89870  0.08870  Biso   1.000  N
  N4       1.0000 0.20350  0.39870  0.41130  Biso   1.000  N
  N5       1.0000 0.83950  0.12150  0.13140  Biso   1.000  N
  N6       1.0000 0.66050  0.62150  0.36860  Biso   1.000  N
  N7       1.0000 0.16050  0.87850  0.86860  Biso   1.000  N
  N8       1.0000 0.33950  0.37850  0.63140  Biso   1.000  N
  C1       1.0000 0.50600  0.18560  0.47540  Biso   1.000  C
  C2       1.0000 0.99400  0.68560  0.02460  Biso   1.000  C
  C3       1.0000 0.49400  0.81440  0.52460  Biso   1.000  C
  C4       1.0000 0.00600  0.31440  0.97540  Biso   1.000  C
  C5       1.0000 0.60850  0.25090  0.44250  Biso   1.000  C
  C6       1.0000 0.89150  0.75090  0.05750  Biso   1.000  C
  C7       1.0000 0.39150  0.74910  0.55750  Biso   1.000  C
  C8       1.0000 0.10850  0.24910  0.94250  Biso   1.000  C
  C9       1.0000 0.75190  0.26230  0.47940  Biso   1.000  C
  C10      1.0000 0.74810  0.76230  0.02060  Biso   1.000  C
  C11      1.0000 0.24810  0.73770  0.52060  Biso   1.000  C
  C12      1.0000 0.25190  0.23770  0.97940  Biso   1.000  C
  C13      1.0000 0.84380  0.31690  0.44180  Biso   1.000  C
  C14      1.0000 0.65620  0.81690  0.05820  Biso   1.000  C
  C15      1.0000 0.15620  0.68310  0.55820  Biso   1.000  C
  C16      1.0000 0.34380  0.18310  0.94180  Biso   1.000  C
  H9       1.0000 0.93980  0.32440  0.46600  Biso   1.000  H
  H10      1.0000 0.56020  0.82440  0.03400  Biso   1.000  H
  H11      1.0000 0.06020  0.67560  0.53400  Biso   1.000  H
  H12      1.0000 0.43980  0.17560  0.96600  Biso   1.000  H
  C17      1.0000 0.79220  0.35960  0.36880  Biso   1.000  C
  C18      1.0000 0.70780  0.85960  0.13120  Biso   1.000  C
  C19      1.0000 0.20780  0.64040  0.63120  Biso   1.000  C
  C20      1.0000 0.29220  0.14040  0.86880  Biso   1.000  C
  H13      1.0000 0.85430  0.39570  0.34370  Biso   1.000  H
  H14      1.0000 0.64570  0.89570  0.15630  Biso   1.000  H
  H15      1.0000 0.14570  0.60430  0.65630  Biso   1.000  H
  H16      1.0000 0.35430  0.10430  0.84370  Biso   1.000  H
  C21      1.0000 0.65040  0.35010  0.33170  Biso   1.000  C
  C22      1.0000 0.84960  0.85010  0.16830  Biso   1.000  C
  C23      1.0000 0.34960  0.64990  0.66830  Biso   1.000  C
  C24      1.0000 0.15040  0.14990  0.83170  Biso   1.000  C
  H17      1.0000 0.61670  0.38000  0.28250  Biso   1.000  H
  H18      1.0000 0.88330  0.88000  0.21750  Biso   1.000  H
  H19      1.0000 0.38330  0.62000  0.71750  Biso   1.000  H
  H20      1.0000 0.11670  0.12000  0.78250  Biso   1.000  H
  C25      1.0000 0.55850  0.29530  0.36890  Biso   1.000  C
  C26      1.0000 0.94150  0.79530  0.13110  Biso   1.000  C
  C27      1.0000 0.44150  0.70470  0.63110  Biso   1.000  C
  C28      1.0000 0.05850  0.20470  0.86890  Biso   1.000  C
  H21      1.0000 0.46270  0.28830  0.34440  Biso   1.000  H
  H22      1.0000 0.03730  0.78830  0.15560  Biso   1.000  H
  H23      1.0000 0.53730  0.71170  0.65560  Biso   1.000  H
  H24      1.0000 0.96270  0.21170  0.84440  Biso   1.000  H
  C29      1.0000 0.56450  0.01470  0.66690  Biso   1.000  C
  C30      1.0000 0.93550  0.51470  0.83310  Biso   1.000  C
  C31      1.0000 0.43550  0.98530  0.33310  Biso   1.000  C
  C32      1.0000 0.06450  0.48530  0.16690  Biso   1.000  C
  C33      1.0000 0.61040  0.04390  0.75270  Biso   1.000  C
  C34      1.0000 0.88960  0.54390  0.74730  Biso   1.000  C
  C35      1.0000 0.38960  0.95610  0.24730  Biso   1.000  C
  C36      1.0000 0.11040  0.45610  0.25270  Biso   1.000  C
  C37      1.0000 0.61360  0.14220  0.77530  Biso   1.000  C
  C38      1.0000 0.88640  0.64220  0.72470  Biso   1.000  C
  C39      1.0000 0.38640  0.85780  0.22470  Biso   1.000  C
  C40      1.0000 0.11360  0.35780  0.27530  Biso   1.000  C
  H25      1.0000 0.58230  0.19090  0.73730  Biso   1.000  H
  H26      1.0000 0.91770  0.69090  0.76270  Biso   1.000  H
  H27      1.0000 0.41770  0.80910  0.26270  Biso   1.000  H
  H28      1.0000 0.08230  0.30910  0.23730  Biso   1.000  H
  C41      1.0000 0.66270  0.16840  0.85370  Biso   1.000  C
  C42      1.0000 0.83730  0.66840  0.64630  Biso   1.000  C
  C43      1.0000 0.33730  0.83160  0.14630  Biso   1.000  C
  C44      1.0000 0.16270  0.33160  0.35370  Biso   1.000  C
  H29      1.0000 0.66770  0.23520  0.86710  Biso   1.000  H
  H30      1.0000 0.83230  0.73520  0.63290  Biso   1.000  H
  H31      1.0000 0.33230  0.76480  0.13290  Biso   1.000  H
  H32      1.0000 0.16770  0.26480  0.36710  Biso   1.000  H
  C45      1.0000 0.69640  0.00540  0.88960  Biso   1.000  C
  C46      1.0000 0.80360  0.50540  0.61040  Biso   1.000  C
  C47      1.0000 0.30360  0.99460  0.11040  Biso   1.000  C
  C48      1.0000 0.19640  0.49460  0.38960  Biso   1.000  C
  H33      1.0000 0.72220  0.95770  0.92920  Biso   1.000  H
  H34      1.0000 0.77780  0.45770  0.57080  Biso   1.000  H
  H35      1.0000 0.27780  0.04230  0.07080  Biso   1.000  H
  H36      1.0000 0.22220  0.54230  0.42920  Biso   1.000  H
  C49      1.0000 0.65290  0.97430  0.81200  Biso   1.000  C
  C50      1.0000 0.84710  0.47430  0.68800  Biso   1.000  C
  C51      1.0000 0.34710  0.02570  0.18800  Biso   1.000  C
  C52      1.0000 0.15290  0.52570  0.31200  Biso   1.000  C
  H37      1.0000 0.65210  0.90720  0.79950  Biso   1.000  H
  H38      1.0000 0.84790  0.40720  0.70050  Biso   1.000  H
  H39      1.0000 0.34790  0.09280  0.20050  Biso   1.000  H
  H40      1.0000 0.15210  0.59280  0.29950  Biso   1.000  H
  C53      1.0000 0.94640  0.08010  0.38530  Biso   1.000  C
  C54      1.0000 0.55360  0.58010  0.11470  Biso   1.000  C
  C55      1.0000 0.05360  0.91990  0.61470  Biso   1.000  C
  C56      1.0000 0.44640  0.41990  0.88530  Biso   1.000  C
  C57      1.0000 0.91030  0.09450  0.29630  Biso   1.000  C
  C58      1.0000 0.58970  0.59450  0.20370  Biso   1.000  C
  C59      1.0000 0.08970  0.90550  0.70370  Biso   1.000  C
  C60      1.0000 0.41030  0.40550  0.79630  Biso   1.000  C
  C61      1.0000 0.01590  0.10020  0.25110  Biso   1.000  C
  C62      1.0000 0.48410  0.60020  0.24890  Biso   1.000  C
  C63      1.0000 0.98410  0.89980  0.74890  Biso   1.000  C
  C64      1.0000 0.51590  0.39980  0.75110  Biso   1.000  C
  H41      1.0000 0.11220  0.09560  0.27550  Biso   1.000  H
  H42      1.0000 0.38780  0.59560  0.22450  Biso   1.000  H
  H43      1.0000 0.88780  0.90440  0.72450  Biso   1.000  H
  H44      1.0000 0.61220  0.40440  0.77550  Biso   1.000  H
  C65      1.0000 0.97710  0.11280  0.16930  Biso   1.000  C
  C66      1.0000 0.52290  0.61280  0.33070  Biso   1.000  C
  C67      1.0000 0.02290  0.88720  0.83070  Biso   1.000  C
  C68      1.0000 0.47710  0.38720  0.66930  Biso   1.000  C
  H45      1.0000 0.04890  0.11540  0.13930  Biso   1.000  H
  H46      1.0000 0.45110  0.61540  0.36070  Biso   1.000  H
  H47      1.0000 0.95110  0.88460  0.86070  Biso   1.000  H
  H48      1.0000 0.54890  0.38460  0.63930  Biso   1.000  H
  C69      1.0000 0.73800  0.11530  0.17570  Biso   1.000  C
  C70      1.0000 0.76200  0.61530  0.32430  Biso   1.000  C
  C71      1.0000 0.26200  0.88470  0.82430  Biso   1.000  C
  C72      1.0000 0.23800  0.38470  0.67570  Biso   1.000  C
  H49      1.0000 0.64230  0.11980  0.15020  Biso   1.000  H
  H50      1.0000 0.85770  0.61980  0.34980  Biso   1.000  H
  H51      1.0000 0.35770  0.88020  0.84980  Biso   1.000  H
  H52      1.0000 0.14230  0.38020  0.65020  Biso   1.000  H
  C73      1.0000 0.76920  0.10250  0.25710  Biso   1.000  C
  C74      1.0000 0.73080  0.60250  0.24290  Biso   1.000  C
  C75      1.0000 0.23080  0.89750  0.74290  Biso   1.000  C
  C76      1.0000 0.26920  0.39750  0.75710  Biso   1.000  C
  H53      1.0000 0.69550  0.09930  0.28580  Biso   1.000  H
  H54      1.0000 0.80450  0.59930  0.21420  Biso   1.000  H
  H55      1.0000 0.30450  0.90070  0.71420  Biso   1.000  H
  H56      1.0000 0.19550  0.40070  0.78580  Biso   1.000  H
