data_image0
_cell_length_a       9.4413
_cell_length_b       13.4801
_cell_length_c       17.0139
_cell_angle_alpha    90
_cell_angle_beta     101.221
_cell_angle_gamma    90

_symmetry_space_group_name_H-M    "P 1"
_symmetry_int_tables_number       1

loop_
  _symmetry_equiv_pos_as_xyz
  'x, y, z'

loop_
  _atom_site_label
  _atom_site_occupancy
  _atom_site_fract_x
  _atom_site_fract_y
  _atom_site_fract_z
  _atom_site_thermal_displace_type
  _atom_site_B_iso_or_equiv
  _atom_site_type_symbol
  Eu1      1.0000 0.71415  0.96546  0.50244  Biso   1.000  Eu
  Eu2      1.0000 0.78585  0.46546  0.99756  Biso   1.000  Eu
  Eu3      1.0000 0.28585  0.03454  0.49756  Biso   1.000  Eu
  Eu4      1.0000 0.21415  0.53454  0.00244  Biso   1.000  Eu
  Cu1      1.0000 0.71591  0.64078  0.48114  Biso   1.000  Cu
  Cu2      1.0000 0.78409  0.14078  0.01886  Biso   1.000  Cu
  Cu3      1.0000 0.28409  0.35922  0.51886  Biso   1.000  Cu
  Cu4      1.0000 0.21591  0.85922  0.98114  Biso   1.000  Cu
  S1       1.0000 0.18210  0.78359  0.42228  Biso   1.000  S
  S2       1.0000 0.31790  0.28359  0.07772  Biso   1.000  S
  S3       1.0000 0.81790  0.21641  0.57772  Biso   1.000  S
  S4       1.0000 0.68210  0.71641  0.92228  Biso   1.000  S
  O1       1.0000 0.45320  0.90260  0.50480  Biso   1.000  O
  O2       1.0000 0.04680  0.40260  0.99520  Biso   1.000  O
  O3       1.0000 0.54680  0.09740  0.49520  Biso   1.000  O
  O4       1.0000 0.95320  0.59740  0.00480  Biso   1.000  O
  O5       1.0000 0.62330  0.79030  0.52730  Biso   1.000  O
  O6       1.0000 0.87670  0.29030  0.97270  Biso   1.000  O
  O7       1.0000 0.37670  0.20970  0.47270  Biso   1.000  O
  O8       1.0000 0.12330  0.70970  0.02730  Biso   1.000  O
  O9       1.0000 0.16250  0.89000  0.42670  Biso   1.000  O
  O10      1.0000 0.33750  0.39000  0.07330  Biso   1.000  O
  O11      1.0000 0.83750  0.11000  0.57330  Biso   1.000  O
  O12      1.0000 0.66250  0.61000  0.92670  Biso   1.000  O
  O13      1.0000 0.28860  0.75380  0.37700  Biso   1.000  O
  O14      1.0000 0.21140  0.25380  0.12300  Biso   1.000  O
  O15      1.0000 0.71140  0.24620  0.62300  Biso   1.000  O
  O16      1.0000 0.78860  0.74620  0.87700  Biso   1.000  O
  O17      1.0000 0.04270  0.73640  0.39700  Biso   1.000  O
  O18      1.0000 0.45730  0.23640  0.10300  Biso   1.000  O
  O19      1.0000 0.95730  0.26360  0.60300  Biso   1.000  O
  O20      1.0000 0.54270  0.76360  0.89700  Biso   1.000  O
  O21      1.0000 0.56050  0.95500  0.36860  Biso   1.000  O
  O22      1.0000 0.93950  0.45500  0.13140  Biso   1.000  O
  O23      1.0000 0.43950  0.04500  0.63140  Biso   1.000  O
  O24      1.0000 0.06050  0.54500  0.86860  Biso   1.000  O
  O25      1.0000 0.34690  0.03140  0.36450  Biso   1.000  O
  O26      1.0000 0.15310  0.53140  0.13550  Biso   1.000  O
  O27      1.0000 0.65310  0.96860  0.63550  Biso   1.000  O
  O28      1.0000 0.84690  0.46860  0.86450  Biso   1.000  O
  O29      1.0000 0.92740  0.90200  0.57880  Biso   1.000  O
  O30      1.0000 0.57260  0.40200  0.92120  Biso   1.000  O
  O31      1.0000 0.07260  0.09800  0.42120  Biso   1.000  O
  O32      1.0000 0.42740  0.59800  0.07880  Biso   1.000  O
  O33      1.0000 0.15140  0.95360  0.58180  Biso   1.000  O
  O34      1.0000 0.34860  0.45360  0.91820  Biso   1.000  O
  O35      1.0000 0.84860  0.04640  0.41820  Biso   1.000  O
  O36      1.0000 0.65140  0.54640  0.08180  Biso   1.000  O
  O37      1.0000 0.79730  0.83790  0.41460  Biso   1.000  O
  O38      1.0000 0.70270  0.33790  0.08540  Biso   1.000  O
  O39      1.0000 0.20270  0.16210  0.58540  Biso   1.000  O
  O40      1.0000 0.29730  0.66210  0.91460  Biso   1.000  O
  H1       1.0000 0.88800  0.84170  0.41720  Biso   1.000  H
  H2       1.0000 0.61200  0.34170  0.08280  Biso   1.000  H
  H3       1.0000 0.11200  0.15830  0.58280  Biso   1.000  H
  H4       1.0000 0.38800  0.65830  0.91720  Biso   1.000  H
  H5       1.0000 0.75460  0.84520  0.36620  Biso   1.000  H
  H6       1.0000 0.74540  0.34520  0.13380  Biso   1.000  H
  H7       1.0000 0.24540  0.15480  0.63380  Biso   1.000  H
  H8       1.0000 0.25460  0.65480  0.86620  Biso   1.000  H
  N1       1.0000 0.29850  0.89670  0.08900  Biso   1.000  N
  N2       1.0000 0.20150  0.39670  0.41100  Biso   1.000  N
  N3       1.0000 0.70150  0.10330  0.91100  Biso   1.000  N
  N4       1.0000 0.79850  0.60330  0.58900  Biso   1.000  N
  N5       1.0000 0.16090  0.87780  0.86840  Biso   1.000  N
  N6       1.0000 0.33910  0.37780  0.63160  Biso   1.000  N
  N7       1.0000 0.83910  0.12220  0.13160  Biso   1.000  N
  N8       1.0000 0.66090  0.62220  0.36840  Biso   1.000  N
  C1       1.0000 0.49590  0.81700  0.52670  Biso   1.000  C
  C2       1.0000 0.00410  0.31700  0.97330  Biso   1.000  C
  C3       1.0000 0.50410  0.18300  0.47330  Biso   1.000  C
  C4       1.0000 0.99590  0.68300  0.02670  Biso   1.000  C
  C5       1.0000 0.39360  0.74940  0.55860  Biso   1.000  C
  C6       1.0000 0.10640  0.24940  0.94140  Biso   1.000  C
  C7       1.0000 0.60640  0.25060  0.44140  Biso   1.000  C
  C8       1.0000 0.89360  0.75060  0.05860  Biso   1.000  C
  C9       1.0000 0.24910  0.73770  0.52100  Biso   1.000  C
  C10      1.0000 0.25090  0.23770  0.97900  Biso   1.000  C
  C11      1.0000 0.75090  0.26230  0.47900  Biso   1.000  C
  C12      1.0000 0.74910  0.76230  0.02100  Biso   1.000  C
  C13      1.0000 0.15700  0.68190  0.55820  Biso   1.000  C
  C14      1.0000 0.34300  0.18190  0.94180  Biso   1.000  C
  C15      1.0000 0.84300  0.31810  0.44180  Biso   1.000  C
  C16      1.0000 0.65700  0.81810  0.05820  Biso   1.000  C
  H9       1.0000 0.06090  0.67320  0.53340  Biso   1.000  H
  H10      1.0000 0.43910  0.17320  0.96660  Biso   1.000  H
  H11      1.0000 0.93910  0.32680  0.46660  Biso   1.000  H
  H12      1.0000 0.56090  0.82680  0.03340  Biso   1.000  H
  C17      1.0000 0.20920  0.63930  0.63210  Biso   1.000  C
  C18      1.0000 0.29080  0.13930  0.86790  Biso   1.000  C
  C19      1.0000 0.79080  0.36070  0.36790  Biso   1.000  C
  C20      1.0000 0.70920  0.86070  0.13210  Biso   1.000  C
  H13      1.0000 0.14650  0.60280  0.65670  Biso   1.000  H
  H14      1.0000 0.35350  0.10280  0.84330  Biso   1.000  H
  H15      1.0000 0.85350  0.39720  0.34330  Biso   1.000  H
  H16      1.0000 0.64650  0.89720  0.15670  Biso   1.000  H
  C21      1.0000 0.35230  0.64930  0.67080  Biso   1.000  C
  C22      1.0000 0.14770  0.14930  0.82920  Biso   1.000  C
  C23      1.0000 0.64770  0.35070  0.32920  Biso   1.000  C
  C24      1.0000 0.85230  0.85070  0.17080  Biso   1.000  C
  H17      1.0000 0.38530  0.61950  0.72020  Biso   1.000  H
  H18      1.0000 0.11470  0.11950  0.77980  Biso   1.000  H
  H19      1.0000 0.61470  0.38050  0.27980  Biso   1.000  H
  H20      1.0000 0.88530  0.88050  0.22020  Biso   1.000  H
  C25      1.0000 0.44660  0.70590  0.63340  Biso   1.000  C
  C26      1.0000 0.05340  0.20590  0.86660  Biso   1.000  C
  C27      1.0000 0.55340  0.29410  0.36660  Biso   1.000  C
  C28      1.0000 0.94660  0.79410  0.13340  Biso   1.000  C
  H21      1.0000 0.54280  0.71410  0.65810  Biso   1.000  H
  H22      1.0000 0.95720  0.21410  0.84190  Biso   1.000  H
  H23      1.0000 0.45720  0.28590  0.34190  Biso   1.000  H
  H24      1.0000 0.04280  0.78590  0.15810  Biso   1.000  H
  C29      1.0000 0.43630  0.98290  0.33510  Biso   1.000  C
  C30      1.0000 0.06370  0.48290  0.16490  Biso   1.000  C
  C31      1.0000 0.56370  0.01710  0.66490  Biso   1.000  C
  C32      1.0000 0.93630  0.51710  0.83510  Biso   1.000  C
  C33      1.0000 0.39010  0.95420  0.24780  Biso   1.000  C
  C34      1.0000 0.10990  0.45420  0.25220  Biso   1.000  C
  C35      1.0000 0.60990  0.04580  0.75220  Biso   1.000  C
  C36      1.0000 0.89010  0.54580  0.74780  Biso   1.000  C
  C37      1.0000 0.38930  0.85480  0.22600  Biso   1.000  C
  C38      1.0000 0.11070  0.35480  0.27400  Biso   1.000  C
  C39      1.0000 0.61070  0.14520  0.77400  Biso   1.000  C
  C40      1.0000 0.88930  0.64520  0.72600  Biso   1.000  C
  H25      1.0000 0.42000  0.80630  0.26440  Biso   1.000  H
  H26      1.0000 0.08000  0.30630  0.23560  Biso   1.000  H
  H27      1.0000 0.58000  0.19370  0.73560  Biso   1.000  H
  H28      1.0000 0.92000  0.69370  0.76440  Biso   1.000  H
  C41      1.0000 0.34240  0.82870  0.14680  Biso   1.000  C
  C42      1.0000 0.15760  0.32870  0.35320  Biso   1.000  C
  C43      1.0000 0.65760  0.17130  0.85320  Biso   1.000  C
  C44      1.0000 0.84240  0.67130  0.64680  Biso   1.000  C
  H29      1.0000 0.34110  0.76190  0.13270  Biso   1.000  H
  H30      1.0000 0.15890  0.26190  0.36730  Biso   1.000  H
  H31      1.0000 0.65890  0.23810  0.86730  Biso   1.000  H
  H32      1.0000 0.84110  0.73810  0.63270  Biso   1.000  H
  C45      1.0000 0.30570  0.99320  0.11120  Biso   1.000  C
  C46      1.0000 0.19430  0.49320  0.38880  Biso   1.000  C
  C47      1.0000 0.69430  0.00680  0.88880  Biso   1.000  C
  C48      1.0000 0.80570  0.50680  0.61120  Biso   1.000  C
  H33      1.0000 0.28010  0.04110  0.07160  Biso   1.000  H
  H34      1.0000 0.21990  0.54110  0.42840  Biso   1.000  H
  H35      1.0000 0.71990  0.95890  0.92840  Biso   1.000  H
  H36      1.0000 0.78010  0.45890  0.57160  Biso   1.000  H
  C49      1.0000 0.34860  0.02380  0.18840  Biso   1.000  C
  C50      1.0000 0.15140  0.52380  0.31160  Biso   1.000  C
  C51      1.0000 0.65140  0.97620  0.81160  Biso   1.000  C
  C52      1.0000 0.84860  0.47620  0.68840  Biso   1.000  C
  H37      1.0000 0.34970  0.09100  0.20100  Biso   1.000  H
  H38      1.0000 0.15030  0.59100  0.29900  Biso   1.000  H
  H39      1.0000 0.65030  0.90900  0.79900  Biso   1.000  H
  H40      1.0000 0.84970  0.40900  0.70100  Biso   1.000  H
  C53      1.0000 0.05330  0.92260  0.61330  Biso   1.000  C
  C54      1.0000 0.44670  0.42260  0.88670  Biso   1.000  C
  C55      1.0000 0.94670  0.07740  0.38670  Biso   1.000  C
  C56      1.0000 0.55330  0.57740  0.11330  Biso   1.000  C
  C57      1.0000 0.08890  0.90630  0.70300  Biso   1.000  C
  C58      1.0000 0.41110  0.40630  0.79700  Biso   1.000  C
  C59      1.0000 0.91110  0.09370  0.29700  Biso   1.000  C
  C60      1.0000 0.58890  0.59370  0.20300  Biso   1.000  C
  C61      1.0000 0.98260  0.90190  0.74800  Biso   1.000  C
  C62      1.0000 0.51740  0.40190  0.75200  Biso   1.000  C
  C63      1.0000 0.01740  0.09810  0.25200  Biso   1.000  C
  C64      1.0000 0.48260  0.59810  0.24800  Biso   1.000  C
  H41      1.0000 0.88580  0.90790  0.72380  Biso   1.000  H
  H42      1.0000 0.61420  0.40790  0.77620  Biso   1.000  H
  H43      1.0000 0.11420  0.09210  0.27620  Biso   1.000  H
  H44      1.0000 0.38580  0.59210  0.22380  Biso   1.000  H
  C65      1.0000 0.02270  0.88840  0.83030  Biso   1.000  C
  C66      1.0000 0.47730  0.38840  0.66970  Biso   1.000  C
  C67      1.0000 0.97730  0.11160  0.16970  Biso   1.000  C
  C68      1.0000 0.52270  0.61160  0.33030  Biso   1.000  C
  H45      1.0000 0.95060  0.88650  0.86050  Biso   1.000  H
  H46      1.0000 0.54940  0.38650  0.63950  Biso   1.000  H
  H47      1.0000 0.04940  0.11350  0.13950  Biso   1.000  H
  H48      1.0000 0.45060  0.61350  0.36050  Biso   1.000  H
  C69      1.0000 0.26400  0.88240  0.82330  Biso   1.000  C
  C70      1.0000 0.23600  0.38240  0.67670  Biso   1.000  C
  C71      1.0000 0.73600  0.11760  0.17670  Biso   1.000  C
  C72      1.0000 0.76400  0.61760  0.32330  Biso   1.000  C
  H49      1.0000 0.36020  0.87590  0.84850  Biso   1.000  H
  H50      1.0000 0.13980  0.37590  0.65150  Biso   1.000  H
  H51      1.0000 0.63980  0.12410  0.15150  Biso   1.000  H
  H52      1.0000 0.86020  0.62410  0.34850  Biso   1.000  H
  C73      1.0000 0.23180  0.89640  0.74150  Biso   1.000  C
  C74      1.0000 0.26820  0.39640  0.75850  Biso   1.000  C
  C75      1.0000 0.76820  0.10360  0.25850  Biso   1.000  C
  C76      1.0000 0.73180  0.60360  0.24150  Biso   1.000  C
  H53      1.0000 0.30540  0.89910  0.71230  Biso   1.000  H
  H54      1.0000 0.19460  0.39910  0.78770  Biso   1.000  H
  H55      1.0000 0.69460  0.10090  0.28770  Biso   1.000  H
  H56      1.0000 0.80540  0.60090  0.21230  Biso   1.000  H
