data_image0
_cell_length_a       9.4107
_cell_length_b       13.4745
_cell_length_c       16.972
_cell_angle_alpha    90
_cell_angle_beta     101.176
_cell_angle_gamma    90

_symmetry_space_group_name_H-M    "P 1"
_symmetry_int_tables_number       1

loop_
  _symmetry_equiv_pos_as_xyz
  'x, y, z'

loop_
  _atom_site_label
  _atom_site_occupancy
  _atom_site_fract_x
  _atom_site_fract_y
  _atom_site_fract_z
  _atom_site_thermal_displace_type
  _atom_site_B_iso_or_equiv
  _atom_site_type_symbol
  Gd1      1.0000 0.71415  0.96566  0.50254  Biso   1.000  Gd
  Gd2      1.0000 0.78585  0.46566  0.99746  Biso   1.000  Gd
  Gd3      1.0000 0.28585  0.03434  0.49746  Biso   1.000  Gd
  Gd4      1.0000 0.21415  0.53434  0.00254  Biso   1.000  Gd
  Cu1      1.0000 0.71607  0.64144  0.48115  Biso   1.000  Cu
  Cu2      1.0000 0.78393  0.14144  0.01885  Biso   1.000  Cu
  Cu3      1.0000 0.28393  0.35856  0.51885  Biso   1.000  Cu
  Cu4      1.0000 0.21607  0.85856  0.98115  Biso   1.000  Cu
  S1       1.0000 0.18241  0.78356  0.42272  Biso   1.000  S
  S2       1.0000 0.31759  0.28356  0.07728  Biso   1.000  S
  S3       1.0000 0.81759  0.21644  0.57728  Biso   1.000  S
  S4       1.0000 0.68241  0.71644  0.92272  Biso   1.000  S
  O1       1.0000 0.45290  0.90340  0.50530  Biso   1.000  O
  O2       1.0000 0.04710  0.40340  0.99470  Biso   1.000  O
  O3       1.0000 0.54710  0.09660  0.49470  Biso   1.000  O
  O4       1.0000 0.95290  0.59660  0.00530  Biso   1.000  O
  O5       1.0000 0.62430  0.79170  0.52800  Biso   1.000  O
  O6       1.0000 0.87570  0.29170  0.97200  Biso   1.000  O
  O7       1.0000 0.37570  0.20830  0.47200  Biso   1.000  O
  O8       1.0000 0.12430  0.70830  0.02800  Biso   1.000  O
  O9       1.0000 0.16330  0.89050  0.42680  Biso   1.000  O
  O10      1.0000 0.33670  0.39050  0.07320  Biso   1.000  O
  O11      1.0000 0.83670  0.10950  0.57320  Biso   1.000  O
  O12      1.0000 0.66330  0.60950  0.92680  Biso   1.000  O
  O13      1.0000 0.28910  0.75450  0.37690  Biso   1.000  O
  O14      1.0000 0.21090  0.25450  0.12310  Biso   1.000  O
  O15      1.0000 0.71090  0.24550  0.62310  Biso   1.000  O
  O16      1.0000 0.78910  0.74550  0.87690  Biso   1.000  O
  O17      1.0000 0.04260  0.73640  0.39750  Biso   1.000  O
  O18      1.0000 0.45740  0.23640  0.10250  Biso   1.000  O
  O19      1.0000 0.95740  0.26360  0.60250  Biso   1.000  O
  O20      1.0000 0.54260  0.76360  0.89750  Biso   1.000  O
  O21      1.0000 0.56110  0.95410  0.36930  Biso   1.000  O
  O22      1.0000 0.93890  0.45410  0.13070  Biso   1.000  O
  O23      1.0000 0.43890  0.04590  0.63070  Biso   1.000  O
  O24      1.0000 0.06110  0.54590  0.86930  Biso   1.000  O
  O25      1.0000 0.34670  0.03090  0.36480  Biso   1.000  O
  O26      1.0000 0.15330  0.53090  0.13520  Biso   1.000  O
  O27      1.0000 0.65330  0.96910  0.63520  Biso   1.000  O
  O28      1.0000 0.84670  0.46910  0.86480  Biso   1.000  O
  O29      1.0000 0.92700  0.90290  0.57806  Biso   1.000  O
  O30      1.0000 0.57300  0.40290  0.92194  Biso   1.000  O
  O31      1.0000 0.07300  0.09710  0.42194  Biso   1.000  O
  O32      1.0000 0.42700  0.59710  0.07806  Biso   1.000  O
  O33      1.0000 0.15220  0.95370  0.58140  Biso   1.000  O
  O34      1.0000 0.34780  0.45370  0.91860  Biso   1.000  O
  O35      1.0000 0.84780  0.04630  0.41860  Biso   1.000  O
  O36      1.0000 0.65220  0.54630  0.08140  Biso   1.000  O
  O37      1.0000 0.79720  0.83800  0.41560  Biso   1.000  O
  O38      1.0000 0.70280  0.33800  0.08440  Biso   1.000  O
  O39      1.0000 0.20280  0.16200  0.58440  Biso   1.000  O
  O40      1.0000 0.29720  0.66200  0.91560  Biso   1.000  O
  H1       1.0000 0.88820  0.84180  0.41840  Biso   1.000  H
  H2       1.0000 0.61180  0.34180  0.08160  Biso   1.000  H
  H3       1.0000 0.11180  0.15820  0.58160  Biso   1.000  H
  H4       1.0000 0.38820  0.65820  0.91840  Biso   1.000  H
  H5       1.0000 0.75490  0.84530  0.36700  Biso   1.000  H
  H6       1.0000 0.74510  0.34530  0.13300  Biso   1.000  H
  H7       1.0000 0.24510  0.15470  0.63300  Biso   1.000  H
  H8       1.0000 0.25490  0.65470  0.86700  Biso   1.000  H
  N1       1.0000 0.29980  0.89640  0.08890  Biso   1.000  N
  N2       1.0000 0.20020  0.39640  0.41110  Biso   1.000  N
  N3       1.0000 0.70020  0.10360  0.91110  Biso   1.000  N
  N4       1.0000 0.79980  0.60360  0.58890  Biso   1.000  N
  N5       1.0000 0.16120  0.87700  0.86820  Biso   1.000  N
  N6       1.0000 0.33880  0.37700  0.63180  Biso   1.000  N
  N7       1.0000 0.83880  0.12300  0.13180  Biso   1.000  N
  N8       1.0000 0.66120  0.62300  0.36820  Biso   1.000  N
  C1       1.0000 0.49610  0.81690  0.52770  Biso   1.000  C
  C2       1.0000 0.00390  0.31690  0.97230  Biso   1.000  C
  C3       1.0000 0.50390  0.18310  0.47230  Biso   1.000  C
  C4       1.0000 0.99610  0.68310  0.02770  Biso   1.000  C
  C5       1.0000 0.39420  0.75040  0.55970  Biso   1.000  C
  C6       1.0000 0.10580  0.25040  0.94030  Biso   1.000  C
  C7       1.0000 0.60580  0.24960  0.44030  Biso   1.000  C
  C8       1.0000 0.89420  0.74960  0.05970  Biso   1.000  C
  C9       1.0000 0.24890  0.73730  0.52180  Biso   1.000  C
  C10      1.0000 0.25110  0.23730  0.97820  Biso   1.000  C
  C11      1.0000 0.75110  0.26270  0.47820  Biso   1.000  C
  C12      1.0000 0.74890  0.76270  0.02180  Biso   1.000  C
  C13      1.0000 0.15750  0.68080  0.55820  Biso   1.000  C
  C14      1.0000 0.34250  0.18080  0.94180  Biso   1.000  C
  C15      1.0000 0.84250  0.31920  0.44180  Biso   1.000  C
  C16      1.0000 0.65750  0.81920  0.05820  Biso   1.000  C
  H9       1.0000 0.06160  0.67150  0.53290  Biso   1.000  H
  H10      1.0000 0.43840  0.17150  0.96710  Biso   1.000  H
  H11      1.0000 0.93840  0.32850  0.46710  Biso   1.000  H
  H12      1.0000 0.56160  0.82850  0.03290  Biso   1.000  H
  C17      1.0000 0.20900  0.63810  0.63270  Biso   1.000  C
  C18      1.0000 0.29100  0.13810  0.86730  Biso   1.000  C
  C19      1.0000 0.79100  0.36190  0.36730  Biso   1.000  C
  C20      1.0000 0.70900  0.86190  0.13270  Biso   1.000  C
  H13      1.0000 0.14650  0.60140  0.65760  Biso   1.000  H
  H14      1.0000 0.35350  0.10140  0.84240  Biso   1.000  H
  H15      1.0000 0.85350  0.39860  0.34240  Biso   1.000  H
  H16      1.0000 0.64650  0.89860  0.15760  Biso   1.000  H
  C21      1.0000 0.35330  0.64950  0.67060  Biso   1.000  C
  C22      1.0000 0.14670  0.14950  0.82940  Biso   1.000  C
  C23      1.0000 0.64670  0.35050  0.32940  Biso   1.000  C
  C24      1.0000 0.85330  0.85050  0.17060  Biso   1.000  C
  H17      1.0000 0.38720  0.61930  0.72000  Biso   1.000  H
  H18      1.0000 0.11280  0.11930  0.78000  Biso   1.000  H
  H19      1.0000 0.61280  0.38070  0.28000  Biso   1.000  H
  H20      1.0000 0.88720  0.88070  0.22000  Biso   1.000  H
  C25      1.0000 0.44640  0.70600  0.63450  Biso   1.000  C
  C26      1.0000 0.05360  0.20600  0.86550  Biso   1.000  C
  C27      1.0000 0.55360  0.29400  0.36550  Biso   1.000  C
  C28      1.0000 0.94640  0.79400  0.13450  Biso   1.000  C
  H21      1.0000 0.54260  0.71440  0.65970  Biso   1.000  H
  H22      1.0000 0.95740  0.21440  0.84030  Biso   1.000  H
  H23      1.0000 0.45740  0.28560  0.34030  Biso   1.000  H
  H24      1.0000 0.04260  0.78560  0.15970  Biso   1.000  H
  C29      1.0000 0.43690  0.98190  0.33500  Biso   1.000  C
  C30      1.0000 0.06310  0.48190  0.16500  Biso   1.000  C
  C31      1.0000 0.56310  0.01810  0.66500  Biso   1.000  C
  C32      1.0000 0.93690  0.51810  0.83500  Biso   1.000  C
  C33      1.0000 0.39150  0.95320  0.24840  Biso   1.000  C
  C34      1.0000 0.10850  0.45320  0.25160  Biso   1.000  C
  C35      1.0000 0.60850  0.04680  0.75160  Biso   1.000  C
  C36      1.0000 0.89150  0.54680  0.74840  Biso   1.000  C
  C37      1.0000 0.39030  0.85460  0.22600  Biso   1.000  C
  C38      1.0000 0.10970  0.35460  0.27400  Biso   1.000  C
  C39      1.0000 0.60970  0.14540  0.77400  Biso   1.000  C
  C40      1.0000 0.89030  0.64540  0.72600  Biso   1.000  C
  H25      1.0000 0.42170  0.80590  0.26430  Biso   1.000  H
  H26      1.0000 0.07830  0.30590  0.23570  Biso   1.000  H
  H27      1.0000 0.57830  0.19410  0.73570  Biso   1.000  H
  H28      1.0000 0.92170  0.69410  0.76430  Biso   1.000  H
  C41      1.0000 0.34250  0.82850  0.14690  Biso   1.000  C
  C42      1.0000 0.15750  0.32850  0.35310  Biso   1.000  C
  C43      1.0000 0.65750  0.17150  0.85310  Biso   1.000  C
  C44      1.0000 0.84250  0.67150  0.64690  Biso   1.000  C
  H29      1.0000 0.33970  0.76170  0.13310  Biso   1.000  H
  H30      1.0000 0.16030  0.26170  0.36690  Biso   1.000  H
  H31      1.0000 0.66030  0.23830  0.86690  Biso   1.000  H
  H32      1.0000 0.83970  0.73830  0.63310  Biso   1.000  H
  C45      1.0000 0.30630  0.99260  0.11160  Biso   1.000  C
  C46      1.0000 0.19370  0.49260  0.38840  Biso   1.000  C
  C47      1.0000 0.69370  0.00740  0.88840  Biso   1.000  C
  C48      1.0000 0.80630  0.50740  0.61160  Biso   1.000  C
  H33      1.0000 0.28060  0.04070  0.07210  Biso   1.000  H
  H34      1.0000 0.21940  0.54070  0.42790  Biso   1.000  H
  H35      1.0000 0.71940  0.95930  0.92790  Biso   1.000  H
  H36      1.0000 0.78060  0.45930  0.57210  Biso   1.000  H
  C49      1.0000 0.34870  0.02300  0.18910  Biso   1.000  C
  C50      1.0000 0.15130  0.52300  0.31090  Biso   1.000  C
  C51      1.0000 0.65130  0.97700  0.81090  Biso   1.000  C
  C52      1.0000 0.84870  0.47700  0.68910  Biso   1.000  C
  H37      1.0000 0.34860  0.09000  0.20200  Biso   1.000  H
  H38      1.0000 0.15140  0.59000  0.29800  Biso   1.000  H
  H39      1.0000 0.65140  0.91000  0.79800  Biso   1.000  H
  H40      1.0000 0.84860  0.41000  0.70200  Biso   1.000  H
  C53      1.0000 0.05370  0.92240  0.61310  Biso   1.000  C
  C54      1.0000 0.44630  0.42240  0.88690  Biso   1.000  C
  C55      1.0000 0.94630  0.07760  0.38690  Biso   1.000  C
  C56      1.0000 0.55370  0.57760  0.11310  Biso   1.000  C
  C57      1.0000 0.08930  0.90610  0.70250  Biso   1.000  C
  C58      1.0000 0.41070  0.40610  0.79750  Biso   1.000  C
  C59      1.0000 0.91070  0.09390  0.29750  Biso   1.000  C
  C60      1.0000 0.58930  0.59390  0.20250  Biso   1.000  C
  C61      1.0000 0.98260  0.90230  0.74820  Biso   1.000  C
  C62      1.0000 0.51740  0.40230  0.75180  Biso   1.000  C
  C63      1.0000 0.01740  0.09770  0.25180  Biso   1.000  C
  C64      1.0000 0.48260  0.59770  0.24820  Biso   1.000  C
  H41      1.0000 0.88550  0.90890  0.72400  Biso   1.000  H
  H42      1.0000 0.61450  0.40890  0.77600  Biso   1.000  H
  H43      1.0000 0.11450  0.09110  0.27600  Biso   1.000  H
  H44      1.0000 0.38550  0.59110  0.22400  Biso   1.000  H
  C65      1.0000 0.02230  0.88860  0.83000  Biso   1.000  C
  C66      1.0000 0.47770  0.38860  0.67000  Biso   1.000  C
  C67      1.0000 0.97770  0.11140  0.17000  Biso   1.000  C
  C68      1.0000 0.52230  0.61140  0.33000  Biso   1.000  C
  H45      1.0000 0.95000  0.88730  0.86030  Biso   1.000  H
  H46      1.0000 0.55000  0.38730  0.63970  Biso   1.000  H
  H47      1.0000 0.05000  0.11270  0.13970  Biso   1.000  H
  H48      1.0000 0.45000  0.61270  0.36030  Biso   1.000  H
  C69      1.0000 0.26430  0.88150  0.82300  Biso   1.000  C
  C70      1.0000 0.23570  0.38150  0.67700  Biso   1.000  C
  C71      1.0000 0.73570  0.11850  0.17700  Biso   1.000  C
  C72      1.0000 0.76430  0.61850  0.32300  Biso   1.000  C
  H49      1.0000 0.36070  0.87450  0.84820  Biso   1.000  H
  H50      1.0000 0.13930  0.37450  0.65180  Biso   1.000  H
  H51      1.0000 0.63930  0.12550  0.15180  Biso   1.000  H
  H52      1.0000 0.86070  0.62550  0.34820  Biso   1.000  H
  C73      1.0000 0.23330  0.89600  0.74170  Biso   1.000  C
  C74      1.0000 0.26670  0.39600  0.75830  Biso   1.000  C
  C75      1.0000 0.76670  0.10400  0.25830  Biso   1.000  C
  C76      1.0000 0.73330  0.60400  0.24170  Biso   1.000  C
  H53      1.0000 0.30760  0.89910  0.71270  Biso   1.000  H
  H54      1.0000 0.19240  0.39910  0.78730  Biso   1.000  H
  H55      1.0000 0.69240  0.10090  0.28730  Biso   1.000  H
  H56      1.0000 0.80760  0.60090  0.21270  Biso   1.000  H
