data_image0
_cell_length_a       9.4025
_cell_length_b       13.4705
_cell_length_c       16.9675
_cell_angle_alpha    90
_cell_angle_beta     101.231
_cell_angle_gamma    90

_symmetry_space_group_name_H-M    "P 1"
_symmetry_int_tables_number       1

loop_
  _symmetry_equiv_pos_as_xyz
  'x, y, z'

loop_
  _atom_site_label
  _atom_site_occupancy
  _atom_site_fract_x
  _atom_site_fract_y
  _atom_site_fract_z
  _atom_site_thermal_displace_type
  _atom_site_B_iso_or_equiv
  _atom_site_type_symbol
  Tb1      1.0000 0.71406  0.96614  0.50267  Biso   1.000  Tb
  Tb2      1.0000 0.78594  0.46614  0.99733  Biso   1.000  Tb
  Tb3      1.0000 0.28594  0.03386  0.49733  Biso   1.000  Tb
  Tb4      1.0000 0.21406  0.53386  0.00267  Biso   1.000  Tb
  Cu1      1.0000 0.71670  0.64243  0.48095  Biso   1.000  Cu
  Cu2      1.0000 0.78330  0.14243  0.01905  Biso   1.000  Cu
  Cu3      1.0000 0.28330  0.35757  0.51905  Biso   1.000  Cu
  Cu4      1.0000 0.21670  0.85757  0.98095  Biso   1.000  Cu
  S1       1.0000 0.18350  0.78360  0.42337  Biso   1.000  S
  S2       1.0000 0.31650  0.28360  0.07663  Biso   1.000  S
  S3       1.0000 0.81650  0.21640  0.57663  Biso   1.000  S
  S4       1.0000 0.68350  0.71640  0.92337  Biso   1.000  S
  O1       1.0000 0.45300  0.90390  0.50620  Biso   1.000  O
  O2       1.0000 0.04700  0.40390  0.99380  Biso   1.000  O
  O3       1.0000 0.54700  0.09610  0.49380  Biso   1.000  O
  O4       1.0000 0.95300  0.59610  0.00620  Biso   1.000  O
  O5       1.0000 0.62570  0.79290  0.52910  Biso   1.000  O
  O6       1.0000 0.87430  0.29290  0.97090  Biso   1.000  O
  O7       1.0000 0.37430  0.20710  0.47090  Biso   1.000  O
  O8       1.0000 0.12570  0.70710  0.02910  Biso   1.000  O
  O9       1.0000 0.16210  0.89050  0.42760  Biso   1.000  O
  O10      1.0000 0.33790  0.39050  0.07240  Biso   1.000  O
  O11      1.0000 0.83790  0.10950  0.57240  Biso   1.000  O
  O12      1.0000 0.66210  0.60950  0.92760  Biso   1.000  O
  O13      1.0000 0.29030  0.75400  0.37740  Biso   1.000  O
  O14      1.0000 0.20970  0.25400  0.12260  Biso   1.000  O
  O15      1.0000 0.70970  0.24600  0.62260  Biso   1.000  O
  O16      1.0000 0.79030  0.74600  0.87740  Biso   1.000  O
  O17      1.0000 0.04370  0.73670  0.39760  Biso   1.000  O
  O18      1.0000 0.45630  0.23670  0.10240  Biso   1.000  O
  O19      1.0000 0.95630  0.26330  0.60240  Biso   1.000  O
  O20      1.0000 0.54370  0.76330  0.89760  Biso   1.000  O
  O21      1.0000 0.56260  0.95250  0.37050  Biso   1.000  O
  O22      1.0000 0.93740  0.45250  0.12950  Biso   1.000  O
  O23      1.0000 0.43740  0.04750  0.62950  Biso   1.000  O
  O24      1.0000 0.06260  0.54750  0.87050  Biso   1.000  O
  O25      1.0000 0.34600  0.02930  0.36450  Biso   1.000  O
  O26      1.0000 0.15400  0.52930  0.13550  Biso   1.000  O
  O27      1.0000 0.65400  0.97070  0.63550  Biso   1.000  O
  O28      1.0000 0.84600  0.47070  0.86450  Biso   1.000  O
  O29      1.0000 0.92700  0.90410  0.57830  Biso   1.000  O
  O30      1.0000 0.57300  0.40410  0.92170  Biso   1.000  O
  O31      1.0000 0.07300  0.09590  0.42170  Biso   1.000  O
  O32      1.0000 0.42700  0.59590  0.07830  Biso   1.000  O
  O33      1.0000 0.15270  0.95480  0.58160  Biso   1.000  O
  O34      1.0000 0.34730  0.45480  0.91840  Biso   1.000  O
  O35      1.0000 0.84730  0.04520  0.41840  Biso   1.000  O
  O36      1.0000 0.65270  0.54520  0.08160  Biso   1.000  O
  O37      1.0000 0.79780  0.83900  0.41700  Biso   1.000  O
  O38      1.0000 0.70220  0.33900  0.08300  Biso   1.000  O
  O39      1.0000 0.20220  0.16100  0.58300  Biso   1.000  O
  O40      1.0000 0.29780  0.66100  0.91700  Biso   1.000  O
  H1       1.0000 0.88900  0.84290  0.42020  Biso   1.000  H
  H2       1.0000 0.61100  0.34290  0.07980  Biso   1.000  H
  H3       1.0000 0.11100  0.15710  0.57980  Biso   1.000  H
  H4       1.0000 0.38900  0.65710  0.92020  Biso   1.000  H
  H5       1.0000 0.75610  0.84640  0.36820  Biso   1.000  H
  H6       1.0000 0.74390  0.34640  0.13180  Biso   1.000  H
  H7       1.0000 0.24390  0.15360  0.63180  Biso   1.000  H
  H8       1.0000 0.25610  0.65360  0.86820  Biso   1.000  H
  N1       1.0000 0.29890  0.89440  0.08900  Biso   1.000  N
  N2       1.0000 0.20110  0.39440  0.41100  Biso   1.000  N
  N3       1.0000 0.70110  0.10560  0.91100  Biso   1.000  N
  N4       1.0000 0.79890  0.60560  0.58900  Biso   1.000  N
  N5       1.0000 0.16100  0.87640  0.86780  Biso   1.000  N
  N6       1.0000 0.33900  0.37640  0.63220  Biso   1.000  N
  N7       1.0000 0.83900  0.12360  0.13220  Biso   1.000  N
  N8       1.0000 0.66100  0.62360  0.36780  Biso   1.000  N
  C1       1.0000 0.49730  0.81880  0.52900  Biso   1.000  C
  C2       1.0000 0.00270  0.31880  0.97100  Biso   1.000  C
  C3       1.0000 0.50270  0.18120  0.47100  Biso   1.000  C
  C4       1.0000 0.99730  0.68120  0.02900  Biso   1.000  C
  C5       1.0000 0.39630  0.75070  0.56140  Biso   1.000  C
  C6       1.0000 0.10370  0.25070  0.93860  Biso   1.000  C
  C7       1.0000 0.60370  0.24930  0.43860  Biso   1.000  C
  C8       1.0000 0.89630  0.74930  0.06140  Biso   1.000  C
  C9       1.0000 0.25000  0.73590  0.52280  Biso   1.000  C
  C10      1.0000 0.25000  0.23590  0.97720  Biso   1.000  C
  C11      1.0000 0.75000  0.26410  0.47720  Biso   1.000  C
  C12      1.0000 0.75000  0.76410  0.02280  Biso   1.000  C
  C13      1.0000 0.16060  0.68050  0.56200  Biso   1.000  C
  C14      1.0000 0.33940  0.18050  0.93800  Biso   1.000  C
  C15      1.0000 0.83940  0.31950  0.43800  Biso   1.000  C
  C16      1.0000 0.66060  0.81950  0.06200  Biso   1.000  C
  H9       1.0000 0.06340  0.67200  0.53870  Biso   1.000  H
  H10      1.0000 0.43660  0.17200  0.96130  Biso   1.000  H
  H11      1.0000 0.93660  0.32800  0.46130  Biso   1.000  H
  H12      1.0000 0.56340  0.82800  0.03870  Biso   1.000  H
  C17      1.0000 0.21610  0.63770  0.63640  Biso   1.000  C
  C18      1.0000 0.28390  0.13770  0.86360  Biso   1.000  C
  C19      1.0000 0.78390  0.36230  0.36360  Biso   1.000  C
  C20      1.0000 0.71610  0.86230  0.13640  Biso   1.000  C
  H13      1.0000 0.15570  0.59970  0.66160  Biso   1.000  H
  H14      1.0000 0.34430  0.09970  0.83840  Biso   1.000  H
  H15      1.0000 0.84430  0.40030  0.33840  Biso   1.000  H
  H16      1.0000 0.65570  0.90030  0.16160  Biso   1.000  H
  C21      1.0000 0.35660  0.65050  0.67250  Biso   1.000  C
  C22      1.0000 0.14340  0.15050  0.82750  Biso   1.000  C
  C23      1.0000 0.64340  0.34950  0.32750  Biso   1.000  C
  C24      1.0000 0.85660  0.84950  0.17250  Biso   1.000  C
  H17      1.0000 0.39200  0.62280  0.72270  Biso   1.000  H
  H18      1.0000 0.10800  0.12280  0.77730  Biso   1.000  H
  H19      1.0000 0.60800  0.37720  0.27730  Biso   1.000  H
  H20      1.0000 0.89200  0.87720  0.22270  Biso   1.000  H
  C25      1.0000 0.44580  0.70450  0.63410  Biso   1.000  C
  C26      1.0000 0.05420  0.20450  0.86590  Biso   1.000  C
  C27      1.0000 0.55420  0.29550  0.36590  Biso   1.000  C
  C28      1.0000 0.94580  0.79550  0.13410  Biso   1.000  C
  H21      1.0000 0.54330  0.71030  0.65780  Biso   1.000  H
  H22      1.0000 0.95670  0.21030  0.84220  Biso   1.000  H
  H23      1.0000 0.45670  0.28970  0.34220  Biso   1.000  H
  H24      1.0000 0.04330  0.78970  0.15780  Biso   1.000  H
  C29      1.0000 0.43650  0.98030  0.33540  Biso   1.000  C
  C30      1.0000 0.06350  0.48030  0.16460  Biso   1.000  C
  C31      1.0000 0.56350  0.01970  0.66460  Biso   1.000  C
  C32      1.0000 0.93650  0.51970  0.83540  Biso   1.000  C
  C33      1.0000 0.39160  0.95310  0.24910  Biso   1.000  C
  C34      1.0000 0.10840  0.45310  0.25090  Biso   1.000  C
  C35      1.0000 0.60840  0.04690  0.75090  Biso   1.000  C
  C36      1.0000 0.89160  0.54690  0.74910  Biso   1.000  C
  C37      1.0000 0.39200  0.85320  0.22540  Biso   1.000  C
  C38      1.0000 0.10800  0.35320  0.27460  Biso   1.000  C
  C39      1.0000 0.60800  0.14680  0.77460  Biso   1.000  C
  C40      1.0000 0.89200  0.64680  0.72540  Biso   1.000  C
  H25      1.0000 0.42620  0.80440  0.26310  Biso   1.000  H
  H26      1.0000 0.07380  0.30440  0.23690  Biso   1.000  H
  H27      1.0000 0.57380  0.19560  0.73690  Biso   1.000  H
  H28      1.0000 0.92620  0.69560  0.76310  Biso   1.000  H
  C41      1.0000 0.34320  0.82800  0.14870  Biso   1.000  C
  C42      1.0000 0.15680  0.32800  0.35130  Biso   1.000  C
  C43      1.0000 0.65680  0.17200  0.85130  Biso   1.000  C
  C44      1.0000 0.84320  0.67200  0.64870  Biso   1.000  C
  H29      1.0000 0.33940  0.76090  0.13550  Biso   1.000  H
  H30      1.0000 0.16060  0.26090  0.36450  Biso   1.000  H
  H31      1.0000 0.66060  0.23910  0.86450  Biso   1.000  H
  H32      1.0000 0.83940  0.73910  0.63550  Biso   1.000  H
  C45      1.0000 0.30660  0.99160  0.11160  Biso   1.000  C
  C46      1.0000 0.19340  0.49160  0.38840  Biso   1.000  C
  C47      1.0000 0.69340  0.00840  0.88840  Biso   1.000  C
  C48      1.0000 0.80660  0.50840  0.61160  Biso   1.000  C
  H33      1.0000 0.28260  0.03950  0.07180  Biso   1.000  H
  H34      1.0000 0.21740  0.53950  0.42820  Biso   1.000  H
  H35      1.0000 0.71740  0.96050  0.92820  Biso   1.000  H
  H36      1.0000 0.78260  0.46050  0.57180  Biso   1.000  H
  C49      1.0000 0.34810  0.02320  0.19050  Biso   1.000  C
  C50      1.0000 0.15190  0.52320  0.30950  Biso   1.000  C
  C51      1.0000 0.65190  0.97680  0.80950  Biso   1.000  C
  C52      1.0000 0.84810  0.47680  0.69050  Biso   1.000  C
  H37      1.0000 0.34650  0.09020  0.20350  Biso   1.000  H
  H38      1.0000 0.15350  0.59020  0.29650  Biso   1.000  H
  H39      1.0000 0.65350  0.90980  0.79650  Biso   1.000  H
  H40      1.0000 0.84650  0.40980  0.70350  Biso   1.000  H
  C53      1.0000 0.05340  0.92380  0.61300  Biso   1.000  C
  C54      1.0000 0.44660  0.42380  0.88700  Biso   1.000  C
  C55      1.0000 0.94660  0.07620  0.38700  Biso   1.000  C
  C56      1.0000 0.55340  0.57620  0.11300  Biso   1.000  C
  C57      1.0000 0.08980  0.90700  0.70230  Biso   1.000  C
  C58      1.0000 0.41020  0.40700  0.79770  Biso   1.000  C
  C59      1.0000 0.91020  0.09300  0.29770  Biso   1.000  C
  C60      1.0000 0.58980  0.59300  0.20230  Biso   1.000  C
  C61      1.0000 0.98440  0.90350  0.74910  Biso   1.000  C
  C62      1.0000 0.51560  0.40350  0.75090  Biso   1.000  C
  C63      1.0000 0.01560  0.09650  0.25090  Biso   1.000  C
  C64      1.0000 0.48440  0.59650  0.24910  Biso   1.000  C
  H41      1.0000 0.88710  0.91030  0.72520  Biso   1.000  H
  H42      1.0000 0.61290  0.41030  0.77480  Biso   1.000  H
  H43      1.0000 0.11290  0.08970  0.27480  Biso   1.000  H
  H44      1.0000 0.38710  0.58970  0.22520  Biso   1.000  H
  C65      1.0000 0.02290  0.89030  0.82930  Biso   1.000  C
  C66      1.0000 0.47710  0.39030  0.67070  Biso   1.000  C
  C67      1.0000 0.97710  0.10970  0.17070  Biso   1.000  C
  C68      1.0000 0.52290  0.60970  0.32930  Biso   1.000  C
  H45      1.0000 0.95030  0.89080  0.85950  Biso   1.000  H
  H46      1.0000 0.54970  0.39080  0.64050  Biso   1.000  H
  H47      1.0000 0.04970  0.10920  0.14050  Biso   1.000  H
  H48      1.0000 0.45030  0.60920  0.35950  Biso   1.000  H
  C69      1.0000 0.26270  0.88110  0.82210  Biso   1.000  C
  C70      1.0000 0.23730  0.38110  0.67790  Biso   1.000  C
  C71      1.0000 0.73730  0.11890  0.17790  Biso   1.000  C
  C72      1.0000 0.76270  0.61890  0.32210  Biso   1.000  C
  H49      1.0000 0.35940  0.87380  0.84700  Biso   1.000  H
  H50      1.0000 0.14060  0.37380  0.65300  Biso   1.000  H
  H51      1.0000 0.64060  0.12620  0.15300  Biso   1.000  H
  H52      1.0000 0.85940  0.62620  0.34700  Biso   1.000  H
  C73      1.0000 0.23170  0.89600  0.74160  Biso   1.000  C
  C74      1.0000 0.26830  0.39600  0.75840  Biso   1.000  C
  C75      1.0000 0.76830  0.10400  0.25840  Biso   1.000  C
  C76      1.0000 0.73170  0.60400  0.24160  Biso   1.000  C
  H53      1.0000 0.30630  0.89880  0.71280  Biso   1.000  H
  H54      1.0000 0.19370  0.39880  0.78720  Biso   1.000  H
  H55      1.0000 0.69370  0.10120  0.28720  Biso   1.000  H
  H56      1.0000 0.80630  0.60120  0.21280  Biso   1.000  H
