data_image0
_cell_length_a       16.99
_cell_length_b       7.481
_cell_length_c       5.77
_cell_angle_alpha    90
_cell_angle_beta     90
_cell_angle_gamma    90

_symmetry_space_group_name_H-M    "P 1"
_symmetry_int_tables_number       1

loop_
  _symmetry_equiv_pos_as_xyz
  'x, y, z'

loop_
  _atom_site_label
  _atom_site_occupancy
  _atom_site_fract_x
  _atom_site_fract_y
  _atom_site_fract_z
  _atom_site_thermal_displace_type
  _atom_site_B_iso_or_equiv
  _atom_site_type_symbol
  Cu1      1.0000 0.68140  0.40350  0.97970  Biso   1.000  Cu
  Cu2      1.0000 0.18140  0.09650  0.02030  Biso   1.000  Cu
  Cu3      1.0000 0.31860  0.90350  0.52030  Biso   1.000  Cu
  Cu4      1.0000 0.81860  0.59650  0.47970  Biso   1.000  Cu
  Cl1      1.0000 0.79020  0.34780  0.21950  Biso   1.000  Cl
  Cl2      1.0000 0.29020  0.15220  0.78050  Biso   1.000  Cl
  Cl3      1.0000 0.20980  0.84780  0.28050  Biso   1.000  Cl
  Cl4      1.0000 0.70980  0.65220  0.71950  Biso   1.000  Cl
  N1       1.0000 0.60310  0.50690  0.20090  Biso   1.000  N
  N2       1.0000 0.10310  0.99310  0.79910  Biso   1.000  N
  N3       1.0000 0.39690  0.00690  0.29910  Biso   1.000  N
  N4       1.0000 0.89690  0.49310  0.70090  Biso   1.000  N
  C1       1.0000 0.56360  0.56400  0.34120  Biso   1.000  C
  C2       1.0000 0.06360  0.93600  0.65880  Biso   1.000  C
  C3       1.0000 0.43640  0.06400  0.15880  Biso   1.000  C
  C4       1.0000 0.93640  0.43600  0.84120  Biso   1.000  C
  C5       1.0000 0.51310  0.63740  0.52080  Biso   1.000  C
  C6       1.0000 0.01310  0.86260  0.47920  Biso   1.000  C
  C7       1.0000 0.48690  0.13740  0.97920  Biso   1.000  C
  C8       1.0000 0.98690  0.36260  0.02080  Biso   1.000  C
  C9       1.0000 0.43430  0.61470  0.52680  Biso   1.000  C
  C10      1.0000 0.93430  0.88530  0.47320  Biso   1.000  C
  C11      1.0000 0.56570  0.11470  0.97320  Biso   1.000  C
  C12      1.0000 0.06570  0.38530  0.02680  Biso   1.000  C
  C13      1.0000 0.39310  0.49930  0.34770  Biso   1.000  C
  C14      1.0000 0.89310  0.00070  0.65230  Biso   1.000  C
  C15      1.0000 0.60690  0.99930  0.15230  Biso   1.000  C
  C16      1.0000 0.10690  0.50070  0.84770  Biso   1.000  C
  C17      1.0000 0.38820  0.70400  0.70710  Biso   1.000  C
  C18      1.0000 0.88820  0.79600  0.29290  Biso   1.000  C
  C19      1.0000 0.61180  0.20400  0.79290  Biso   1.000  C
  C20      1.0000 0.11180  0.29600  0.20710  Biso   1.000  C
  C21      1.0000 0.31130  0.67630  0.74740  Biso   1.000  C
  C22      1.0000 0.81130  0.82370  0.25260  Biso   1.000  C
  C23      1.0000 0.68870  0.17630  0.75260  Biso   1.000  C
  C24      1.0000 0.18870  0.32370  0.24740  Biso   1.000  C
  H1       1.0000 0.54100  0.68600  0.63600  Biso   1.000  H
  H2       1.0000 0.04100  0.81400  0.36400  Biso   1.000  H
  H3       1.0000 0.45900  0.18600  0.86400  Biso   1.000  H
  H4       1.0000 0.95900  0.31400  0.13600  Biso   1.000  H
  H5       1.0000 0.34900  0.57300  0.25100  Biso   1.000  H
  H6       1.0000 0.84900  0.92700  0.74900  Biso   1.000  H
  H7       1.0000 0.65100  0.07300  0.24900  Biso   1.000  H
  H8       1.0000 0.15100  0.42700  0.75100  Biso   1.000  H
  H9       1.0000 0.37200  0.40000  0.44900  Biso   1.000  H
  H10      1.0000 0.87200  0.10000  0.55100  Biso   1.000  H
  H11      1.0000 0.62800  0.90000  0.05100  Biso   1.000  H
  H12      1.0000 0.12800  0.60000  0.94900  Biso   1.000  H
  H13      1.0000 0.43600  0.48600  0.22100  Biso   1.000  H
  H14      1.0000 0.93600  0.01400  0.77900  Biso   1.000  H
  H15      1.0000 0.56400  0.98600  0.27900  Biso   1.000  H
  H16      1.0000 0.06400  0.51400  0.72100  Biso   1.000  H
  H17      1.0000 0.40700  0.76200  0.82700  Biso   1.000  H
  H18      1.0000 0.90700  0.73800  0.17300  Biso   1.000  H
  H19      1.0000 0.59300  0.26200  0.67300  Biso   1.000  H
  H20      1.0000 0.09300  0.23800  0.32700  Biso   1.000  H
  H21      1.0000 0.29000  0.73400  0.90300  Biso   1.000  H
  H22      1.0000 0.79000  0.76600  0.09700  Biso   1.000  H
  H23      1.0000 0.71000  0.23400  0.59700  Biso   1.000  H
  H24      1.0000 0.21000  0.26600  0.40300  Biso   1.000  H
  H25      1.0000 0.27800  0.59700  0.67000  Biso   1.000  H
  H26      1.0000 0.77800  0.90300  0.33000  Biso   1.000  H
  H27      1.0000 0.72200  0.09700  0.83000  Biso   1.000  H
  H28      1.0000 0.22200  0.40300  0.17000  Biso   1.000  H
