data_image0
_cell_length_a       8.165
_cell_length_b       12.7199
_cell_length_c       15.45
_cell_angle_alpha    102.365
_cell_angle_beta     91.666
_cell_angle_gamma    102.93

_symmetry_space_group_name_H-M    "P 1"
_symmetry_int_tables_number       1

loop_
  _symmetry_equiv_pos_as_xyz
  'x, y, z'

loop_
  _atom_site_label
  _atom_site_occupancy
  _atom_site_fract_x
  _atom_site_fract_y
  _atom_site_fract_z
  _atom_site_thermal_displace_type
  _atom_site_B_iso_or_equiv
  _atom_site_type_symbol
  Cu1      1.0000 0.95410  0.86916  0.67476  Biso   1.000  Cu
  Cu2      1.0000 0.04590  0.13084  0.32524  Biso   1.000  Cu
  O1       1.0000 0.48890  0.32030  0.56280  Biso   1.000  O
  O2       1.0000 0.51110  0.67970  0.43720  Biso   1.000  O
  N1       1.0000 0.09480  0.97820  0.61350  Biso   1.000  N
  N2       1.0000 0.90520  0.02180  0.38650  Biso   1.000  N
  N3       1.0000 0.53720  0.19810  0.44730  Biso   1.000  N
  N4       1.0000 0.46280  0.80190  0.55270  Biso   1.000  N
  N5       1.0000 0.64530  0.30140  0.44900  Biso   1.000  N
  N6       1.0000 0.35470  0.69860  0.55100  Biso   1.000  N
  N7       1.0000 0.83480  0.71200  0.61000  Biso   1.000  N
  N8       1.0000 0.16520  0.28800  0.39000  Biso   1.000  N
  C1       1.0000 0.12930  0.08660  0.65190  Biso   1.000  C
  C2       1.0000 0.87070  0.91340  0.34810  Biso   1.000  C
  H1       1.0000 0.07520  0.10980  0.70210  Biso   1.000  H
  H2       1.0000 0.92480  0.89020  0.29790  Biso   1.000  H
  C3       1.0000 0.24070  0.16490  0.62050  Biso   1.000  C
  C4       1.0000 0.75930  0.83510  0.37950  Biso   1.000  C
  H3       1.0000 0.25960  0.23940  0.64870  Biso   1.000  H
  H4       1.0000 0.74040  0.76060  0.35130  Biso   1.000  H
  C5       1.0000 0.32370  0.13280  0.54770  Biso   1.000  C
  C6       1.0000 0.67630  0.86720  0.45230  Biso   1.000  C
  C7       1.0000 0.44990  0.21360  0.51530  Biso   1.000  C
  C8       1.0000 0.55010  0.78640  0.48470  Biso   1.000  C
  C9       1.0000 0.28750  0.02250  0.50590  Biso   1.000  C
  C10      1.0000 0.71250  0.97750  0.49410  Biso   1.000  C
  H5       1.0000 0.33840  0.99850  0.45470  Biso   1.000  H
  H6       1.0000 0.66160  0.00150  0.54530  Biso   1.000  H
  C11      1.0000 0.17440  0.94780  0.54110  Biso   1.000  C
  C12      1.0000 0.82560  0.05220  0.45890  Biso   1.000  C
  H7       1.0000 0.15250  0.87310  0.51320  Biso   1.000  H
  H8       1.0000 0.84750  0.12690  0.48680  Biso   1.000  H
  C13      1.0000 0.61200  0.36980  0.51680  Biso   1.000  C
  C14      1.0000 0.38800  0.63020  0.48320  Biso   1.000  C
  C15      1.0000 0.68710  0.48740  0.54990  Biso   1.000  C
  C16      1.0000 0.31290  0.51260  0.45010  Biso   1.000  C
  C17      1.0000 0.64280  0.54590  0.62660  Biso   1.000  C
  C18      1.0000 0.35720  0.45410  0.37340  Biso   1.000  C
  H9       1.0000 0.56320  0.51140  0.65970  Biso   1.000  H
  H10      1.0000 0.43680  0.48860  0.34030  Biso   1.000  H
  C19      1.0000 0.71710  0.65570  0.65380  Biso   1.000  C
  C20      1.0000 0.28290  0.34430  0.34620  Biso   1.000  C
  H11      1.0000 0.68490  0.69470  0.70600  Biso   1.000  H
  H12      1.0000 0.31510  0.30530  0.29400  Biso   1.000  H
  C21      1.0000 0.87630  0.65430  0.53540  Biso   1.000  C
  C22      1.0000 0.12370  0.34570  0.46460  Biso   1.000  C
  H13      1.0000 0.95730  0.69090  0.50400  Biso   1.000  H
  H14      1.0000 0.04270  0.30910  0.49600  Biso   1.000  H
  C23      1.0000 0.80580  0.54280  0.50130  Biso   1.000  C
  C24      1.0000 0.19420  0.45720  0.49870  Biso   1.000  C
  H15      1.0000 0.83640  0.50570  0.44780  Biso   1.000  H
  H16      1.0000 0.16360  0.49430  0.55220  Biso   1.000  H
  O3       1.0000 0.61330  0.74400  0.90880  Biso   1.000  O
  O4       1.0000 0.38670  0.25600  0.09120  Biso   1.000  O
  N9       1.0000 0.11260  0.83930  0.76950  Biso   1.000  N
  N10      1.0000 0.88740  0.16070  0.23050  Biso   1.000  N
  N11      1.0000 0.53540  0.84920  0.02520  Biso   1.000  N
  N12      1.0000 0.46460  0.15080  0.97480  Biso   1.000  N
  N13      1.0000 0.67730  0.81730  0.05110  Biso   1.000  N
  N14      1.0000 0.32270  0.18270  0.94890  Biso   1.000  N
  N15      1.0000 0.12880  0.60260  0.96130  Biso   1.000  N
  N16      1.0000 0.87120  0.39740  0.03870  Biso   1.000  N
  C25      1.0000 0.14250  0.89650  0.85480  Biso   1.000  C
  C26      1.0000 0.85750  0.10350  0.14520  Biso   1.000  C
  H17      1.0000 0.07610  0.94570  0.87570  Biso   1.000  H
  H18      1.0000 0.92390  0.05430  0.12430  Biso   1.000  H
  C27      1.0000 0.26450  0.88620  0.91180  Biso   1.000  C
  C28      1.0000 0.73550  0.11380  0.08820  Biso   1.000  C
  H19      1.0000 0.28020  0.92760  0.97010  Biso   1.000  H
  H20      1.0000 0.71980  0.07240  0.02990  Biso   1.000  H
  C29      1.0000 0.36570  0.81340  0.88250  Biso   1.000  C
  C30      1.0000 0.63430  0.18660  0.11750  Biso   1.000  C
  C31      1.0000 0.33340  0.75250  0.79580  Biso   1.000  C
  C32      1.0000 0.66660  0.24750  0.20420  Biso   1.000  C
  H21      1.0000 0.39650  0.70170  0.77360  Biso   1.000  H
  H22      1.0000 0.60350  0.29830  0.22640  Biso   1.000  H
  C33      1.0000 0.20710  0.76800  0.74300  Biso   1.000  C
  C34      1.0000 0.79290  0.23200  0.25700  Biso   1.000  C
  H23      1.0000 0.18650  0.72590  0.68490  Biso   1.000  H
  H24      1.0000 0.81350  0.27410  0.31510  Biso   1.000  H
  C35      1.0000 0.50240  0.80450  0.94090  Biso   1.000  C
  C36      1.0000 0.49760  0.19550  0.05910  Biso   1.000  C
  C37      1.0000 0.71920  0.75540  0.98170  Biso   1.000  C
  C38      1.0000 0.28080  0.24460  0.01830  Biso   1.000  C
  C39      1.0000 0.85680  0.69960  0.97430  Biso   1.000  C
  C40      1.0000 0.14320  0.30040  0.02570  Biso   1.000  C
  C41      1.0000 0.97490  0.71840  0.04530  Biso   1.000  C
  C42      1.0000 0.02510  0.28160  0.95470  Biso   1.000  C
  H25      1.0000 0.96450  0.76470  0.09930  Biso   1.000  H
  H26      1.0000 0.03550  0.23530  0.90070  Biso   1.000  H
  C43      1.0000 0.10470  0.66910  0.03550  Biso   1.000  C
  C44      1.0000 0.89530  0.33090  0.96450  Biso   1.000  C
  H27      1.0000 0.18250  0.68270  0.08400  Biso   1.000  H
  H28      1.0000 0.81750  0.31730  0.91600  Biso   1.000  H
  C45      1.0000 0.01390  0.58370  0.89410  Biso   1.000  C
  C46      1.0000 0.98610  0.41630  0.10590  Biso   1.000  C
  H29      1.0000 0.02730  0.53630  0.84130  Biso   1.000  H
  H30      1.0000 0.97270  0.46370  0.15870  Biso   1.000  H
  C47      1.0000 0.87730  0.62910  0.89700  Biso   1.000  C
  C48      1.0000 0.12270  0.37090  0.10300  Biso   1.000  C
  H31      1.0000 0.80000  0.61260  0.84770  Biso   1.000  H
  H32      1.0000 0.20000  0.38740  0.15230  Biso   1.000  H
  N17      1.0000 0.78020  0.94510  0.73580  Biso   1.000  N
  N18      1.0000 0.21980  0.05490  0.26420  Biso   1.000  N
  C49      1.0000 0.67640  0.98920  0.74610  Biso   1.000  C
  C50      1.0000 0.32360  0.01080  0.25390  Biso   1.000  C
  C51      1.0000 0.53980  0.04670  0.75360  Biso   1.000  C
  C52      1.0000 0.46020  0.95330  0.24640  Biso   1.000  C
  H33      1.0000 0.44200  0.00050  0.71720  Biso   1.000  H
  H34      1.0000 0.55800  0.99950  0.28280  Biso   1.000  H
  H35      1.0000 0.57430  0.11450  0.73420  Biso   1.000  H
  H36      1.0000 0.42570  0.88550  0.26580  Biso   1.000  H
  H37      1.0000 0.51320  0.06280  0.81450  Biso   1.000  H
  H38      1.0000 0.48680  0.93720  0.18550  Biso   1.000  H
  F1       1.0000 0.75620  0.36390  0.73780  Biso   1.000  F
  F2       1.0000 0.24380  0.63610  0.26220  Biso   1.000  F
  B1       1.0000 0.85120  0.30490  0.69690  Biso   1.000  B
  B2       1.0000 0.14880  0.69510  0.30310  Biso   1.000  B
  F3       1.0000 0.94060  0.26860  0.75110  Biso   1.000  F
  F4       1.0000 0.05940  0.73140  0.24890  Biso   1.000  F
  F5       1.0000 0.76650  0.22320  0.62980  Biso   1.000  F
  F6       1.0000 0.23350  0.77680  0.37020  Biso   1.000  F
  F7       1.0000 0.95360  0.37420  0.65660  Biso   1.000  F
  F8       1.0000 0.04640  0.62580  0.34340  Biso   1.000  F
  O5       1.0000 0.41700  0.50250  0.91070  Biso   1.000  O
  O6       1.0000 0.58300  0.49750  0.08930  Biso   1.000  O
  H39      1.0000 0.38960  0.44430  0.85590  Biso   1.000  H
  H40      1.0000 0.61040  0.55570  0.14410  Biso   1.000  H
  H41      1.0000 0.34420  0.54900  0.93940  Biso   1.000  H
  H42      1.0000 0.65580  0.45100  0.06060  Biso   1.000  H
  O7       1.0000 0.30500  0.47050  0.73850  Biso   1.000  O
  O8       1.0000 0.69500  0.52950  0.26150  Biso   1.000  O
  H43      1.0000 0.19020  0.48150  0.73320  Biso   1.000  H
  H44      1.0000 0.80980  0.51850  0.26680  Biso   1.000  H
  H45      1.0000 0.34430  0.45030  0.67930  Biso   1.000  H
  H46      1.0000 0.65570  0.54970  0.32070  Biso   1.000  H
