data_image0
_cell_length_a       6.389
_cell_length_b       7.762
_cell_length_c       9.041
_cell_angle_alpha    81.54
_cell_angle_beta     83.69
_cell_angle_gamma    81.86

_symmetry_space_group_name_H-M    "P 1"
_symmetry_int_tables_number       1

loop_
  _symmetry_equiv_pos_as_xyz
  'x, y, z'

loop_
  _atom_site_label
  _atom_site_occupancy
  _atom_site_fract_x
  _atom_site_fract_y
  _atom_site_fract_z
  _atom_site_thermal_displace_type
  _atom_site_B_iso_or_equiv
  _atom_site_type_symbol
  Cu1      1.0000 0.37180  0.09210  0.24937  Biso   1.000  Cu
  Cu2      1.0000 0.62820  0.90790  0.75063  Biso   1.000  Cu
  N1       1.0000 0.10840  0.27730  0.21920  Biso   1.000  N
  N2       1.0000 0.89160  0.72270  0.78080  Biso   1.000  N
  C1       1.0000 0.46800  0.02440  0.44240  Biso   1.000  C
  C2       1.0000 0.53200  0.97560  0.55760  Biso   1.000  C
  C3       1.0000 0.46780  0.01880  0.06020  Biso   1.000  C
  C4       1.0000 0.53220  0.98120  0.93980  Biso   1.000  C
  C5       1.0000 0.95700  0.24210  0.14940  Biso   1.000  C
  C6       1.0000 0.04300  0.75790  0.85060  Biso   1.000  C
  C7       1.0000 0.77700  0.36100  0.11020  Biso   1.000  C
  C8       1.0000 0.22300  0.63900  0.88980  Biso   1.000  C
  C9       1.0000 0.75600  0.52400  0.15200  Biso   1.000  C
  C10      1.0000 0.24400  0.47600  0.84800  Biso   1.000  C
  C11      1.0000 0.91300  0.56920  0.23310  Biso   1.000  C
  C12      1.0000 0.08700  0.43080  0.76690  Biso   1.000  C
  C13      1.0000 0.90100  0.73190  0.28280  Biso   1.000  C
  C14      1.0000 0.09900  0.26810  0.71720  Biso   1.000  C
  C15      1.0000 0.05600  0.76910  0.35760  Biso   1.000  C
  C16      1.0000 0.94400  0.23090  0.64240  Biso   1.000  C
  C17      1.0000 0.23000  0.64200  0.39240  Biso   1.000  C
  C18      1.0000 0.77000  0.35800  0.60760  Biso   1.000  C
  C19      1.0000 0.24800  0.48260  0.34700  Biso   1.000  C
  C20      1.0000 0.75200  0.51740  0.65300  Biso   1.000  C
  C21      1.0000 0.09030  0.44490  0.26510  Biso   1.000  C
  C22      1.0000 0.90970  0.55510  0.73490  Biso   1.000  C
  H1       1.0000 0.96688  0.12853  0.11746  Biso   1.000  H
  H2       1.0000 0.03312  0.87147  0.88254  Biso   1.000  H
  H3       1.0000 0.66639  0.32339  0.06575  Biso   1.000  H
  H4       1.0000 0.33361  0.67661  0.93425  Biso   1.000  H
  H5       1.0000 0.63525  0.60868  0.12521  Biso   1.000  H
  H6       1.0000 0.36475  0.39132  0.87479  Biso   1.000  H
  H7       1.0000 0.77868  0.82009  0.26776  Biso   1.000  H
  H8       1.0000 0.22132  0.17991  0.73224  Biso   1.000  H
  H9       1.0000 0.05167  0.88564  0.38287  Biso   1.000  H
  H10      1.0000 0.94833  0.11436  0.61713  Biso   1.000  H
  H11      1.0000 0.34317  0.67293  0.44262  Biso   1.000  H
  H12      1.0000 0.65683  0.32707  0.55738  Biso   1.000  H
  H13      1.0000 0.37060  0.39612  0.36929  Biso   1.000  H
  H14      1.0000 0.62940  0.60388  0.63071  Biso   1.000  H
