data_image0
_cell_length_a       11.126
_cell_length_b       13.908
_cell_length_c       13.917
_cell_angle_alpha    90
_cell_angle_beta     90
_cell_angle_gamma    90

_symmetry_space_group_name_H-M    "P 1"
_symmetry_int_tables_number       1

loop_
  _symmetry_equiv_pos_as_xyz
  'x, y, z'

loop_
  _atom_site_label
  _atom_site_occupancy
  _atom_site_fract_x
  _atom_site_fract_y
  _atom_site_fract_z
  _atom_site_thermal_displace_type
  _atom_site_B_iso_or_equiv
  _atom_site_type_symbol
  Cu1      1.0000 0.86860  0.87090  0.85040  Biso   1.000  Cu
  Cu2      1.0000 0.63140  0.12910  0.35040  Biso   1.000  Cu
  Cu3      1.0000 0.36860  0.62910  0.14960  Biso   1.000  Cu
  Cu4      1.0000 0.13140  0.37090  0.64960  Biso   1.000  Cu
  Cu5      1.0000 0.52590  0.91400  0.62300  Biso   1.000  Cu
  Cu6      1.0000 0.97410  0.08600  0.12300  Biso   1.000  Cu
  Cu7      1.0000 0.02590  0.58600  0.37700  Biso   1.000  Cu
  Cu8      1.0000 0.47410  0.41400  0.87700  Biso   1.000  Cu
  C1       1.0000 0.65500  0.88400  0.71800  Biso   1.000  C
  C2       1.0000 0.84500  0.11600  0.21800  Biso   1.000  C
  C3       1.0000 0.15500  0.61600  0.28200  Biso   1.000  C
  C4       1.0000 0.34500  0.38400  0.78200  Biso   1.000  C
  N1       1.0000 0.73800  0.87800  0.77200  Biso   1.000  N
  N2       1.0000 0.76200  0.12200  0.27200  Biso   1.000  N
  N3       1.0000 0.23800  0.62200  0.22800  Biso   1.000  N
  N4       1.0000 0.26200  0.37800  0.72800  Biso   1.000  N
  C5       1.0000 0.94200  0.00200  0.01300  Biso   1.000  C
  C6       1.0000 0.55800  0.99800  0.51300  Biso   1.000  C
  C7       1.0000 0.44200  0.49800  0.98700  Biso   1.000  C
  C8       1.0000 0.05800  0.50200  0.48700  Biso   1.000  C
  N5       1.0000 0.91200  0.95200  0.94900  Biso   1.000  N
  N6       1.0000 0.58800  0.04800  0.44900  Biso   1.000  N
  N7       1.0000 0.41200  0.54800  0.05100  Biso   1.000  N
  N8       1.0000 0.08800  0.45200  0.55100  Biso   1.000  N
  N9       1.0000 0.00200  0.76500  0.85300  Biso   1.000  N
  N10      1.0000 0.49800  0.23500  0.35300  Biso   1.000  N
  N11      1.0000 0.50200  0.73500  0.14700  Biso   1.000  N
  N12      1.0000 0.99800  0.26500  0.64700  Biso   1.000  N
  C9       1.0000 0.05800  0.72900  0.78000  Biso   1.000  C
  C10      1.0000 0.44200  0.27100  0.28000  Biso   1.000  C
  C11      1.0000 0.55800  0.77100  0.22000  Biso   1.000  C
  C12      1.0000 0.94200  0.22900  0.72000  Biso   1.000  C
  C13      1.0000 0.01400  0.76800  0.68700  Biso   1.000  C
  C14      1.0000 0.48600  0.23200  0.18700  Biso   1.000  C
  C15      1.0000 0.51400  0.73200  0.31300  Biso   1.000  C
  C16      1.0000 0.98600  0.26800  0.81300  Biso   1.000  C
  C17      1.0000 0.14100  0.64600  0.78200  Biso   1.000  C
  C18      1.0000 0.35900  0.35400  0.28200  Biso   1.000  C
  C19      1.0000 0.64100  0.85400  0.21800  Biso   1.000  C
  C20      1.0000 0.85900  0.14600  0.71800  Biso   1.000  C
  C21      1.0000 0.16400  0.63200  0.87800  Biso   1.000  C
  C22      1.0000 0.33600  0.36800  0.37800  Biso   1.000  C
  C23      1.0000 0.66400  0.86800  0.12200  Biso   1.000  C
  C24      1.0000 0.83600  0.13200  0.62200  Biso   1.000  C
  C25      1.0000 0.11700  0.66500  0.95000  Biso   1.000  C
  C26      1.0000 0.38300  0.33500  0.45000  Biso   1.000  C
  C27      1.0000 0.61700  0.83500  0.05000  Biso   1.000  C
  C28      1.0000 0.88300  0.16500  0.55000  Biso   1.000  C
  C29      1.0000 0.03400  0.73200  0.94300  Biso   1.000  C
  C30      1.0000 0.46600  0.26800  0.44300  Biso   1.000  C
  C31      1.0000 0.53400  0.76800  0.05700  Biso   1.000  C
  C32      1.0000 0.96600  0.23200  0.55700  Biso   1.000  C
  H1       1.0000 0.93186  0.75020  0.66179  Biso   1.000  H
  H2       1.0000 0.56814  0.24980  0.16179  Biso   1.000  H
  H3       1.0000 0.43186  0.74980  0.33821  Biso   1.000  H
  H4       1.0000 0.06814  0.25020  0.83821  Biso   1.000  H
  H5       1.0000 0.06411  0.74593  0.62673  Biso   1.000  H
  H6       1.0000 0.43589  0.25407  0.12673  Biso   1.000  H
  H7       1.0000 0.56411  0.75407  0.37327  Biso   1.000  H
  H8       1.0000 0.93589  0.24593  0.87327  Biso   1.000  H
  H9       1.0000 0.01509  0.83725  0.67701  Biso   1.000  H
  H10      1.0000 0.48491  0.16275  0.17701  Biso   1.000  H
  H11      1.0000 0.51509  0.66275  0.32299  Biso   1.000  H
  H12      1.0000 0.98491  0.33725  0.82299  Biso   1.000  H
  H13      1.0000 0.16981  0.63020  0.72183  Biso   1.000  H
  H14      1.0000 0.33019  0.36980  0.22183  Biso   1.000  H
  H15      1.0000 0.66981  0.86980  0.27817  Biso   1.000  H
  H16      1.0000 0.83019  0.13020  0.77817  Biso   1.000  H
  H17      1.0000 0.22933  0.56981  0.87218  Biso   1.000  H
  H18      1.0000 0.27067  0.43019  0.37218  Biso   1.000  H
  H19      1.0000 0.72933  0.93019  0.12782  Biso   1.000  H
  H20      1.0000 0.77067  0.06981  0.62782  Biso   1.000  H
  H21      1.0000 0.14562  0.63352  0.01365  Biso   1.000  H
  H22      1.0000 0.35438  0.36648  0.51365  Biso   1.000  H
  H23      1.0000 0.64562  0.86648  0.98635  Biso   1.000  H
  H24      1.0000 0.85438  0.13352  0.48635  Biso   1.000  H
  H25      1.0000 0.00234  0.75719  0.00462  Biso   1.000  H
  H26      1.0000 0.49766  0.24281  0.50462  Biso   1.000  H
  H27      1.0000 0.50234  0.74281  0.99538  Biso   1.000  H
  H28      1.0000 0.99766  0.25719  0.49538  Biso   1.000  H
  N13      1.0000 0.44700  0.77500  0.59400  Biso   1.000  N
  N14      1.0000 0.05300  0.22500  0.09400  Biso   1.000  N
  N15      1.0000 0.94700  0.72500  0.40600  Biso   1.000  N
  N16      1.0000 0.55300  0.27500  0.90600  Biso   1.000  N
  C33      1.0000 0.35700  0.76300  0.53400  Biso   1.000  C
  C34      1.0000 0.14300  0.23700  0.03400  Biso   1.000  C
  C35      1.0000 0.85700  0.73700  0.46600  Biso   1.000  C
  C36      1.0000 0.64300  0.26300  0.96600  Biso   1.000  C
  C37      1.0000 0.29100  0.84400  0.49300  Biso   1.000  C
  C38      1.0000 0.20900  0.15600  0.99300  Biso   1.000  C
  C39      1.0000 0.79100  0.65600  0.50700  Biso   1.000  C
  C40      1.0000 0.70900  0.34400  0.00700  Biso   1.000  C
  C41      1.0000 0.30400  0.66200  0.53000  Biso   1.000  C
  C42      1.0000 0.19600  0.33800  0.03000  Biso   1.000  C
  C43      1.0000 0.80400  0.83800  0.47000  Biso   1.000  C
  C44      1.0000 0.69600  0.16200  0.97000  Biso   1.000  C
  C45      1.0000 0.36100  0.59300  0.57800  Biso   1.000  C
  C46      1.0000 0.13900  0.40700  0.07800  Biso   1.000  C
  C47      1.0000 0.86100  0.90700  0.42200  Biso   1.000  C
  C48      1.0000 0.63900  0.09300  0.92200  Biso   1.000  C
  C49      1.0000 0.44600  0.60300  0.63300  Biso   1.000  C
  C50      1.0000 0.05400  0.39700  0.13300  Biso   1.000  C
  C51      1.0000 0.94600  0.89700  0.36700  Biso   1.000  C
  C52      1.0000 0.55400  0.10300  0.86700  Biso   1.000  C
  C53      1.0000 0.50700  0.70300  0.64100  Biso   1.000  C
  C54      1.0000 0.99300  0.29700  0.14100  Biso   1.000  C
  C55      1.0000 0.00700  0.79700  0.35900  Biso   1.000  C
  C56      1.0000 0.49300  0.20300  0.85900  Biso   1.000  C
  H29      1.0000 0.33686  0.86268  0.42771  Biso   1.000  H
  H30      1.0000 0.16314  0.13732  0.92771  Biso   1.000  H
  H31      1.0000 0.83686  0.63732  0.57229  Biso   1.000  H
  H32      1.0000 0.66314  0.36268  0.07229  Biso   1.000  H
  H33      1.0000 0.21236  0.83496  0.46957  Biso   1.000  H
  H34      1.0000 0.28764  0.16504  0.96957  Biso   1.000  H
  H35      1.0000 0.71236  0.66504  0.53043  Biso   1.000  H
  H36      1.0000 0.78764  0.33496  0.03043  Biso   1.000  H
  H37      1.0000 0.29401  0.90076  0.52621  Biso   1.000  H
  H38      1.0000 0.20599  0.09924  0.02621  Biso   1.000  H
  H39      1.0000 0.79401  0.59924  0.47379  Biso   1.000  H
  H40      1.0000 0.70599  0.40076  0.97379  Biso   1.000  H
  H41      1.0000 0.23664  0.65894  0.48580  Biso   1.000  H
  H42      1.0000 0.26336  0.34106  0.98580  Biso   1.000  H
  H43      1.0000 0.73664  0.84106  0.51420  Biso   1.000  H
  H44      1.0000 0.76336  0.15894  0.01420  Biso   1.000  H
  H45      1.0000 0.32462  0.52844  0.56689  Biso   1.000  H
  H46      1.0000 0.17538  0.47156  0.06689  Biso   1.000  H
  H47      1.0000 0.82462  0.97156  0.43311  Biso   1.000  H
  H48      1.0000 0.67538  0.02844  0.93311  Biso   1.000  H
  H49      1.0000 0.49209  0.55332  0.66666  Biso   1.000  H
  H50      1.0000 0.00791  0.44668  0.16666  Biso   1.000  H
  H51      1.0000 0.99209  0.94668  0.33334  Biso   1.000  H
  H52      1.0000 0.50791  0.05332  0.83334  Biso   1.000  H
  H53      1.0000 0.57140  0.70883  0.68559  Biso   1.000  H
  H54      1.0000 0.92860  0.29117  0.18559  Biso   1.000  H
  H55      1.0000 0.07140  0.79117  0.31441  Biso   1.000  H
  H56      1.0000 0.42860  0.20883  0.81441  Biso   1.000  H
  N17      1.0000 0.37600  0.96400  0.70800  Biso   1.000  N
  N18      1.0000 0.12400  0.03600  0.20800  Biso   1.000  N
  N19      1.0000 0.87600  0.53600  0.29200  Biso   1.000  N
  N20      1.0000 0.62400  0.46400  0.79200  Biso   1.000  N
  C57      1.0000 0.32700  0.91500  0.78500  Biso   1.000  C
  C58      1.0000 0.17300  0.08500  0.28500  Biso   1.000  C
  C59      1.0000 0.82700  0.58500  0.21500  Biso   1.000  C
  C60      1.0000 0.67300  0.41500  0.71500  Biso   1.000  C
  C61      1.0000 0.39500  0.83100  0.83000  Biso   1.000  C
  C62      1.0000 0.10500  0.16900  0.33000  Biso   1.000  C
  C63      1.0000 0.89500  0.66900  0.17000  Biso   1.000  C
  C64      1.0000 0.60500  0.33100  0.67000  Biso   1.000  C
  C65      1.0000 0.22100  0.94700  0.82700  Biso   1.000  C
  C66      1.0000 0.27900  0.05300  0.32700  Biso   1.000  C
  C67      1.0000 0.72100  0.55300  0.17300  Biso   1.000  C
  C68      1.0000 0.77900  0.44700  0.67300  Biso   1.000  C
  C69      1.0000 0.15300  0.01700  0.78100  Biso   1.000  C
  C70      1.0000 0.34700  0.98300  0.28100  Biso   1.000  C
  C71      1.0000 0.65300  0.48300  0.21900  Biso   1.000  C
  C72      1.0000 0.84700  0.51700  0.71900  Biso   1.000  C
  C73      1.0000 0.19800  0.06300  0.69900  Biso   1.000  C
  C74      1.0000 0.30200  0.93700  0.19900  Biso   1.000  C
  C75      1.0000 0.69800  0.43700  0.30100  Biso   1.000  C
  C76      1.0000 0.80200  0.56300  0.80100  Biso   1.000  C
  C77      1.0000 0.31100  0.04000  0.66400  Biso   1.000  C
  C78      1.0000 0.18900  0.96000  0.16400  Biso   1.000  C
  C79      1.0000 0.81100  0.46000  0.33600  Biso   1.000  C
  C80      1.0000 0.68900  0.54000  0.83600  Biso   1.000  C
  H57      1.0000 0.45054  0.85804  0.87302  Biso   1.000  H
  H58      1.0000 0.04946  0.14196  0.37302  Biso   1.000  H
  H59      1.0000 0.95054  0.64196  0.12698  Biso   1.000  H
  H60      1.0000 0.54946  0.35804  0.62698  Biso   1.000  H
  H61      1.0000 0.33654  0.79548  0.86842  Biso   1.000  H
  H62      1.0000 0.16346  0.20452  0.36842  Biso   1.000  H
  H63      1.0000 0.83654  0.70452  0.13158  Biso   1.000  H
  H64      1.0000 0.66346  0.29548  0.63158  Biso   1.000  H
  H65      1.0000 0.42696  0.79444  0.78358  Biso   1.000  H
  H66      1.0000 0.07304  0.20556  0.28358  Biso   1.000  H
  H67      1.0000 0.92696  0.70556  0.21642  Biso   1.000  H
  H68      1.0000 0.57304  0.29444  0.71642  Biso   1.000  H
  H69      1.0000 0.17756  0.91408  0.87450  Biso   1.000  H
  H70      1.0000 0.32244  0.08592  0.37450  Biso   1.000  H
  H71      1.0000 0.67756  0.58592  0.12550  Biso   1.000  H
  H72      1.0000 0.82244  0.41408  0.62550  Biso   1.000  H
  H73      1.0000 0.07433  0.04267  0.80259  Biso   1.000  H
  H74      1.0000 0.42567  0.95733  0.30259  Biso   1.000  H
  H75      1.0000 0.57433  0.45733  0.19741  Biso   1.000  H
  H76      1.0000 0.92567  0.54267  0.69741  Biso   1.000  H
  H77      1.0000 0.15854  0.12257  0.66989  Biso   1.000  H
  H78      1.0000 0.34146  0.87743  0.16989  Biso   1.000  H
  H79      1.0000 0.65854  0.37743  0.33011  Biso   1.000  H
  H80      1.0000 0.84146  0.62257  0.83011  Biso   1.000  H
  H81      1.0000 0.34584  0.07384  0.60921  Biso   1.000  H
  H82      1.0000 0.15416  0.92616  0.10921  Biso   1.000  H
  H83      1.0000 0.84584  0.42616  0.39079  Biso   1.000  H
  H84      1.0000 0.65416  0.57384  0.89079  Biso   1.000  H
