data_image0
_cell_length_a       8.6847
_cell_length_b       6.4457
_cell_length_c       9.591
_cell_angle_alpha    90
_cell_angle_beta     90
_cell_angle_gamma    90

_symmetry_space_group_name_H-M    "P 1"
_symmetry_int_tables_number       1

loop_
  _symmetry_equiv_pos_as_xyz
  'x, y, z'

loop_
  _atom_site_label
  _atom_site_occupancy
  _atom_site_fract_x
  _atom_site_fract_y
  _atom_site_fract_z
  _atom_site_thermal_displace_type
  _atom_site_B_iso_or_equiv
  _atom_site_type_symbol
  Cu1      1.0000 0.52528  0.25000  0.12293  Biso   1.000  Cu
  Cu2      1.0000 0.97472  0.75000  0.62293  Biso   1.000  Cu
  Cu3      1.0000 0.02528  0.25000  0.37707  Biso   1.000  Cu
  Cu4      1.0000 0.47472  0.75000  0.87707  Biso   1.000  Cu
  C1       1.0000 0.72250  0.25000  0.20740  Biso   1.000  C
  C2       1.0000 0.77750  0.75000  0.70740  Biso   1.000  C
  C3       1.0000 0.22250  0.25000  0.29260  Biso   1.000  C
  C4       1.0000 0.27750  0.75000  0.79260  Biso   1.000  C
  N1       1.0000 0.83610  0.25000  0.27180  Biso   1.000  N
  N2       1.0000 0.66390  0.75000  0.77180  Biso   1.000  N
  N3       1.0000 0.33610  0.25000  0.22820  Biso   1.000  N
  N4       1.0000 0.16390  0.75000  0.72820  Biso   1.000  N
  N5       1.0000 0.48750  0.25000  0.92040  Biso   1.000  N
  N6       1.0000 0.01250  0.75000  0.42040  Biso   1.000  N
  N7       1.0000 0.98750  0.25000  0.57960  Biso   1.000  N
  N8       1.0000 0.51250  0.75000  0.07960  Biso   1.000  N
  C5       1.0000 0.45530  0.25000  0.80530  Biso   1.000  C
  C6       1.0000 0.04470  0.75000  0.30530  Biso   1.000  C
  C7       1.0000 0.95530  0.25000  0.69470  Biso   1.000  C
  C8       1.0000 0.54470  0.75000  0.19470  Biso   1.000  C
  C9       1.0000 0.41620  0.25000  0.65720  Biso   1.000  C
  C10      1.0000 0.08380  0.75000  0.15720  Biso   1.000  C
  C11      1.0000 0.91620  0.25000  0.84280  Biso   1.000  C
  C12      1.0000 0.58380  0.75000  0.34280  Biso   1.000  C
  C13      1.0000 0.56100  0.25000  0.56580  Biso   1.000  C
  C14      1.0000 0.93900  0.75000  0.06580  Biso   1.000  C
  C15      1.0000 0.06100  0.25000  0.93420  Biso   1.000  C
  C16      1.0000 0.43900  0.75000  0.43420  Biso   1.000  C
  H1       1.0000 0.35564  0.37034  0.63636  Biso   1.000  H
  H2       1.0000 0.14436  0.62966  0.13636  Biso   1.000  H
  H3       1.0000 0.85564  0.12966  0.86364  Biso   1.000  H
  H4       1.0000 0.64436  0.87034  0.36364  Biso   1.000  H
  H5       1.0000 0.64436  0.62966  0.36364  Biso   1.000  H
  H6       1.0000 0.85564  0.37034  0.86364  Biso   1.000  H
  H7       1.0000 0.14436  0.87034  0.13636  Biso   1.000  H
  H8       1.0000 0.35564  0.12966  0.63636  Biso   1.000  H
  H9       1.0000 0.53381  0.25000  0.47043  Biso   1.000  H
  H10      1.0000 0.96619  0.75000  0.97043  Biso   1.000  H
  H11      1.0000 0.03381  0.25000  0.02957  Biso   1.000  H
  H12      1.0000 0.46619  0.75000  0.52957  Biso   1.000  H
  H13      1.0000 0.62659  0.36118  0.59305  Biso   1.000  H
  H14      1.0000 0.87341  0.63882  0.09305  Biso   1.000  H
  H15      1.0000 0.12659  0.13882  0.90695  Biso   1.000  H
  H16      1.0000 0.37341  0.86118  0.40695  Biso   1.000  H
  H17      1.0000 0.37341  0.63882  0.40695  Biso   1.000  H
  H18      1.0000 0.12659  0.36118  0.90695  Biso   1.000  H
  H19      1.0000 0.87341  0.86118  0.09305  Biso   1.000  H
  H20      1.0000 0.62659  0.13882  0.59305  Biso   1.000  H
