data_image0
_cell_length_a       11.999
_cell_length_b       6.6364
_cell_length_c       12.815
_cell_angle_alpha    90
_cell_angle_beta     110.683
_cell_angle_gamma    90

_symmetry_space_group_name_H-M    "P 1"
_symmetry_int_tables_number       1

loop_
  _symmetry_equiv_pos_as_xyz
  'x, y, z'

loop_
  _atom_site_label
  _atom_site_occupancy
  _atom_site_fract_x
  _atom_site_fract_y
  _atom_site_fract_z
  _atom_site_thermal_displace_type
  _atom_site_B_iso_or_equiv
  _atom_site_type_symbol
  Cu1      1.0000 0.78790  0.03242  0.37998  Biso   1.000  Cu
  Cu2      1.0000 0.71210  0.53242  0.12002  Biso   1.000  Cu
  Cu3      1.0000 0.21210  0.96758  0.62002  Biso   1.000  Cu
  Cu4      1.0000 0.28790  0.46758  0.87998  Biso   1.000  Cu
  C1       1.0000 0.68180  0.00550  0.23270  Biso   1.000  C
  C2       1.0000 0.81820  0.50550  0.26730  Biso   1.000  C
  C3       1.0000 0.31820  0.99450  0.76730  Biso   1.000  C
  C4       1.0000 0.18180  0.49450  0.73270  Biso   1.000  C
  N1       1.0000 0.61350  0.99970  0.14280  Biso   1.000  N
  N2       1.0000 0.88650  0.49970  0.35720  Biso   1.000  N
  N3       1.0000 0.38650  0.00030  0.85720  Biso   1.000  N
  N4       1.0000 0.11350  0.50030  0.64280  Biso   1.000  N
  N5       1.0000 0.70010  0.13500  0.48060  Biso   1.000  N
  N6       1.0000 0.79990  0.63500  0.01940  Biso   1.000  N
  N7       1.0000 0.29990  0.86500  0.51940  Biso   1.000  N
  N8       1.0000 0.20010  0.36500  0.98060  Biso   1.000  N
  C5       1.0000 0.95320  0.01600  0.46980  Biso   1.000  C
  C6       1.0000 0.54680  0.51600  0.03020  Biso   1.000  C
  C7       1.0000 0.04680  0.98400  0.53020  Biso   1.000  C
  C8       1.0000 0.45320  0.48400  0.96980  Biso   1.000  C
  N9       1.0000 0.94760  0.99670  0.47260  Biso   1.000  N
  N10      1.0000 0.55240  0.49670  0.02740  Biso   1.000  N
  N11      1.0000 0.05240  0.00330  0.52740  Biso   1.000  N
  N12      1.0000 0.44760  0.50330  0.97260  Biso   1.000  N
  C9       1.0000 0.66330  0.23570  0.53300  Biso   1.000  C
  C10      1.0000 0.83670  0.73570  0.96700  Biso   1.000  C
  C11      1.0000 0.33670  0.76430  0.46700  Biso   1.000  C
  C12      1.0000 0.16330  0.26430  0.03300  Biso   1.000  C
  C13      1.0000 0.61860  0.36470  0.59930  Biso   1.000  C
  C14      1.0000 0.88140  0.86470  0.90070  Biso   1.000  C
  C15      1.0000 0.38140  0.63530  0.40070  Biso   1.000  C
  C16      1.0000 0.11860  0.13530  0.09930  Biso   1.000  C
  C17      1.0000 0.66650  0.55790  0.62450  Biso   1.000  C
  C18      1.0000 0.83350  0.05790  0.87550  Biso   1.000  C
  C19      1.0000 0.33350  0.44210  0.37550  Biso   1.000  C
  C20      1.0000 0.16650  0.94210  0.12450  Biso   1.000  C
  C21      1.0000 0.76360  0.62840  0.58540  Biso   1.000  C
  C22      1.0000 0.73640  0.12840  0.91460  Biso   1.000  C
  C23      1.0000 0.23640  0.37160  0.41460  Biso   1.000  C
  C24      1.0000 0.26360  0.87160  0.08540  Biso   1.000  C
  C25      1.0000 0.62000  0.67920  0.68870  Biso   1.000  C
  C26      1.0000 0.88000  0.17920  0.81130  Biso   1.000  C
  C27      1.0000 0.38000  0.32080  0.31130  Biso   1.000  C
  C28      1.0000 0.12000  0.82080  0.18870  Biso   1.000  C
  C29      1.0000 0.53200  0.60840  0.72550  Biso   1.000  C
  C30      1.0000 0.96800  0.10840  0.77450  Biso   1.000  C
  C31      1.0000 0.46800  0.39160  0.27450  Biso   1.000  C
  C32      1.0000 0.03200  0.89160  0.22550  Biso   1.000  C
  C33      1.0000 0.48690  0.41800  0.70080  Biso   1.000  C
  C34      1.0000 0.01310  0.91800  0.79920  Biso   1.000  C
  C35      1.0000 0.51310  0.58200  0.29920  Biso   1.000  C
  C36      1.0000 0.98690  0.08200  0.20080  Biso   1.000  C
  C37      1.0000 0.52930  0.29420  0.63650  Biso   1.000  C
  C38      1.0000 0.97070  0.79420  0.86350  Biso   1.000  C
  C39      1.0000 0.47070  0.70580  0.36350  Biso   1.000  C
  C40      1.0000 0.02930  0.20580  0.13650  Biso   1.000  C
  Cu5      1.0000 0.50000  0.00000  0.00000  Biso   1.000  Cu
  Cu6      1.0000 0.00000  0.50000  0.50000  Biso   1.000  Cu
  H1       1.0000 0.78200  0.76100  0.60800  Biso   1.000  H
  H2       1.0000 0.71800  0.26100  0.89200  Biso   1.000  H
  H3       1.0000 0.21800  0.23900  0.39200  Biso   1.000  H
  H4       1.0000 0.28200  0.73900  0.10800  Biso   1.000  H
  H5       1.0000 0.73600  0.64000  0.49700  Biso   1.000  H
  H6       1.0000 0.76400  0.14000  0.00300  Biso   1.000  H
  H7       1.0000 0.26400  0.36000  0.50300  Biso   1.000  H
  H8       1.0000 0.23600  0.86000  0.99700  Biso   1.000  H
  H9       1.0000 0.83900  0.54400  0.62500  Biso   1.000  H
  H10      1.0000 0.66100  0.04400  0.87500  Biso   1.000  H
  H11      1.0000 0.16100  0.45600  0.37500  Biso   1.000  H
  H12      1.0000 0.33900  0.95600  0.12500  Biso   1.000  H
  H13      1.0000 0.65200  0.81300  0.70000  Biso   1.000  H
  H14      1.0000 0.84800  0.31300  0.80000  Biso   1.000  H
  H15      1.0000 0.34800  0.18700  0.30000  Biso   1.000  H
  H16      1.0000 0.15200  0.68700  0.20000  Biso   1.000  H
  H17      1.0000 0.50500  0.69300  0.76900  Biso   1.000  H
  H18      1.0000 0.99500  0.19300  0.73100  Biso   1.000  H
  H19      1.0000 0.49500  0.30700  0.23100  Biso   1.000  H
  H20      1.0000 0.00500  0.80700  0.26900  Biso   1.000  H
  H21      1.0000 0.42800  0.37300  0.72700  Biso   1.000  H
  H22      1.0000 0.07200  0.87300  0.77300  Biso   1.000  H
  H23      1.0000 0.57200  0.62700  0.27300  Biso   1.000  H
  H24      1.0000 0.92800  0.12700  0.22700  Biso   1.000  H
  H25      1.0000 0.49900  0.15700  0.61800  Biso   1.000  H
  H26      1.0000 0.00100  0.65700  0.88200  Biso   1.000  H
  H27      1.0000 0.50100  0.84300  0.38200  Biso   1.000  H
  H28      1.0000 0.99900  0.34300  0.11800  Biso   1.000  H
