data_image0
_cell_length_a       6.88
_cell_length_b       7.304
_cell_length_c       9.575
_cell_angle_alpha    96.128
_cell_angle_beta     93.529
_cell_angle_gamma    114.245

_symmetry_space_group_name_H-M    "P 1"
_symmetry_int_tables_number       1

loop_
  _symmetry_equiv_pos_as_xyz
  'x, y, z'

loop_
  _atom_site_label
  _atom_site_occupancy
  _atom_site_fract_x
  _atom_site_fract_y
  _atom_site_fract_z
  _atom_site_thermal_displace_type
  _atom_site_B_iso_or_equiv
  _atom_site_type_symbol
  Cu1      1.0000 0.23646  0.23287  0.84629  Biso   1.000  Cu
  Cu2      1.0000 0.76354  0.76713  0.15371  Biso   1.000  Cu
  Cu3      1.0000 0.00000  0.50000  0.00000  Biso   1.000  Cu
  N1       1.0000 0.07310  0.25430  0.67860  Biso   1.000  N
  N2       1.0000 0.92690  0.74570  0.32140  Biso   1.000  N
  C1       1.0000 0.95240  0.24980  0.58870  Biso   1.000  C
  C2       1.0000 0.04760  0.75020  0.41130  Biso   1.000  C
  C3       1.0000 0.79970  0.24320  0.47680  Biso   1.000  C
  C4       1.0000 0.20030  0.75680  0.52320  Biso   1.000  C
  C5       1.0000 0.83040  0.20210  0.33610  Biso   1.000  C
  C6       1.0000 0.16960  0.79790  0.66390  Biso   1.000  C
  C7       1.0000 0.67870  0.19020  0.22910  Biso   1.000  C
  C8       1.0000 0.32130  0.80980  0.77090  Biso   1.000  C
  C9       1.0000 0.49980  0.21820  0.26180  Biso   1.000  C
  C10      1.0000 0.50020  0.78180  0.73820  Biso   1.000  C
  C11      1.0000 0.47140  0.26080  0.40180  Biso   1.000  C
  C12      1.0000 0.52860  0.73920  0.59820  Biso   1.000  C
  C13      1.0000 0.61850  0.27000  0.50990  Biso   1.000  C
  C14      1.0000 0.38150  0.73000  0.49010  Biso   1.000  C
  C15      1.0000 0.54160  0.34380  0.87760  Biso   1.000  C
  C16      1.0000 0.45840  0.65620  0.12240  Biso   1.000  C
  N3       1.0000 0.72230  0.40570  0.91610  Biso   1.000  N
  N4       1.0000 0.27770  0.59430  0.08390  Biso   1.000  N
  C17      1.0000 0.05290  0.05710  0.96460  Biso   1.000  C
  C18      1.0000 0.94710  0.94290  0.03540  Biso   1.000  C
  H1       1.0000 0.95392  0.19168  0.31540  Biso   1.000  H
  H2       1.0000 0.04608  0.80832  0.68460  Biso   1.000  H
  H3       1.0000 0.70082  0.15966  0.13200  Biso   1.000  H
  H4       1.0000 0.29918  0.84034  0.86800  Biso   1.000  H
  H5       1.0000 0.40238  0.22823  0.18548  Biso   1.000  H
  H6       1.0000 0.59762  0.77177  0.81452  Biso   1.000  H
  H7       1.0000 0.32967  0.26303  0.42192  Biso   1.000  H
  H8       1.0000 0.67033  0.73697  0.57808  Biso   1.000  H
  H9       1.0000 0.58489  0.28272  0.60526  Biso   1.000  H
  H10      1.0000 0.41511  0.71728  0.39474  Biso   1.000  H
