data_image0
_cell_length_a       21.679
_cell_length_b       9.408
_cell_length_c       10.564
_cell_angle_alpha    90
_cell_angle_beta     90
_cell_angle_gamma    90

_symmetry_space_group_name_H-M    "P 1"
_symmetry_int_tables_number       1

loop_
  _symmetry_equiv_pos_as_xyz
  'x, y, z'

loop_
  _atom_site_label
  _atom_site_occupancy
  _atom_site_fract_x
  _atom_site_fract_y
  _atom_site_fract_z
  _atom_site_thermal_displace_type
  _atom_site_B_iso_or_equiv
  _atom_site_type_symbol
  Cu1      1.0000 0.01450  0.09280  0.09850  Biso   1.000  Cu
  Cu2      1.0000 0.48550  0.59280  0.09850  Biso   1.000  Cu
  Cu3      1.0000 0.01450  0.90720  0.59850  Biso   1.000  Cu
  Cu4      1.0000 0.48550  0.40720  0.59850  Biso   1.000  Cu
  Cu5      1.0000 0.98550  0.90720  0.90150  Biso   1.000  Cu
  Cu6      1.0000 0.51450  0.40720  0.90150  Biso   1.000  Cu
  Cu7      1.0000 0.98550  0.09280  0.40150  Biso   1.000  Cu
  Cu8      1.0000 0.51450  0.59280  0.40150  Biso   1.000  Cu
  O1       1.0000 0.08760  0.09840  0.00000  Biso   1.000  O
  O2       1.0000 0.41240  0.59840  0.00000  Biso   1.000  O
  O3       1.0000 0.08760  0.90160  0.50000  Biso   1.000  O
  O4       1.0000 0.41240  0.40160  0.50000  Biso   1.000  O
  O5       1.0000 0.91240  0.90160  0.00000  Biso   1.000  O
  O6       1.0000 0.58760  0.40160  0.00000  Biso   1.000  O
  O7       1.0000 0.91240  0.09840  0.50000  Biso   1.000  O
  O8       1.0000 0.58760  0.59840  0.50000  Biso   1.000  O
  O9       1.0000 0.93730  0.02820  0.16860  Biso   1.000  O
  O10      1.0000 0.56270  0.52820  0.16860  Biso   1.000  O
  O11      1.0000 0.93730  0.97180  0.66860  Biso   1.000  O
  O12      1.0000 0.56270  0.47180  0.66860  Biso   1.000  O
  O13      1.0000 0.06270  0.97180  0.83140  Biso   1.000  O
  O14      1.0000 0.43730  0.47180  0.83140  Biso   1.000  O
  O15      1.0000 0.06270  0.02820  0.33140  Biso   1.000  O
  O16      1.0000 0.43730  0.52820  0.33140  Biso   1.000  O
  N1       1.0000 0.01810  0.31240  0.20060  Biso   1.000  N
  N2       1.0000 0.48190  0.81240  0.20060  Biso   1.000  N
  N3       1.0000 0.01810  0.68760  0.70060  Biso   1.000  N
  N4       1.0000 0.48190  0.18760  0.70060  Biso   1.000  N
  N5       1.0000 0.98190  0.68760  0.79940  Biso   1.000  N
  N6       1.0000 0.51810  0.18760  0.79940  Biso   1.000  N
  N7       1.0000 0.98190  0.31240  0.29940  Biso   1.000  N
  N8       1.0000 0.51810  0.81240  0.29940  Biso   1.000  N
  C1       1.0000 0.15980  0.08610  0.83490  Biso   1.000  C
  C2       1.0000 0.34020  0.58610  0.83490  Biso   1.000  C
  C3       1.0000 0.15980  0.91390  0.33490  Biso   1.000  C
  C4       1.0000 0.34020  0.41390  0.33490  Biso   1.000  C
  C5       1.0000 0.84020  0.91390  0.16510  Biso   1.000  C
  C6       1.0000 0.65980  0.41390  0.16510  Biso   1.000  C
  C7       1.0000 0.84020  0.08610  0.66510  Biso   1.000  C
  C8       1.0000 0.65980  0.58610  0.66510  Biso   1.000  C
  C9       1.0000 0.19930  0.17920  0.89740  Biso   1.000  C
  C10      1.0000 0.30070  0.67920  0.89740  Biso   1.000  C
  C11      1.0000 0.19930  0.82080  0.39740  Biso   1.000  C
  C12      1.0000 0.30070  0.32080  0.39740  Biso   1.000  C
  C13      1.0000 0.80070  0.82080  0.10260  Biso   1.000  C
  C14      1.0000 0.69930  0.32080  0.10260  Biso   1.000  C
  C15      1.0000 0.80070  0.17920  0.60260  Biso   1.000  C
  C16      1.0000 0.69930  0.67920  0.60260  Biso   1.000  C
  C17      1.0000 0.25590  0.21330  0.84710  Biso   1.000  C
  C18      1.0000 0.24410  0.71330  0.84710  Biso   1.000  C
  C19      1.0000 0.25590  0.78670  0.34710  Biso   1.000  C
  C20      1.0000 0.24410  0.28670  0.34710  Biso   1.000  C
  C21      1.0000 0.74410  0.78670  0.15290  Biso   1.000  C
  C22      1.0000 0.75590  0.28670  0.15290  Biso   1.000  C
  C23      1.0000 0.74410  0.21330  0.65290  Biso   1.000  C
  C24      1.0000 0.75590  0.71330  0.65290  Biso   1.000  C
  C25      1.0000 0.27390  0.15510  0.73380  Biso   1.000  C
  C26      1.0000 0.22610  0.65510  0.73380  Biso   1.000  C
  C27      1.0000 0.27390  0.84490  0.23380  Biso   1.000  C
  C28      1.0000 0.22610  0.34490  0.23380  Biso   1.000  C
  C29      1.0000 0.72610  0.84490  0.26620  Biso   1.000  C
  C30      1.0000 0.77390  0.34490  0.26620  Biso   1.000  C
  C31      1.0000 0.72610  0.15510  0.76620  Biso   1.000  C
  C32      1.0000 0.77390  0.65510  0.76620  Biso   1.000  C
  C33      1.0000 0.23630  0.06180  0.67100  Biso   1.000  C
  C34      1.0000 0.26370  0.56180  0.67100  Biso   1.000  C
  C35      1.0000 0.23630  0.93820  0.17100  Biso   1.000  C
  C36      1.0000 0.26370  0.43820  0.17100  Biso   1.000  C
  C37      1.0000 0.76370  0.93820  0.32900  Biso   1.000  C
  C38      1.0000 0.73630  0.43820  0.32900  Biso   1.000  C
  C39      1.0000 0.76370  0.06180  0.82900  Biso   1.000  C
  C40      1.0000 0.73630  0.56180  0.82900  Biso   1.000  C
  C41      1.0000 0.17810  0.02860  0.72060  Biso   1.000  C
  C42      1.0000 0.32190  0.52860  0.72060  Biso   1.000  C
  C43      1.0000 0.17810  0.97140  0.22060  Biso   1.000  C
  C44      1.0000 0.32190  0.47140  0.22060  Biso   1.000  C
  C45      1.0000 0.82190  0.97140  0.27940  Biso   1.000  C
  C46      1.0000 0.67810  0.47140  0.27940  Biso   1.000  C
  C47      1.0000 0.82190  0.02860  0.77940  Biso   1.000  C
  C48      1.0000 0.67810  0.52860  0.77940  Biso   1.000  C
  C49      1.0000 0.09840  0.04940  0.89180  Biso   1.000  C
  C50      1.0000 0.40160  0.54940  0.89180  Biso   1.000  C
  C51      1.0000 0.09840  0.95060  0.39180  Biso   1.000  C
  C52      1.0000 0.40160  0.45060  0.39180  Biso   1.000  C
  C53      1.0000 0.90160  0.95060  0.10820  Biso   1.000  C
  C54      1.0000 0.59840  0.45060  0.10820  Biso   1.000  C
  C55      1.0000 0.90160  0.04940  0.60820  Biso   1.000  C
  C56      1.0000 0.59840  0.54940  0.60820  Biso   1.000  C
  C57      1.0000 0.03930  0.43880  0.15170  Biso   1.000  C
  C58      1.0000 0.46070  0.93880  0.15170  Biso   1.000  C
  C59      1.0000 0.03930  0.56120  0.65170  Biso   1.000  C
  C60      1.0000 0.46070  0.06120  0.65170  Biso   1.000  C
  C61      1.0000 0.96070  0.56120  0.84830  Biso   1.000  C
  C62      1.0000 0.53930  0.06120  0.84830  Biso   1.000  C
  C63      1.0000 0.96070  0.43880  0.34830  Biso   1.000  C
  C64      1.0000 0.53930  0.93880  0.34830  Biso   1.000  C
  C65      1.0000 0.02190  0.57280  0.20090  Biso   1.000  C
  C66      1.0000 0.47810  0.07280  0.20090  Biso   1.000  C
  C67      1.0000 0.02190  0.42720  0.70090  Biso   1.000  C
  C68      1.0000 0.47810  0.92720  0.70090  Biso   1.000  C
  C69      1.0000 0.97810  0.42720  0.79910  Biso   1.000  C
  C70      1.0000 0.52190  0.92720  0.79910  Biso   1.000  C
  C71      1.0000 0.97810  0.57280  0.29910  Biso   1.000  C
  C72      1.0000 0.52190  0.07280  0.29910  Biso   1.000  C
  C73      1.0000 0.04860  0.69510  0.14760  Biso   1.000  C
  C74      1.0000 0.45140  0.19510  0.14760  Biso   1.000  C
  C75      1.0000 0.04860  0.30490  0.64760  Biso   1.000  C
  C76      1.0000 0.45140  0.80490  0.64760  Biso   1.000  C
  C77      1.0000 0.95140  0.30490  0.85240  Biso   1.000  C
  C78      1.0000 0.54860  0.80490  0.85240  Biso   1.000  C
  C79      1.0000 0.95140  0.69510  0.35240  Biso   1.000  C
  C80      1.0000 0.54860  0.19510  0.35240  Biso   1.000  C
  C81      1.0000 0.08980  0.68360  0.04970  Biso   1.000  C
  C82      1.0000 0.41020  0.18360  0.04970  Biso   1.000  C
  C83      1.0000 0.08980  0.31640  0.54970  Biso   1.000  C
  C84      1.0000 0.41020  0.81640  0.54970  Biso   1.000  C
  C85      1.0000 0.91020  0.31640  0.95030  Biso   1.000  C
  C86      1.0000 0.58980  0.81640  0.95030  Biso   1.000  C
  C87      1.0000 0.91020  0.68360  0.45030  Biso   1.000  C
  C88      1.0000 0.58980  0.18360  0.45030  Biso   1.000  C
  C89      1.0000 0.10560  0.55120  0.99840  Biso   1.000  C
  C90      1.0000 0.39440  0.05120  0.99840  Biso   1.000  C
  C91      1.0000 0.10560  0.44880  0.49840  Biso   1.000  C
  C92      1.0000 0.39440  0.94880  0.49840  Biso   1.000  C
  C93      1.0000 0.89440  0.44880  0.00160  Biso   1.000  C
  C94      1.0000 0.60560  0.94880  0.00160  Biso   1.000  C
  C95      1.0000 0.89440  0.55120  0.50160  Biso   1.000  C
  C96      1.0000 0.60560  0.05120  0.50160  Biso   1.000  C
  C97      1.0000 0.08040  0.42920  0.04930  Biso   1.000  C
  C98      1.0000 0.41960  0.92920  0.04930  Biso   1.000  C
  C99      1.0000 0.08040  0.57080  0.54930  Biso   1.000  C
  C100     1.0000 0.41960  0.07080  0.54930  Biso   1.000  C
  C101     1.0000 0.91960  0.57080  0.95070  Biso   1.000  C
  C102     1.0000 0.58040  0.07080  0.95070  Biso   1.000  C
  C103     1.0000 0.91960  0.42920  0.45070  Biso   1.000  C
  C104     1.0000 0.58040  0.92920  0.45070  Biso   1.000  C
  H1       1.0000 0.18370  0.22650  0.98970  Biso   1.000  H
  H2       1.0000 0.31630  0.72650  0.98970  Biso   1.000  H
  H3       1.0000 0.18370  0.77350  0.48970  Biso   1.000  H
  H4       1.0000 0.31630  0.27350  0.48970  Biso   1.000  H
  H5       1.0000 0.81630  0.77350  0.01030  Biso   1.000  H
  H6       1.0000 0.68370  0.27350  0.01030  Biso   1.000  H
  H7       1.0000 0.81630  0.22650  0.51030  Biso   1.000  H
  H8       1.0000 0.68370  0.72650  0.51030  Biso   1.000  H
  H9       1.0000 0.28550  0.28730  0.90070  Biso   1.000  H
  H10      1.0000 0.21450  0.78730  0.90070  Biso   1.000  H
  H11      1.0000 0.28550  0.71270  0.40070  Biso   1.000  H
  H12      1.0000 0.21450  0.21270  0.40070  Biso   1.000  H
  H13      1.0000 0.71450  0.71270  0.09930  Biso   1.000  H
  H14      1.0000 0.78550  0.21270  0.09930  Biso   1.000  H
  H15      1.0000 0.71450  0.28730  0.59930  Biso   1.000  H
  H16      1.0000 0.78550  0.78730  0.59930  Biso   1.000  H
  H17      1.0000 0.32260  0.17980  0.69790  Biso   1.000  H
  H18      1.0000 0.17740  0.67980  0.69790  Biso   1.000  H
  H19      1.0000 0.32260  0.82020  0.19790  Biso   1.000  H
  H20      1.0000 0.17740  0.32020  0.19790  Biso   1.000  H
  H21      1.0000 0.67740  0.82020  0.30210  Biso   1.000  H
  H22      1.0000 0.82260  0.32020  0.30210  Biso   1.000  H
  H23      1.0000 0.67740  0.17980  0.80210  Biso   1.000  H
  H24      1.0000 0.82260  0.67980  0.80210  Biso   1.000  H
  H25      1.0000 0.24810  0.01500  0.58060  Biso   1.000  H
  H26      1.0000 0.25190  0.51500  0.58060  Biso   1.000  H
  H27      1.0000 0.24810  0.98500  0.08060  Biso   1.000  H
  H28      1.0000 0.25190  0.48500  0.08060  Biso   1.000  H
  H29      1.0000 0.75190  0.98500  0.41940  Biso   1.000  H
  H30      1.0000 0.74810  0.48500  0.41940  Biso   1.000  H
  H31      1.0000 0.75190  0.01500  0.91940  Biso   1.000  H
  H32      1.0000 0.74810  0.51500  0.91940  Biso   1.000  H
  H33      1.0000 0.14510  0.95800  0.66730  Biso   1.000  H
  H34      1.0000 0.35490  0.45800  0.66730  Biso   1.000  H
  H35      1.0000 0.14510  0.04200  0.16730  Biso   1.000  H
  H36      1.0000 0.35490  0.54200  0.16730  Biso   1.000  H
  H37      1.0000 0.85490  0.04200  0.33270  Biso   1.000  H
  H38      1.0000 0.64510  0.54200  0.33270  Biso   1.000  H
  H39      1.0000 0.85490  0.95800  0.83270  Biso   1.000  H
  H40      1.0000 0.64510  0.45800  0.83270  Biso   1.000  H
  H41      1.0000 0.04670  0.80010  0.18660  Biso   1.000  H
  H42      1.0000 0.45330  0.30010  0.18660  Biso   1.000  H
  H43      1.0000 0.04670  0.19990  0.68660  Biso   1.000  H
  H44      1.0000 0.45330  0.69990  0.68660  Biso   1.000  H
  H45      1.0000 0.95330  0.19990  0.81340  Biso   1.000  H
  H46      1.0000 0.54670  0.69990  0.81340  Biso   1.000  H
  H47      1.0000 0.95330  0.80010  0.31340  Biso   1.000  H
  H48      1.0000 0.54670  0.30010  0.31340  Biso   1.000  H
  H49      1.0000 0.11200  0.77610  0.00790  Biso   1.000  H
  H50      1.0000 0.38800  0.27610  0.00790  Biso   1.000  H
  H51      1.0000 0.11200  0.22390  0.50790  Biso   1.000  H
  H52      1.0000 0.38800  0.72390  0.50790  Biso   1.000  H
  H53      1.0000 0.88800  0.22390  0.99210  Biso   1.000  H
  H54      1.0000 0.61200  0.72390  0.99210  Biso   1.000  H
  H55      1.0000 0.88800  0.77610  0.49210  Biso   1.000  H
  H56      1.0000 0.61200  0.27610  0.49210  Biso   1.000  H
  H57      1.0000 0.13890  0.54210  0.91610  Biso   1.000  H
  H58      1.0000 0.36110  0.04210  0.91610  Biso   1.000  H
  H59      1.0000 0.13890  0.45790  0.41610  Biso   1.000  H
  H60      1.0000 0.36110  0.95790  0.41610  Biso   1.000  H
  H61      1.0000 0.86110  0.45790  0.08390  Biso   1.000  H
  H62      1.0000 0.63890  0.95790  0.08390  Biso   1.000  H
  H63      1.0000 0.86110  0.54210  0.58390  Biso   1.000  H
  H64      1.0000 0.63890  0.04210  0.58390  Biso   1.000  H
  H65      1.0000 0.09220  0.32530  0.01120  Biso   1.000  H
  H66      1.0000 0.40780  0.82530  0.01120  Biso   1.000  H
  H67      1.0000 0.09220  0.67470  0.51120  Biso   1.000  H
  H68      1.0000 0.40780  0.17470  0.51120  Biso   1.000  H
  H69      1.0000 0.90780  0.67470  0.98880  Biso   1.000  H
  H70      1.0000 0.59220  0.17470  0.98880  Biso   1.000  H
  H71      1.0000 0.90780  0.32530  0.48880  Biso   1.000  H
  H72      1.0000 0.59220  0.82530  0.48880  Biso   1.000  H
