data_image0
_cell_length_a       9.2682
_cell_length_b       11.1974
_cell_length_c       11.274
_cell_angle_alpha    105.549
_cell_angle_beta     99.242
_cell_angle_gamma    93.619

_symmetry_space_group_name_H-M    "P 1"
_symmetry_int_tables_number       1

loop_
  _symmetry_equiv_pos_as_xyz
  'x, y, z'

loop_
  _atom_site_label
  _atom_site_occupancy
  _atom_site_fract_x
  _atom_site_fract_y
  _atom_site_fract_z
  _atom_site_thermal_displace_type
  _atom_site_B_iso_or_equiv
  _atom_site_type_symbol
  Cu1      1.0000 0.37558  0.96944  0.05986  Biso   1.000  Cu
  Cu2      1.0000 0.62442  0.03056  0.94014  Biso   1.000  Cu
  Br1      1.0000 0.59270  0.85575  0.03375  Biso   1.000  Br
  Br2      1.0000 0.40730  0.14425  0.96625  Biso   1.000  Br
  S1       1.0000 0.36420  0.04242  0.26890  Biso   1.000  S
  S2       1.0000 0.63580  0.95758  0.73110  Biso   1.000  S
  S3       1.0000 0.83590  0.16151  0.04470  Biso   1.000  S
  S4       1.0000 0.16410  0.83849  0.95530  Biso   1.000  S
  O1       1.0000 0.02430  0.46320  0.26610  Biso   1.000  O
  O2       1.0000 0.97570  0.53680  0.73390  Biso   1.000  O
  O3       1.0000 0.28680  0.40410  0.40790  Biso   1.000  O
  O4       1.0000 0.71320  0.59590  0.59210  Biso   1.000  O
  C1       1.0000 0.15160  0.55010  0.33380  Biso   1.000  C
  C2       1.0000 0.84840  0.44990  0.66620  Biso   1.000  C
  H1       1.0000 0.12250  0.63550  0.36010  Biso   1.000  H
  H2       1.0000 0.87750  0.36450  0.63990  Biso   1.000  H
  H3       1.0000 0.22520  0.55030  0.27910  Biso   1.000  H
  H4       1.0000 0.77480  0.44970  0.72090  Biso   1.000  H
  C3       1.0000 0.21610  0.51190  0.44550  Biso   1.000  C
  C4       1.0000 0.78390  0.48810  0.55450  Biso   1.000  C
  H5       1.0000 0.28780  0.58030  0.50310  Biso   1.000  H
  H6       1.0000 0.71220  0.41970  0.49690  Biso   1.000  H
  H7       1.0000 0.13750  0.49490  0.49060  Biso   1.000  H
  H8       1.0000 0.86250  0.50510  0.50940  Biso   1.000  H
  C5       1.0000 0.36340  0.36180  0.50050  Biso   1.000  C
  C6       1.0000 0.63660  0.63820  0.49950  Biso   1.000  C
  C7       1.0000 0.36370  0.41330  0.62750  Biso   1.000  C
  C8       1.0000 0.63630  0.58670  0.37250  Biso   1.000  C
  H9       1.0000 0.30820  0.48090  0.65340  Biso   1.000  H
  H10      1.0000 0.69180  0.51910  0.34660  Biso   1.000  H
  C9       1.0000 0.44410  0.36700  0.71650  Biso   1.000  C
  C10      1.0000 0.55590  0.63300  0.28350  Biso   1.000  C
  H11      1.0000 0.44510  0.40380  0.80300  Biso   1.000  H
  H12      1.0000 0.55490  0.59620  0.19700  Biso   1.000  H
  C11      1.0000 0.52250  0.26760  0.67930  Biso   1.000  C
  C12      1.0000 0.47750  0.73240  0.32070  Biso   1.000  C
  H13      1.0000 0.57680  0.23480  0.74000  Biso   1.000  H
  H14      1.0000 0.42320  0.76520  0.26000  Biso   1.000  H
  C13      1.0000 0.52190  0.21570  0.55330  Biso   1.000  C
  C14      1.0000 0.47810  0.78430  0.44670  Biso   1.000  C
  H15      1.0000 0.57630  0.14700  0.52840  Biso   1.000  H
  H16      1.0000 0.42370  0.85300  0.47160  Biso   1.000  H
  C15      1.0000 0.44420  0.26110  0.46220  Biso   1.000  C
  C16      1.0000 0.55580  0.73890  0.53780  Biso   1.000  C
  C17      1.0000 0.44800  0.20370  0.32600  Biso   1.000  C
  C18      1.0000 0.55200  0.79630  0.67400  Biso   1.000  C
  H17      1.0000 0.55150  0.20700  0.31390  Biso   1.000  H
  H18      1.0000 0.44850  0.79300  0.68610  Biso   1.000  H
  H19      1.0000 0.39540  0.25340  0.27590  Biso   1.000  H
  H20      1.0000 0.60460  0.74660  0.72410  Biso   1.000  H
  C19      1.0000 0.17190  0.05870  0.27480  Biso   1.000  C
  C20      1.0000 0.82810  0.94130  0.72520  Biso   1.000  C
  H21      1.0000 0.11780  0.97430  0.25230  Biso   1.000  H
  H22      1.0000 0.88220  0.02570  0.74770  Biso   1.000  H
  H23      1.0000 0.16380  0.10120  0.36220  Biso   1.000  H
  H24      1.0000 0.83620  0.89880  0.63780  Biso   1.000  H
  C21      1.0000 0.09700  0.13010  0.19010  Biso   1.000  C
  C22      1.0000 0.90300  0.86990  0.80990  Biso   1.000  C
  H25      1.0000 0.14280  0.11880  0.11490  Biso   1.000  H
  H26      1.0000 0.85720  0.88120  0.88510  Biso   1.000  H
  H27      1.0000 0.10950  0.22020  0.23500  Biso   1.000  H
  H28      1.0000 0.89050  0.77980  0.76500  Biso   1.000  H
  C23      1.0000 0.93360  0.08320  0.15080  Biso   1.000  C
  C24      1.0000 0.06640  0.91680  0.84920  Biso   1.000  C
  H29      1.0000 0.88840  0.09640  0.22650  Biso   1.000  H
  H30      1.0000 0.11160  0.90360  0.77350  Biso   1.000  H
  H31      1.0000 0.92220  0.99240  0.10900  Biso   1.000  H
  H32      1.0000 0.07780  0.00760  0.89100  Biso   1.000  H
  C25      1.0000 0.77870  0.29600  0.15570  Biso   1.000  C
  C26      1.0000 0.22130  0.70400  0.84430  Biso   1.000  C
  H33      1.0000 0.67280  0.28030  0.15700  Biso   1.000  H
  H34      1.0000 0.32720  0.71970  0.84300  Biso   1.000  H
  H35      1.0000 0.83450  0.30650  0.24120  Biso   1.000  H
  H36      1.0000 0.16550  0.69350  0.75880  Biso   1.000  H
  C27      1.0000 0.80640  0.41210  0.11790  Biso   1.000  C
  C28      1.0000 0.19360  0.58790  0.88210  Biso   1.000  C
  C29      1.0000 0.70820  0.43970  0.02550  Biso   1.000  C
  C30      1.0000 0.29180  0.56030  0.97450  Biso   1.000  C
  H37      1.0000 0.62170  0.38400  0.98630  Biso   1.000  H
  H38      1.0000 0.37830  0.61600  0.01370  Biso   1.000  H
  C31      1.0000 0.73300  0.54630  0.98870  Biso   1.000  C
  C32      1.0000 0.26700  0.45370  0.01130  Biso   1.000  C
  H39      1.0000 0.66420  0.56410  0.92530  Biso   1.000  H
  H40      1.0000 0.33580  0.43590  0.07470  Biso   1.000  H
  C33      1.0000 0.85970  0.62670  0.04550  Biso   1.000  C
  C34      1.0000 0.14030  0.37330  0.95450  Biso   1.000  C
  H41      1.0000 0.87760  0.70010  0.02060  Biso   1.000  H
  H42      1.0000 0.12240  0.29990  0.97940  Biso   1.000  H
  C35      1.0000 0.96120  0.60180  0.13830  Biso   1.000  C
  C36      1.0000 0.03880  0.39820  0.86170  Biso   1.000  C
  H43      1.0000 0.04800  0.65750  0.17630  Biso   1.000  H
  H44      1.0000 0.95200  0.34250  0.82370  Biso   1.000  H
  C37      1.0000 0.93490  0.49520  0.17490  Biso   1.000  C
  C38      1.0000 0.06510  0.50480  0.82510  Biso   1.000  C
