data_image0
_cell_length_a       11.852
_cell_length_b       12.4174
_cell_length_c       15.178
_cell_angle_alpha    73.061
_cell_angle_beta     82.366
_cell_angle_gamma    85.193

_symmetry_space_group_name_H-M    "P 1"
_symmetry_int_tables_number       1

loop_
  _symmetry_equiv_pos_as_xyz
  'x, y, z'

loop_
  _atom_site_label
  _atom_site_occupancy
  _atom_site_fract_x
  _atom_site_fract_y
  _atom_site_fract_z
  _atom_site_thermal_displace_type
  _atom_site_B_iso_or_equiv
  _atom_site_type_symbol
  Cu1      1.0000 0.58934  0.40740  0.49019  Biso   1.000  Cu
  Cu2      1.0000 0.41066  0.59260  0.50981  Biso   1.000  Cu
  Cu3      1.0000 0.60789  0.40172  0.00547  Biso   1.000  Cu
  Cu4      1.0000 0.39211  0.59828  0.99453  Biso   1.000  Cu
  Br1      1.0000 0.60704  0.56341  0.55958  Biso   1.000  Br
  Br2      1.0000 0.39296  0.43659  0.44042  Biso   1.000  Br
  Br3      1.0000 0.59801  0.60849  0.92457  Biso   1.000  Br
  Br4      1.0000 0.40199  0.39151  0.07543  Biso   1.000  Br
  S1       1.0000 0.70687  0.45352  0.35366  Biso   1.000  S
  S2       1.0000 0.29313  0.54648  0.64634  Biso   1.000  S
  S3       1.0000 0.72581  0.36580  0.11825  Biso   1.000  S
  S4       1.0000 0.27419  0.63420  0.88175  Biso   1.000  S
  S5       1.0000 0.62279  0.29982  0.90123  Biso   1.000  S
  S6       1.0000 0.37721  0.70018  0.09877  Biso   1.000  S
  S7       1.0000 0.58893  0.23694  0.60051  Biso   1.000  S
  S8       1.0000 0.41107  0.76306  0.39949  Biso   1.000  S
  O1       1.0000 0.01090  0.35060  0.13655  Biso   1.000  O
  O2       1.0000 0.98910  0.64940  0.86345  Biso   1.000  O
  O3       1.0000 0.02050  0.43070  0.29733  Biso   1.000  O
  O4       1.0000 0.97950  0.56930  0.70267  Biso   1.000  O
  O5       1.0000 0.75030  0.99900  0.75030  Biso   1.000  O
  O6       1.0000 0.24970  0.00100  0.24970  Biso   1.000  O
  O7       1.0000 0.73050  0.04720  0.92240  Biso   1.000  O
  O8       1.0000 0.26950  0.95280  0.07760  Biso   1.000  O
  C1       1.0000 0.10170  0.41170  0.15020  Biso   1.000  C
  C2       1.0000 0.89830  0.58830  0.84980  Biso   1.000  C
  H1       1.0000 0.08470  0.49370  0.12590  Biso   1.000  H
  H2       1.0000 0.91530  0.50630  0.87410  Biso   1.000  H
  H3       1.0000 0.17380  0.39210  0.11610  Biso   1.000  H
  H4       1.0000 0.82620  0.60790  0.88390  Biso   1.000  H
  C3       1.0000 0.11390  0.38280  0.25040  Biso   1.000  C
  C4       1.0000 0.88610  0.61720  0.74960  Biso   1.000  C
  H5       1.0000 0.11720  0.29990  0.27690  Biso   1.000  H
  H6       1.0000 0.88280  0.70010  0.72310  Biso   1.000  H
  H7       1.0000 0.18590  0.41160  0.25900  Biso   1.000  H
  H8       1.0000 0.81410  0.58840  0.74100  Biso   1.000  H
  C5       1.0000 0.00780  0.39570  0.39210  Biso   1.000  C
  C6       1.0000 0.99220  0.60430  0.60790  Biso   1.000  C
  C7       1.0000 0.08610  0.32560  0.44480  Biso   1.000  C
  C8       1.0000 0.91390  0.67440  0.55520  Biso   1.000  C
  H9       1.0000 0.15460  0.29970  0.41570  Biso   1.000  H
  H10      1.0000 0.84540  0.70030  0.58430  Biso   1.000  H
  C9       1.0000 0.06390  0.29400  0.53960  Biso   1.000  C
  C10      1.0000 0.93610  0.70600  0.46040  Biso   1.000  C
  H11      1.0000 0.11840  0.24700  0.57560  Biso   1.000  H
  H12      1.0000 0.88160  0.75300  0.42440  Biso   1.000  H
  C11      1.0000 0.96390  0.32890  0.58410  Biso   1.000  C
  C12      1.0000 0.03610  0.67110  0.41590  Biso   1.000  C
  H13      1.0000 0.94800  0.30380  0.64970  Biso   1.000  H
  H14      1.0000 0.05200  0.69620  0.35030  Biso   1.000  H
  C13      1.0000 0.88830  0.40080  0.53090  Biso   1.000  C
  C14      1.0000 0.11170  0.59920  0.46910  Biso   1.000  C
  H15      1.0000 0.82040  0.42690  0.56080  Biso   1.000  H
  H16      1.0000 0.17960  0.57310  0.43920  Biso   1.000  H
  C15      1.0000 0.90790  0.43630  0.43560  Biso   1.000  C
  C16      1.0000 0.09210  0.56370  0.56440  Biso   1.000  C
  C17      1.0000 0.82870  0.51790  0.37770  Biso   1.000  C
  C18      1.0000 0.17130  0.48210  0.62230  Biso   1.000  C
  H17      1.0000 0.87200  0.55700  0.31800  Biso   1.000  H
  H18      1.0000 0.12800  0.44300  0.68200  Biso   1.000  H
  H19      1.0000 0.79990  0.57550  0.40960  Biso   1.000  H
  H20      1.0000 0.20010  0.42450  0.59040  Biso   1.000  H
  C19      1.0000 0.77570  0.33000  0.32600  Biso   1.000  C
  C20      1.0000 0.22430  0.67000  0.67400  Biso   1.000  C
  H21      1.0000 0.83090  0.35360  0.26980  Biso   1.000  H
  H22      1.0000 0.16910  0.64640  0.73020  Biso   1.000  H
  H23      1.0000 0.81830  0.28580  0.37770  Biso   1.000  H
  H24      1.0000 0.18170  0.71420  0.62230  Biso   1.000  H
  C21      1.0000 0.68850  0.25670  0.30940  Biso   1.000  C
  C22      1.0000 0.31150  0.74330  0.69060  Biso   1.000  C
  H25      1.0000 0.72710  0.18430  0.30520  Biso   1.000  H
  H26      1.0000 0.27290  0.81570  0.69480  Biso   1.000  H
  H27      1.0000 0.62970  0.23990  0.36380  Biso   1.000  H
  H28      1.0000 0.37030  0.76010  0.63620  Biso   1.000  H
  C23      1.0000 0.62970  0.30840  0.22310  Biso   1.000  C
  C24      1.0000 0.37030  0.69160  0.77690  Biso   1.000  C
  H29      1.0000 0.57540  0.36950  0.23390  Biso   1.000  H
  H30      1.0000 0.42460  0.63050  0.76610  Biso   1.000  H
  H31      1.0000 0.58510  0.25020  0.21270  Biso   1.000  H
  H32      1.0000 0.41490  0.74980  0.78730  Biso   1.000  H
  C25      1.0000 0.82390  0.24430  0.11640  Biso   1.000  C
  C26      1.0000 0.17610  0.75570  0.88360  Biso   1.000  C
  H33      1.0000 0.85490  0.21520  0.17680  Biso   1.000  H
  H34      1.0000 0.14510  0.78480  0.82320  Biso   1.000  H
  H35      1.0000 0.78210  0.18350  0.10690  Biso   1.000  H
  H36      1.0000 0.21790  0.81650  0.89310  Biso   1.000  H
  C27      1.0000 0.91990  0.27660  0.04040  Biso   1.000  C
  C28      1.0000 0.08010  0.72340  0.95960  Biso   1.000  C
  C29      1.0000 0.92020  0.25140  0.95730  Biso   1.000  C
  C30      1.0000 0.07980  0.74860  0.04270  Biso   1.000  C
  H37      1.0000 0.85880  0.21230  0.94880  Biso   1.000  H
  H38      1.0000 0.14120  0.78770  0.05120  Biso   1.000  H
  C31      1.0000 0.00770  0.28210  0.88640  Biso   1.000  C
  C32      1.0000 0.99230  0.71790  0.11360  Biso   1.000  C
  H39      1.0000 0.00600  0.26430  0.82990  Biso   1.000  H
  H40      1.0000 0.99400  0.73570  0.17010  Biso   1.000  H
  C33      1.0000 0.09710  0.33810  0.89790  Biso   1.000  C
  C34      1.0000 0.90290  0.66190  0.10210  Biso   1.000  C
  H41      1.0000 0.15740  0.35890  0.84920  Biso   1.000  H
  H42      1.0000 0.84260  0.64110  0.15080  Biso   1.000  H
  C35      1.0000 0.09970  0.36460  0.97990  Biso   1.000  C
  C36      1.0000 0.90030  0.63540  0.02010  Biso   1.000  C
  H43      1.0000 0.16110  0.40460  0.98720  Biso   1.000  H
  H44      1.0000 0.83890  0.59540  0.01280  Biso   1.000  H
  C37      1.0000 0.01260  0.33280  0.05170  Biso   1.000  C
  C38      1.0000 0.98740  0.66720  0.94830  Biso   1.000  C
  C39      1.0000 0.78730  0.92100  0.83310  Biso   1.000  C
  C40      1.0000 0.21270  0.07900  0.16690  Biso   1.000  C
  H45      1.0000 0.85140  0.87140  0.81660  Biso   1.000  H
  H46      1.0000 0.14860  0.12860  0.18340  Biso   1.000  H
  H47      1.0000 0.72400  0.87320  0.86790  Biso   1.000  H
  H48      1.0000 0.27600  0.12680  0.13210  Biso   1.000  H
  C41      1.0000 0.82320  0.98470  0.88950  Biso   1.000  C
  C42      1.0000 0.17680  0.01530  0.11050  Biso   1.000  C
  H49      1.0000 0.85760  0.93250  0.94280  Biso   1.000  H
  H50      1.0000 0.14240  0.06750  0.05720  Biso   1.000  H
  H51      1.0000 0.88200  0.03680  0.85240  Biso   1.000  H
  H52      1.0000 0.11800  0.96320  0.14760  Biso   1.000  H
  C43      1.0000 0.68810  0.02560  0.01420  Biso   1.000  C
  C44      1.0000 0.31190  0.97440  0.98580  Biso   1.000  C
  C45      1.0000 0.73370  0.94350  0.08630  Biso   1.000  C
  C46      1.0000 0.26630  0.05650  0.91370  Biso   1.000  C
  H53      1.0000 0.79720  0.89600  0.07370  Biso   1.000  H
  H54      1.0000 0.20280  0.10400  0.92630  Biso   1.000  H
  C47      1.0000 0.68490  0.93210  0.17670  Biso   1.000  C
  C48      1.0000 0.31510  0.06790  0.82330  Biso   1.000  C
  H55      1.0000 0.71560  0.87630  0.22610  Biso   1.000  H
  H56      1.0000 0.28440  0.12370  0.77390  Biso   1.000  H
  C49      1.0000 0.59330  0.99950  0.19630  Biso   1.000  C
  C50      1.0000 0.40670  0.00050  0.80370  Biso   1.000  C
  H57      1.0000 0.56080  0.99120  0.25840  Biso   1.000  H
  H58      1.0000 0.43920  0.00880  0.74160  Biso   1.000  H
  C51      1.0000 0.54910  0.08010  0.12370  Biso   1.000  C
  C52      1.0000 0.45090  0.91990  0.87630  Biso   1.000  C
  H59      1.0000 0.48600  0.12780  0.13680  Biso   1.000  H
  H60      1.0000 0.51400  0.87220  0.86320  Biso   1.000  H
  C53      1.0000 0.59420  0.09320  0.03260  Biso   1.000  C
  C54      1.0000 0.40580  0.90680  0.96740  Biso   1.000  C
  C55      1.0000 0.53920  0.17550  0.95520  Biso   1.000  C
  C56      1.0000 0.46080  0.82450  0.04480  Biso   1.000  C
  H61      1.0000 0.46260  0.19950  0.97960  Biso   1.000  H
  H62      1.0000 0.53740  0.80050  0.02040  Biso   1.000  H
  H63      1.0000 0.52950  0.13790  0.90770  Biso   1.000  H
  H64      1.0000 0.47050  0.86210  0.09230  Biso   1.000  H
  C57      1.0000 0.53050  0.37840  0.81580  Biso   1.000  C
  C58      1.0000 0.46950  0.62160  0.18420  Biso   1.000  C
  H65      1.0000 0.45640  0.39610  0.84850  Biso   1.000  H
  H66      1.0000 0.54360  0.60390  0.15150  Biso   1.000  H
  H67      1.0000 0.56510  0.45080  0.78120  Biso   1.000  H
  H68      1.0000 0.43490  0.54920  0.21880  Biso   1.000  H
  C59      1.0000 0.50920  0.31650  0.74690  Biso   1.000  C
  C60      1.0000 0.49080  0.68350  0.25310  Biso   1.000  C
  H69      1.0000 0.45700  0.25520  0.77860  Biso   1.000  H
  H70      1.0000 0.54300  0.74480  0.22140  Biso   1.000  H
  H71      1.0000 0.47100  0.36960  0.69620  Biso   1.000  H
  H72      1.0000 0.52900  0.63040  0.30380  Biso   1.000  H
  C61      1.0000 0.61750  0.26660  0.70570  Biso   1.000  C
  C62      1.0000 0.38250  0.73340  0.29430  Biso   1.000  C
  H73      1.0000 0.64260  0.19630  0.75070  Biso   1.000  H
  H74      1.0000 0.35740  0.80370  0.24930  Biso   1.000  H
  H75      1.0000 0.67900  0.32050  0.69110  Biso   1.000  H
  H76      1.0000 0.32100  0.67950  0.30890  Biso   1.000  H
  C63      1.0000 0.71600  0.14960  0.57830  Biso   1.000  C
  C64      1.0000 0.28400  0.85040  0.42170  Biso   1.000  C
  H77      1.0000 0.74530  0.17540  0.51170  Biso   1.000  H
  H78      1.0000 0.25470  0.82460  0.48830  Biso   1.000  H
  H79      1.0000 0.77600  0.15950  0.61440  Biso   1.000  H
  H80      1.0000 0.22400  0.84050  0.38560  Biso   1.000  H
  C65      1.0000 0.69230  0.02760  0.60340  Biso   1.000  C
  C66      1.0000 0.30770  0.97240  0.39660  Biso   1.000  C
  C67      1.0000 0.64980  0.98470  0.53990  Biso   1.000  C
  C68      1.0000 0.35020  0.01530  0.46010  Biso   1.000  C
  H81      1.0000 0.63820  0.03410  0.48060  Biso   1.000  H
  H82      1.0000 0.36180  0.96590  0.51940  Biso   1.000  H
  C69      1.0000 0.62400  0.87360  0.55970  Biso   1.000  C
  C70      1.0000 0.37600  0.12640  0.44030  Biso   1.000  C
  H83      1.0000 0.59740  0.84610  0.51430  Biso   1.000  H
  H84      1.0000 0.40260  0.15390  0.48570  Biso   1.000  H
  C71      1.0000 0.63740  0.80320  0.64660  Biso   1.000  C
  C72      1.0000 0.36260  0.19680  0.35340  Biso   1.000  C
  H85      1.0000 0.61690  0.72700  0.66220  Biso   1.000  H
  H86      1.0000 0.38310  0.27300  0.33780  Biso   1.000  H
  C73      1.0000 0.68020  0.84170  0.71150  Biso   1.000  C
  C74      1.0000 0.31980  0.15830  0.28850  Biso   1.000  C
  H87      1.0000 0.69080  0.79170  0.77080  Biso   1.000  H
  H88      1.0000 0.30920  0.20830  0.22920  Biso   1.000  H
  C75      1.0000 0.70790  0.95420  0.68990  Biso   1.000  C
  C76      1.0000 0.29210  0.04580  0.31010  Biso   1.000  C
  C77      1.0000 0.96550  0.97930  0.38240  Biso   1.000  C
  C78      1.0000 0.03450  0.02070  0.61760  Biso   1.000  C
  H89      1.0000 0.91760  0.94070  0.43980  Biso   1.000  H
  H90      1.0000 0.08240  0.05930  0.56020  Biso   1.000  H
  H91      1.0000 0.04010  0.93710  0.38180  Biso   1.000  H
  H92      1.0000 0.95990  0.06290  0.61820  Biso   1.000  H
  Cl1      1.0000 0.89910  0.97521  0.28486  Biso   1.000  Cl
  Cl2      1.0000 0.10090  0.02479  0.71514  Biso   1.000  Cl
  Cl3      1.0000 0.98581  0.10991  0.38512  Biso   1.000  Cl
  Cl4      1.0000 0.01419  0.89009  0.61488  Biso   1.000  Cl
