data_image0
_cell_length_a       19.694
_cell_length_b       14.394
_cell_length_c       7.1855
_cell_angle_alpha    90
_cell_angle_beta     110.575
_cell_angle_gamma    90

_symmetry_space_group_name_H-M    "P 1"
_symmetry_int_tables_number       1

loop_
  _symmetry_equiv_pos_as_xyz
  'x, y, z'

loop_
  _atom_site_label
  _atom_site_occupancy
  _atom_site_fract_x
  _atom_site_fract_y
  _atom_site_fract_z
  _atom_site_thermal_displace_type
  _atom_site_B_iso_or_equiv
  _atom_site_type_symbol
  Cu1      1.0000 0.07777  0.00099  0.56279  Biso   1.000  Cu
  Cu2      1.0000 0.92223  0.00099  0.93721  Biso   1.000  Cu
  Cu3      1.0000 0.57777  0.50099  0.56279  Biso   1.000  Cu
  Cu4      1.0000 0.42223  0.50099  0.93721  Biso   1.000  Cu
  Cu5      1.0000 0.92223  0.99901  0.43721  Biso   1.000  Cu
  Cu6      1.0000 0.07777  0.99901  0.06279  Biso   1.000  Cu
  Cu7      1.0000 0.42223  0.49901  0.43721  Biso   1.000  Cu
  Cu8      1.0000 0.57777  0.49901  0.06279  Biso   1.000  Cu
  Cl1      1.0000 0.00000  0.08318  0.75000  Biso   1.000  Cl
  Cl2      1.0000 0.50000  0.58318  0.75000  Biso   1.000  Cl
  Cl3      1.0000 0.00000  0.91682  0.25000  Biso   1.000  Cl
  Cl4      1.0000 0.50000  0.41682  0.25000  Biso   1.000  Cl
  N1       1.0000 0.10039  0.89398  0.73820  Biso   1.000  N
  N2       1.0000 0.89961  0.89398  0.76180  Biso   1.000  N
  N3       1.0000 0.60039  0.39398  0.73820  Biso   1.000  N
  N4       1.0000 0.39961  0.39398  0.76180  Biso   1.000  N
  N5       1.0000 0.89961  0.10602  0.26180  Biso   1.000  N
  N6       1.0000 0.10039  0.10602  0.23820  Biso   1.000  N
  N7       1.0000 0.39961  0.60602  0.26180  Biso   1.000  N
  N8       1.0000 0.60039  0.60602  0.23820  Biso   1.000  N
  N9       1.0000 0.10499  0.89356  0.93590  Biso   1.000  N
  N10      1.0000 0.89501  0.89356  0.56410  Biso   1.000  N
  N11      1.0000 0.60499  0.39356  0.93590  Biso   1.000  N
  N12      1.0000 0.39501  0.39356  0.56410  Biso   1.000  N
  N13      1.0000 0.89501  0.10644  0.06410  Biso   1.000  N
  N14      1.0000 0.10499  0.10644  0.43590  Biso   1.000  N
  N15      1.0000 0.39501  0.60644  0.06410  Biso   1.000  N
  N16      1.0000 0.60499  0.60644  0.43590  Biso   1.000  N
  N17      1.0000 0.12425  0.75288  0.85440  Biso   1.000  N
  N18      1.0000 0.87575  0.75288  0.64560  Biso   1.000  N
  N19      1.0000 0.62425  0.25288  0.85440  Biso   1.000  N
  N20      1.0000 0.37575  0.25288  0.64560  Biso   1.000  N
  N21      1.0000 0.87575  0.24712  0.14560  Biso   1.000  N
  N22      1.0000 0.12425  0.24712  0.35440  Biso   1.000  N
  N23      1.0000 0.37575  0.74712  0.14560  Biso   1.000  N
  N24      1.0000 0.62425  0.74712  0.35440  Biso   1.000  N
  O1       1.0000 0.24308  0.33585  0.00400  Biso   1.000  O
  O2       1.0000 0.75692  0.33585  0.49600  Biso   1.000  O
  O3       1.0000 0.74308  0.83585  0.00400  Biso   1.000  O
  O4       1.0000 0.25692  0.83585  0.49600  Biso   1.000  O
  O5       1.0000 0.75692  0.66415  0.99600  Biso   1.000  O
  O6       1.0000 0.24308  0.66415  0.50400  Biso   1.000  O
  O7       1.0000 0.25692  0.16415  0.99600  Biso   1.000  O
  O8       1.0000 0.74308  0.16415  0.50400  Biso   1.000  O
  O9       1.0000 0.12509  0.31066  0.84890  Biso   1.000  O
  O10      1.0000 0.87491  0.31066  0.65110  Biso   1.000  O
  O11      1.0000 0.62509  0.81066  0.84890  Biso   1.000  O
  O12      1.0000 0.37491  0.81066  0.65110  Biso   1.000  O
  O13      1.0000 0.87491  0.68934  0.15110  Biso   1.000  O
  O14      1.0000 0.12509  0.68934  0.34890  Biso   1.000  O
  O15      1.0000 0.37491  0.18934  0.15110  Biso   1.000  O
  O16      1.0000 0.62509  0.18934  0.34890  Biso   1.000  O
  C1       1.0000 0.11928  0.80873  0.00090  Biso   1.000  C
  C2       1.0000 0.88072  0.80873  0.49910  Biso   1.000  C
  C3       1.0000 0.61928  0.30873  0.00090  Biso   1.000  C
  C4       1.0000 0.38072  0.30873  0.49910  Biso   1.000  C
  C5       1.0000 0.88072  0.19127  0.99910  Biso   1.000  C
  C6       1.0000 0.11928  0.19127  0.50090  Biso   1.000  C
  C7       1.0000 0.38072  0.69127  0.99910  Biso   1.000  C
  C8       1.0000 0.61928  0.69127  0.50090  Biso   1.000  C
  H1       1.0000 0.12520  0.78930  0.12910  Biso   1.000  H
  H2       1.0000 0.87480  0.78930  0.37090  Biso   1.000  H
  H3       1.0000 0.62520  0.28930  0.12910  Biso   1.000  H
  H4       1.0000 0.37480  0.28930  0.37090  Biso   1.000  H
  H5       1.0000 0.87480  0.21070  0.87090  Biso   1.000  H
  H6       1.0000 0.12520  0.21070  0.62910  Biso   1.000  H
  H7       1.0000 0.37480  0.71070  0.87090  Biso   1.000  H
  H8       1.0000 0.62520  0.71070  0.62910  Biso   1.000  H
  C9       1.0000 0.11185  0.80902  0.69290  Biso   1.000  C
  C10      1.0000 0.88815  0.80902  0.80710  Biso   1.000  C
  C11      1.0000 0.61185  0.30902  0.69290  Biso   1.000  C
  C12      1.0000 0.38815  0.30902  0.80710  Biso   1.000  C
  C13      1.0000 0.88815  0.19098  0.30710  Biso   1.000  C
  C14      1.0000 0.11185  0.19098  0.19290  Biso   1.000  C
  C15      1.0000 0.38815  0.69098  0.30710  Biso   1.000  C
  C16      1.0000 0.61185  0.69098  0.19290  Biso   1.000  C
  H9       1.0000 0.11160  0.78970  0.56920  Biso   1.000  H
  H10      1.0000 0.88840  0.78970  0.93080  Biso   1.000  H
  H11      1.0000 0.61160  0.28970  0.56920  Biso   1.000  H
  H12      1.0000 0.38840  0.28970  0.93080  Biso   1.000  H
  H13      1.0000 0.88840  0.21030  0.43080  Biso   1.000  H
  H14      1.0000 0.11160  0.21030  0.06920  Biso   1.000  H
  H15      1.0000 0.38840  0.71030  0.43080  Biso   1.000  H
  H16      1.0000 0.61160  0.71030  0.06920  Biso   1.000  H
  C17      1.0000 0.13944  0.65419  0.86610  Biso   1.000  C
  C18      1.0000 0.86056  0.65419  0.63390  Biso   1.000  C
  C19      1.0000 0.63944  0.15419  0.86610  Biso   1.000  C
  C20      1.0000 0.36056  0.15419  0.63390  Biso   1.000  C
  C21      1.0000 0.86056  0.34581  0.13390  Biso   1.000  C
  C22      1.0000 0.13944  0.34581  0.36610  Biso   1.000  C
  C23      1.0000 0.36056  0.84581  0.13390  Biso   1.000  C
  C24      1.0000 0.63944  0.84581  0.36610  Biso   1.000  C
  C25      1.0000 0.20423  0.62260  0.99660  Biso   1.000  C
  C26      1.0000 0.79577  0.62260  0.50340  Biso   1.000  C
  C27      1.0000 0.70423  0.12260  0.99660  Biso   1.000  C
  C28      1.0000 0.29577  0.12260  0.50340  Biso   1.000  C
  C29      1.0000 0.79577  0.37740  0.00340  Biso   1.000  C
  C30      1.0000 0.20423  0.37740  0.49660  Biso   1.000  C
  C31      1.0000 0.29577  0.87740  0.00340  Biso   1.000  C
  C32      1.0000 0.70423  0.87740  0.49660  Biso   1.000  C
  H17      1.0000 0.23870  0.66410  0.07460  Biso   1.000  H
  H18      1.0000 0.76130  0.66410  0.42540  Biso   1.000  H
  H19      1.0000 0.73870  0.16410  0.07460  Biso   1.000  H
  H20      1.0000 0.26130  0.16410  0.42540  Biso   1.000  H
  H21      1.0000 0.76130  0.33590  0.92540  Biso   1.000  H
  H22      1.0000 0.23870  0.33590  0.57460  Biso   1.000  H
  H23      1.0000 0.26130  0.83590  0.92540  Biso   1.000  H
  H24      1.0000 0.73870  0.83590  0.57460  Biso   1.000  H
  C33      1.0000 0.21795  0.52710  0.01100  Biso   1.000  C
  C34      1.0000 0.78205  0.52710  0.48900  Biso   1.000  C
  C35      1.0000 0.71795  0.02710  0.01100  Biso   1.000  C
  C36      1.0000 0.28205  0.02710  0.48900  Biso   1.000  C
  C37      1.0000 0.78205  0.47290  0.98900  Biso   1.000  C
  C38      1.0000 0.21795  0.47290  0.51100  Biso   1.000  C
  C39      1.0000 0.28205  0.97290  0.98900  Biso   1.000  C
  C40      1.0000 0.71795  0.97290  0.51100  Biso   1.000  C
  H25      1.0000 0.26230  0.50480  0.09600  Biso   1.000  H
  H26      1.0000 0.73770  0.50480  0.40400  Biso   1.000  H
  H27      1.0000 0.76230  0.00480  0.09600  Biso   1.000  H
  H28      1.0000 0.23770  0.00480  0.40400  Biso   1.000  H
  H29      1.0000 0.73770  0.49520  0.90400  Biso   1.000  H
  H30      1.0000 0.26230  0.49520  0.59600  Biso   1.000  H
  H31      1.0000 0.23770  0.99520  0.90400  Biso   1.000  H
  H32      1.0000 0.76230  0.99520  0.59600  Biso   1.000  H
  C41      1.0000 0.16596  0.46647  0.89990  Biso   1.000  C
  C42      1.0000 0.83404  0.46647  0.60010  Biso   1.000  C
  C43      1.0000 0.66596  0.96647  0.89990  Biso   1.000  C
  C44      1.0000 0.33404  0.96647  0.60010  Biso   1.000  C
  C45      1.0000 0.83404  0.53353  0.10010  Biso   1.000  C
  C46      1.0000 0.16596  0.53353  0.39990  Biso   1.000  C
  C47      1.0000 0.33404  0.03353  0.10010  Biso   1.000  C
  C48      1.0000 0.66596  0.03353  0.39990  Biso   1.000  C
  C49      1.0000 0.10080  0.49955  0.76910  Biso   1.000  C
  C50      1.0000 0.89920  0.49955  0.73090  Biso   1.000  C
  C51      1.0000 0.60080  0.99955  0.76910  Biso   1.000  C
  C52      1.0000 0.39920  0.99955  0.73090  Biso   1.000  C
  C53      1.0000 0.89920  0.50045  0.23090  Biso   1.000  C
  C54      1.0000 0.10080  0.50045  0.26910  Biso   1.000  C
  C55      1.0000 0.39920  0.00045  0.23090  Biso   1.000  C
  C56      1.0000 0.60080  0.00045  0.26910  Biso   1.000  C
  H33      1.0000 0.06570  0.45800  0.69440  Biso   1.000  H
  H34      1.0000 0.93430  0.45800  0.80560  Biso   1.000  H
  H35      1.0000 0.56570  0.95800  0.69440  Biso   1.000  H
  H36      1.0000 0.43430  0.95800  0.80560  Biso   1.000  H
  H37      1.0000 0.93430  0.54200  0.30560  Biso   1.000  H
  H38      1.0000 0.06570  0.54200  0.19440  Biso   1.000  H
  H39      1.0000 0.43430  0.04200  0.30560  Biso   1.000  H
  H40      1.0000 0.56570  0.04200  0.19440  Biso   1.000  H
  C57      1.0000 0.08743  0.59430  0.74840  Biso   1.000  C
  C58      1.0000 0.91257  0.59430  0.75160  Biso   1.000  C
  C59      1.0000 0.58743  0.09430  0.74840  Biso   1.000  C
  C60      1.0000 0.41257  0.09430  0.75160  Biso   1.000  C
  C61      1.0000 0.91257  0.40570  0.25160  Biso   1.000  C
  C62      1.0000 0.08743  0.40570  0.24840  Biso   1.000  C
  C63      1.0000 0.41257  0.90570  0.25160  Biso   1.000  C
  C64      1.0000 0.58743  0.90570  0.24840  Biso   1.000  C
  H41      1.0000 0.04430  0.61690  0.65710  Biso   1.000  H
  H42      1.0000 0.95570  0.61690  0.84290  Biso   1.000  H
  H43      1.0000 0.54430  0.11690  0.65710  Biso   1.000  H
  H44      1.0000 0.45570  0.11690  0.84290  Biso   1.000  H
  H45      1.0000 0.95570  0.38310  0.34290  Biso   1.000  H
  H46      1.0000 0.04430  0.38310  0.15710  Biso   1.000  H
  H47      1.0000 0.45570  0.88310  0.34290  Biso   1.000  H
  H48      1.0000 0.54430  0.88310  0.15710  Biso   1.000  H
  C65      1.0000 0.17760  0.36250  0.91680  Biso   1.000  C
  C66      1.0000 0.82240  0.36250  0.58320  Biso   1.000  C
  C67      1.0000 0.67760  0.86250  0.91680  Biso   1.000  C
  C68      1.0000 0.32240  0.86250  0.58320  Biso   1.000  C
  C69      1.0000 0.82240  0.63750  0.08320  Biso   1.000  C
  C70      1.0000 0.17760  0.63750  0.41680  Biso   1.000  C
  C71      1.0000 0.32240  0.13750  0.08320  Biso   1.000  C
  C72      1.0000 0.67760  0.13750  0.41680  Biso   1.000  C
  H49      1.0000 0.24520  0.27910  0.99790  Biso   1.000  H
  H50      1.0000 0.75480  0.27910  0.50210  Biso   1.000  H
  H51      1.0000 0.74520  0.77910  0.99790  Biso   1.000  H
  H52      1.0000 0.25480  0.77910  0.50210  Biso   1.000  H
  H53      1.0000 0.75480  0.72090  0.00210  Biso   1.000  H
  H54      1.0000 0.24520  0.72090  0.49790  Biso   1.000  H
  H55      1.0000 0.25480  0.22090  0.00210  Biso   1.000  H
  H56      1.0000 0.74520  0.22090  0.49790  Biso   1.000  H
