data_image0
_cell_length_a       8.979
_cell_length_b       27.617
_cell_length_c       9.038
_cell_angle_alpha    90
_cell_angle_beta     115.5
_cell_angle_gamma    90

_symmetry_space_group_name_H-M    "P 1"
_symmetry_int_tables_number       1

loop_
  _symmetry_equiv_pos_as_xyz
  'x, y, z'

loop_
  _atom_site_label
  _atom_site_occupancy
  _atom_site_fract_x
  _atom_site_fract_y
  _atom_site_fract_z
  _atom_site_thermal_displace_type
  _atom_site_B_iso_or_equiv
  _atom_site_type_symbol
  Cu1      1.0000 0.66250  0.71022  0.84763  Biso   1.000  Cu
  Cu2      1.0000 0.33750  0.21022  0.65237  Biso   1.000  Cu
  Cu3      1.0000 0.33750  0.28978  0.15237  Biso   1.000  Cu
  Cu4      1.0000 0.66250  0.78978  0.34763  Biso   1.000  Cu
  P1       1.0000 0.73920  0.63248  0.82850  Biso   1.000  P
  P2       1.0000 0.26080  0.13248  0.67150  Biso   1.000  P
  P3       1.0000 0.26080  0.36752  0.17150  Biso   1.000  P
  P4       1.0000 0.73920  0.86752  0.32850  Biso   1.000  P
  N1       1.0000 0.69720  0.75090  0.68600  Biso   1.000  N
  N2       1.0000 0.30280  0.25090  0.81400  Biso   1.000  N
  N3       1.0000 0.30280  0.24910  0.31400  Biso   1.000  N
  N4       1.0000 0.69720  0.74910  0.18600  Biso   1.000  N
  N5       1.0000 0.70150  0.73300  0.06990  Biso   1.000  N
  N6       1.0000 0.29850  0.23300  0.43010  Biso   1.000  N
  N7       1.0000 0.29850  0.26700  0.93010  Biso   1.000  N
  N8       1.0000 0.70150  0.76700  0.56990  Biso   1.000  N
  N9       1.0000 0.39270  0.70680  0.73610  Biso   1.000  N
  N10      1.0000 0.60730  0.20680  0.76390  Biso   1.000  N
  N11      1.0000 0.60730  0.29320  0.26390  Biso   1.000  N
  N12      1.0000 0.39270  0.79320  0.23610  Biso   1.000  N
  C1       1.0000 0.30700  0.68610  0.59500  Biso   1.000  C
  C2       1.0000 0.69300  0.18610  0.90500  Biso   1.000  C
  C3       1.0000 0.69300  0.31390  0.40500  Biso   1.000  C
  C4       1.0000 0.30700  0.81390  0.09500  Biso   1.000  C
  C5       1.0000 0.13700  0.68550  0.51700  Biso   1.000  C
  C6       1.0000 0.86300  0.18550  0.98300  Biso   1.000  C
  C7       1.0000 0.86300  0.31450  0.48300  Biso   1.000  C
  C8       1.0000 0.13700  0.81450  0.01700  Biso   1.000  C
  C9       1.0000 0.05000  0.70580  0.58700  Biso   1.000  C
  C10      1.0000 0.95000  0.20580  0.91300  Biso   1.000  C
  C11      1.0000 0.95000  0.29420  0.41300  Biso   1.000  C
  C12      1.0000 0.05000  0.79420  0.08700  Biso   1.000  C
  C13      1.0000 0.13400  0.72560  0.73400  Biso   1.000  C
  C14      1.0000 0.86600  0.22560  0.76600  Biso   1.000  C
  C15      1.0000 0.86600  0.27440  0.26600  Biso   1.000  C
  C16      1.0000 0.13400  0.77440  0.23400  Biso   1.000  C
  C17      1.0000 0.30600  0.72330  0.80900  Biso   1.000  C
  C18      1.0000 0.69400  0.22330  0.69100  Biso   1.000  C
  C19      1.0000 0.69400  0.27670  0.19100  Biso   1.000  C
  C20      1.0000 0.30600  0.77670  0.30900  Biso   1.000  C
  C21      1.0000 0.77610  0.61820  0.64960  Biso   1.000  C
  C22      1.0000 0.22390  0.11820  0.85040  Biso   1.000  C
  C23      1.0000 0.22390  0.38180  0.35040  Biso   1.000  C
  C24      1.0000 0.77610  0.88180  0.14960  Biso   1.000  C
  C25      1.0000 0.67200  0.64090  0.50350  Biso   1.000  C
  C26      1.0000 0.32800  0.14090  0.99650  Biso   1.000  C
  C27      1.0000 0.32800  0.35910  0.49650  Biso   1.000  C
  C28      1.0000 0.67200  0.85910  0.00350  Biso   1.000  C
  C29      1.0000 0.69300  0.63160  0.36500  Biso   1.000  C
  C30      1.0000 0.30700  0.13160  0.13500  Biso   1.000  C
  C31      1.0000 0.30700  0.36840  0.63500  Biso   1.000  C
  C32      1.0000 0.69300  0.86840  0.86500  Biso   1.000  C
  C33      1.0000 0.80900  0.60030  0.36820  Biso   1.000  C
  C34      1.0000 0.19100  0.10030  0.13180  Biso   1.000  C
  C35      1.0000 0.19100  0.39970  0.63180  Biso   1.000  C
  C36      1.0000 0.80900  0.89970  0.86820  Biso   1.000  C
  C37      1.0000 0.91700  0.57890  0.50900  Biso   1.000  C
  C38      1.0000 0.08300  0.07890  0.99100  Biso   1.000  C
  C39      1.0000 0.08300  0.42110  0.49100  Biso   1.000  C
  C40      1.0000 0.91700  0.92110  0.00900  Biso   1.000  C
  C41      1.0000 0.89810  0.58750  0.65210  Biso   1.000  C
  C42      1.0000 0.10190  0.08750  0.84790  Biso   1.000  C
  C43      1.0000 0.10190  0.41250  0.34790  Biso   1.000  C
  C44      1.0000 0.89810  0.91250  0.15210  Biso   1.000  C
  C45      1.0000 0.58510  0.58720  0.81730  Biso   1.000  C
  C46      1.0000 0.41490  0.08720  0.68270  Biso   1.000  C
  C47      1.0000 0.41490  0.41280  0.18270  Biso   1.000  C
  C48      1.0000 0.58510  0.91280  0.31730  Biso   1.000  C
  C49      1.0000 0.49930  0.59550  0.90850  Biso   1.000  C
  C50      1.0000 0.50070  0.09550  0.59150  Biso   1.000  C
  C51      1.0000 0.50070  0.40450  0.09150  Biso   1.000  C
  C52      1.0000 0.49930  0.90450  0.40850  Biso   1.000  C
  C53      1.0000 0.38000  0.56300  0.90220  Biso   1.000  C
  C54      1.0000 0.62000  0.06300  0.59780  Biso   1.000  C
  C55      1.0000 0.62000  0.43700  0.09780  Biso   1.000  C
  C56      1.0000 0.38000  0.93700  0.40220  Biso   1.000  C
  C57      1.0000 0.34220  0.52390  0.80500  Biso   1.000  C
  C58      1.0000 0.65780  0.02390  0.69500  Biso   1.000  C
  C59      1.0000 0.65780  0.47610  0.19500  Biso   1.000  C
  C60      1.0000 0.34220  0.97610  0.30500  Biso   1.000  C
  C61      1.0000 0.42600  0.51520  0.71040  Biso   1.000  C
  C62      1.0000 0.57400  0.01520  0.78960  Biso   1.000  C
  C63      1.0000 0.57400  0.48480  0.28960  Biso   1.000  C
  C64      1.0000 0.42600  0.98480  0.21040  Biso   1.000  C
  C65      1.0000 0.54880  0.54680  0.71790  Biso   1.000  C
  C66      1.0000 0.45120  0.04680  0.78210  Biso   1.000  C
  C67      1.0000 0.45120  0.45320  0.28210  Biso   1.000  C
  C68      1.0000 0.54880  0.95320  0.21790  Biso   1.000  C
  C69      1.0000 0.92950  0.61240  0.99780  Biso   1.000  C
  C70      1.0000 0.07050  0.11240  0.50220  Biso   1.000  C
  C71      1.0000 0.07050  0.38760  0.00220  Biso   1.000  C
  C72      1.0000 0.92950  0.88760  0.49780  Biso   1.000  C
  C73      1.0000 0.05700  0.64580  0.06820  Biso   1.000  C
  C74      1.0000 0.94300  0.14580  0.43180  Biso   1.000  C
  C75      1.0000 0.94300  0.35420  0.93180  Biso   1.000  C
  C76      1.0000 0.05700  0.85420  0.56820  Biso   1.000  C
  C77      1.0000 0.20750  0.63150  0.19100  Biso   1.000  C
  C78      1.0000 0.79250  0.13150  0.30900  Biso   1.000  C
  C79      1.0000 0.79250  0.36850  0.80900  Biso   1.000  C
  C80      1.0000 0.20750  0.86850  0.69100  Biso   1.000  C
  C81      1.0000 0.22900  0.58610  0.25110  Biso   1.000  C
  C82      1.0000 0.77100  0.08610  0.24890  Biso   1.000  C
  C83      1.0000 0.77100  0.41390  0.74890  Biso   1.000  C
  C84      1.0000 0.22900  0.91390  0.75110  Biso   1.000  C
  C85      1.0000 0.10500  0.55380  0.18670  Biso   1.000  C
  C86      1.0000 0.89500  0.05380  0.31330  Biso   1.000  C
  C87      1.0000 0.89500  0.44620  0.81330  Biso   1.000  C
  C88      1.0000 0.10500  0.94620  0.68670  Biso   1.000  C
  C89      1.0000 0.95750  0.56610  0.05910  Biso   1.000  C
  C90      1.0000 0.04250  0.06610  0.44090  Biso   1.000  C
  C91      1.0000 0.04250  0.43390  0.94090  Biso   1.000  C
  C92      1.0000 0.95750  0.93390  0.55910  Biso   1.000  C
  H1       1.0000 0.58442  0.66293  0.50015  Biso   1.000  H
  H2       1.0000 0.41558  0.16293  0.99985  Biso   1.000  H
  H3       1.0000 0.41558  0.33707  0.49985  Biso   1.000  H
  H4       1.0000 0.58442  0.83707  0.00015  Biso   1.000  H
  H5       1.0000 0.62382  0.64770  0.26104  Biso   1.000  H
  H6       1.0000 0.37618  0.14770  0.23896  Biso   1.000  H
  H7       1.0000 0.37618  0.35230  0.73896  Biso   1.000  H
  H8       1.0000 0.62382  0.85230  0.76104  Biso   1.000  H
  H9       1.0000 0.82079  0.59360  0.26732  Biso   1.000  H
  H10      1.0000 0.17921  0.09360  0.23268  Biso   1.000  H
  H11      1.0000 0.17921  0.40640  0.73268  Biso   1.000  H
  H12      1.0000 0.82079  0.90640  0.76732  Biso   1.000  H
  H13      1.0000 0.00620  0.55651  0.51090  Biso   1.000  H
  H14      1.0000 0.99380  0.05651  0.98910  Biso   1.000  H
  H15      1.0000 0.99380  0.44349  0.48910  Biso   1.000  H
  H16      1.0000 0.00620  0.94349  0.01090  Biso   1.000  H
  H17      1.0000 0.97277  0.57152  0.75334  Biso   1.000  H
  H18      1.0000 0.02723  0.07152  0.74666  Biso   1.000  H
  H19      1.0000 0.02723  0.42848  0.24666  Biso   1.000  H
  H20      1.0000 0.97277  0.92848  0.25334  Biso   1.000  H
  H21      1.0000 0.52199  0.62407  0.98214  Biso   1.000  H
  H22      1.0000 0.47801  0.12407  0.51786  Biso   1.000  H
  H23      1.0000 0.47801  0.37593  0.01786  Biso   1.000  H
  H24      1.0000 0.52199  0.87593  0.48214  Biso   1.000  H
  H25      1.0000 0.31924  0.56725  0.96866  Biso   1.000  H
  H26      1.0000 0.68076  0.06725  0.53134  Biso   1.000  H
  H27      1.0000 0.68076  0.43275  0.03134  Biso   1.000  H
  H28      1.0000 0.31924  0.93275  0.46866  Biso   1.000  H
  H29      1.0000 0.25686  0.50056  0.80146  Biso   1.000  H
  H30      1.0000 0.74314  0.00056  0.69854  Biso   1.000  H
  H31      1.0000 0.74314  0.49944  0.19854  Biso   1.000  H
  H32      1.0000 0.25686  0.99944  0.30146  Biso   1.000  H
  H33      1.0000 0.39634  0.48660  0.63869  Biso   1.000  H
  H34      1.0000 0.60366  0.98660  0.86131  Biso   1.000  H
  H35      1.0000 0.60366  0.51340  0.36131  Biso   1.000  H
  H36      1.0000 0.39634  0.01340  0.13869  Biso   1.000  H
  H37      1.0000 0.60933  0.54071  0.65017  Biso   1.000  H
  H38      1.0000 0.39067  0.04071  0.84983  Biso   1.000  H
  H39      1.0000 0.39067  0.45929  0.34983  Biso   1.000  H
  H40      1.0000 0.60933  0.95929  0.15017  Biso   1.000  H
  H41      1.0000 0.04116  0.67944  0.02551  Biso   1.000  H
  H42      1.0000 0.95884  0.17944  0.47449  Biso   1.000  H
  H43      1.0000 0.95884  0.32056  0.97449  Biso   1.000  H
  H44      1.0000 0.04116  0.82056  0.52551  Biso   1.000  H
  H45      1.0000 0.30133  0.65426  0.23795  Biso   1.000  H
  H46      1.0000 0.69867  0.15426  0.26205  Biso   1.000  H
  H47      1.0000 0.69867  0.34574  0.76205  Biso   1.000  H
  H48      1.0000 0.30133  0.84574  0.73795  Biso   1.000  H
  H49      1.0000 0.33240  0.57599  0.34153  Biso   1.000  H
  H50      1.0000 0.66760  0.07599  0.15847  Biso   1.000  H
  H51      1.0000 0.66760  0.42401  0.65847  Biso   1.000  H
  H52      1.0000 0.33240  0.92401  0.84153  Biso   1.000  H
  H53      1.0000 0.12465  0.52009  0.23299  Biso   1.000  H
  H54      1.0000 0.87535  0.02009  0.26701  Biso   1.000  H
  H55      1.0000 0.87535  0.47991  0.76701  Biso   1.000  H
  H56      1.0000 0.12465  0.97991  0.73299  Biso   1.000  H
  H57      1.0000 0.86873  0.54044  0.01033  Biso   1.000  H
  H58      1.0000 0.13127  0.04044  0.48967  Biso   1.000  H
  H59      1.0000 0.13127  0.45956  0.98967  Biso   1.000  H
  H60      1.0000 0.86873  0.95956  0.51033  Biso   1.000  H
  H61      1.0000 0.36640  0.66780  0.53995  Biso   1.000  H
  H62      1.0000 0.63360  0.16780  0.96005  Biso   1.000  H
  H63      1.0000 0.63360  0.33220  0.46005  Biso   1.000  H
  H64      1.0000 0.36640  0.83220  0.03995  Biso   1.000  H
  H65      1.0000 0.07516  0.66906  0.41302  Biso   1.000  H
  H66      1.0000 0.92484  0.16906  0.08698  Biso   1.000  H
  H67      1.0000 0.92484  0.33094  0.58698  Biso   1.000  H
  H68      1.0000 0.07516  0.83094  0.91302  Biso   1.000  H
  H69      1.0000 0.92815  0.70586  0.53423  Biso   1.000  H
  H70      1.0000 0.07185  0.20586  0.96577  Biso   1.000  H
  H71      1.0000 0.07185  0.29414  0.46577  Biso   1.000  H
  H72      1.0000 0.92815  0.79414  0.03423  Biso   1.000  H
  H73      1.0000 0.07402  0.74305  0.79025  Biso   1.000  H
  H74      1.0000 0.92598  0.24305  0.70975  Biso   1.000  H
  H75      1.0000 0.92598  0.25695  0.20975  Biso   1.000  H
  H76      1.0000 0.07402  0.75695  0.29025  Biso   1.000  H
  H77      1.0000 0.36279  0.73569  0.92389  Biso   1.000  H
  H78      1.0000 0.63721  0.23569  0.57611  Biso   1.000  H
  H79      1.0000 0.63721  0.26431  0.07611  Biso   1.000  H
  H80      1.0000 0.36279  0.76431  0.42389  Biso   1.000  H
