data_image0
_cell_length_a       15.306
_cell_length_b       9.528
_cell_length_c       43.55
_cell_angle_alpha    90
_cell_angle_beta     91.1
_cell_angle_gamma    90

_symmetry_space_group_name_H-M    "P 1"
_symmetry_int_tables_number       1

loop_
  _symmetry_equiv_pos_as_xyz
  'x, y, z'

loop_
  _atom_site_label
  _atom_site_occupancy
  _atom_site_fract_x
  _atom_site_fract_y
  _atom_site_fract_z
  _atom_site_thermal_displace_type
  _atom_site_B_iso_or_equiv
  _atom_site_type_symbol
  Cu1      1.0000 0.39112  0.23641  0.36895  Biso   1.000  Cu
  Cu2      1.0000 0.89112  0.73641  0.36895  Biso   1.000  Cu
  Cu3      1.0000 0.60888  0.23641  0.13105  Biso   1.000  Cu
  Cu4      1.0000 0.10888  0.73641  0.13105  Biso   1.000  Cu
  Cu5      1.0000 0.60888  0.76359  0.63105  Biso   1.000  Cu
  Cu6      1.0000 0.10888  0.26359  0.63105  Biso   1.000  Cu
  Cu7      1.0000 0.39112  0.76359  0.86895  Biso   1.000  Cu
  Cu8      1.0000 0.89112  0.26359  0.86895  Biso   1.000  Cu
  Cu9      1.0000 0.63104  0.97938  0.32053  Biso   1.000  Cu
  Cu10     1.0000 0.13104  0.47938  0.32053  Biso   1.000  Cu
  Cu11     1.0000 0.36896  0.97938  0.17947  Biso   1.000  Cu
  Cu12     1.0000 0.86896  0.47938  0.17947  Biso   1.000  Cu
  Cu13     1.0000 0.36896  0.02062  0.67947  Biso   1.000  Cu
  Cu14     1.0000 0.86896  0.52062  0.67947  Biso   1.000  Cu
  Cu15     1.0000 0.63104  0.02062  0.82053  Biso   1.000  Cu
  Cu16     1.0000 0.13104  0.52062  0.82053  Biso   1.000  Cu
  P1       1.0000 0.44155  0.27219  0.41736  Biso   1.000  P
  P2       1.0000 0.94155  0.77219  0.41736  Biso   1.000  P
  P3       1.0000 0.55845  0.27219  0.08264  Biso   1.000  P
  P4       1.0000 0.05845  0.77219  0.08264  Biso   1.000  P
  P5       1.0000 0.55845  0.72781  0.58264  Biso   1.000  P
  P6       1.0000 0.05845  0.22781  0.58264  Biso   1.000  P
  P7       1.0000 0.44155  0.72781  0.91736  Biso   1.000  P
  P8       1.0000 0.94155  0.22781  0.91736  Biso   1.000  P
  N1       1.0000 0.29760  0.34980  0.35070  Biso   1.000  N
  N2       1.0000 0.79760  0.84980  0.35070  Biso   1.000  N
  N3       1.0000 0.70240  0.34980  0.14930  Biso   1.000  N
  N4       1.0000 0.20240  0.84980  0.14930  Biso   1.000  N
  N5       1.0000 0.70240  0.65020  0.64930  Biso   1.000  N
  N6       1.0000 0.20240  0.15020  0.64930  Biso   1.000  N
  N7       1.0000 0.29760  0.65020  0.85070  Biso   1.000  N
  N8       1.0000 0.79760  0.15020  0.85070  Biso   1.000  N
  N9       1.0000 0.49010  0.18620  0.34261  Biso   1.000  N
  N10      1.0000 0.99010  0.68620  0.34261  Biso   1.000  N
  N11      1.0000 0.50990  0.18620  0.15739  Biso   1.000  N
  N12      1.0000 0.00990  0.68620  0.15739  Biso   1.000  N
  N13      1.0000 0.50990  0.81380  0.65739  Biso   1.000  N
  N14      1.0000 0.00990  0.31380  0.65739  Biso   1.000  N
  N15      1.0000 0.49010  0.81380  0.84261  Biso   1.000  N
  N16      1.0000 0.99010  0.31380  0.84261  Biso   1.000  N
  N17      1.0000 0.54430  0.11630  0.33307  Biso   1.000  N
  N18      1.0000 0.04430  0.61630  0.33307  Biso   1.000  N
  N19      1.0000 0.45570  0.11630  0.16693  Biso   1.000  N
  N20      1.0000 0.95570  0.61630  0.16693  Biso   1.000  N
  N21      1.0000 0.45570  0.88370  0.66693  Biso   1.000  N
  N22      1.0000 0.95570  0.38370  0.66693  Biso   1.000  N
  N23      1.0000 0.54430  0.88370  0.83307  Biso   1.000  N
  N24      1.0000 0.04430  0.38370  0.83307  Biso   1.000  N
  N25      1.0000 0.23600  0.40120  0.33964  Biso   1.000  N
  N26      1.0000 0.73600  0.90120  0.33964  Biso   1.000  N
  N27      1.0000 0.76400  0.40120  0.16036  Biso   1.000  N
  N28      1.0000 0.26400  0.90120  0.16036  Biso   1.000  N
  N29      1.0000 0.76400  0.59880  0.66036  Biso   1.000  N
  N30      1.0000 0.26400  0.09880  0.66036  Biso   1.000  N
  N31      1.0000 0.23600  0.59880  0.83964  Biso   1.000  N
  N32      1.0000 0.73600  0.09880  0.83964  Biso   1.000  N
  N33      1.0000 0.32770  0.02970  0.36862  Biso   1.000  N
  N34      1.0000 0.82770  0.52970  0.36862  Biso   1.000  N
  N35      1.0000 0.67230  0.02970  0.13138  Biso   1.000  N
  N36      1.0000 0.17230  0.52970  0.13138  Biso   1.000  N
  N37      1.0000 0.67230  0.97030  0.63138  Biso   1.000  N
  N38      1.0000 0.17230  0.47030  0.63138  Biso   1.000  N
  N39      1.0000 0.32770  0.97030  0.86862  Biso   1.000  N
  N40      1.0000 0.82770  0.47030  0.86862  Biso   1.000  N
  N41      1.0000 0.66530  0.02860  0.27415  Biso   1.000  N
  N42      1.0000 0.16530  0.52860  0.27415  Biso   1.000  N
  N43      1.0000 0.33470  0.02860  0.22585  Biso   1.000  N
  N44      1.0000 0.83470  0.52860  0.22585  Biso   1.000  N
  N45      1.0000 0.33470  0.97140  0.72585  Biso   1.000  N
  N46      1.0000 0.83470  0.47140  0.72585  Biso   1.000  N
  N47      1.0000 0.66530  0.97140  0.77415  Biso   1.000  N
  N48      1.0000 0.16530  0.47140  0.77415  Biso   1.000  N
  N49      1.0000 0.55540  0.78730  0.30797  Biso   1.000  N
  N50      1.0000 0.05540  0.28730  0.30797  Biso   1.000  N
  N51      1.0000 0.44460  0.78730  0.19203  Biso   1.000  N
  N52      1.0000 0.94460  0.28730  0.19203  Biso   1.000  N
  N53      1.0000 0.44460  0.21270  0.69203  Biso   1.000  N
  N54      1.0000 0.94460  0.71270  0.69203  Biso   1.000  N
  N55      1.0000 0.55540  0.21270  0.80797  Biso   1.000  N
  N56      1.0000 0.05540  0.71270  0.80797  Biso   1.000  N
  C1       1.0000 0.45130  0.45460  0.43024  Biso   1.000  C
  C2       1.0000 0.95130  0.95460  0.43024  Biso   1.000  C
  C3       1.0000 0.54870  0.45460  0.06976  Biso   1.000  C
  C4       1.0000 0.04870  0.95460  0.06976  Biso   1.000  C
  C5       1.0000 0.54870  0.54540  0.56976  Biso   1.000  C
  C6       1.0000 0.04870  0.04540  0.56976  Biso   1.000  C
  C7       1.0000 0.45130  0.54540  0.93024  Biso   1.000  C
  C8       1.0000 0.95130  0.04540  0.93024  Biso   1.000  C
  C9       1.0000 0.47460  0.55260  0.40817  Biso   1.000  C
  C10      1.0000 0.97460  0.05260  0.40817  Biso   1.000  C
  C11      1.0000 0.52540  0.55260  0.09183  Biso   1.000  C
  C12      1.0000 0.02540  0.05260  0.09183  Biso   1.000  C
  C13      1.0000 0.52540  0.44740  0.59183  Biso   1.000  C
  C14      1.0000 0.02540  0.94740  0.59183  Biso   1.000  C
  C15      1.0000 0.47460  0.44740  0.90817  Biso   1.000  C
  C16      1.0000 0.97460  0.94740  0.90817  Biso   1.000  C
  C17      1.0000 0.48600  0.69140  0.41601  Biso   1.000  C
  C18      1.0000 0.98600  0.19140  0.41601  Biso   1.000  C
  C19      1.0000 0.51400  0.69140  0.08399  Biso   1.000  C
  C20      1.0000 0.01400  0.19140  0.08399  Biso   1.000  C
  C21      1.0000 0.51400  0.30860  0.58399  Biso   1.000  C
  C22      1.0000 0.01400  0.80860  0.58399  Biso   1.000  C
  C23      1.0000 0.48600  0.30860  0.91601  Biso   1.000  C
  C24      1.0000 0.98600  0.80860  0.91601  Biso   1.000  C
  C25      1.0000 0.47480  0.73480  0.44569  Biso   1.000  C
  C26      1.0000 0.97480  0.23480  0.44569  Biso   1.000  C
  C27      1.0000 0.52520  0.73480  0.05431  Biso   1.000  C
  C28      1.0000 0.02520  0.23480  0.05431  Biso   1.000  C
  C29      1.0000 0.52520  0.26520  0.55431  Biso   1.000  C
  C30      1.0000 0.02520  0.76520  0.55431  Biso   1.000  C
  C31      1.0000 0.47480  0.26520  0.94569  Biso   1.000  C
  C32      1.0000 0.97480  0.76520  0.94569  Biso   1.000  C
  C33      1.0000 0.45050  0.63890  0.46732  Biso   1.000  C
  C34      1.0000 0.95050  0.13890  0.46732  Biso   1.000  C
  C35      1.0000 0.54950  0.63890  0.03268  Biso   1.000  C
  C36      1.0000 0.04950  0.13890  0.03268  Biso   1.000  C
  C37      1.0000 0.54950  0.36110  0.53268  Biso   1.000  C
  C38      1.0000 0.04950  0.86110  0.53268  Biso   1.000  C
  C39      1.0000 0.45050  0.36110  0.96732  Biso   1.000  C
  C40      1.0000 0.95050  0.86110  0.96732  Biso   1.000  C
  C41      1.0000 0.43980  0.49900  0.45970  Biso   1.000  C
  C42      1.0000 0.93980  0.99900  0.45970  Biso   1.000  C
  C43      1.0000 0.56020  0.49900  0.04030  Biso   1.000  C
  C44      1.0000 0.06020  0.99900  0.04030  Biso   1.000  C
  C45      1.0000 0.56020  0.50100  0.54030  Biso   1.000  C
  C46      1.0000 0.06020  0.00100  0.54030  Biso   1.000  C
  C47      1.0000 0.43980  0.50100  0.95970  Biso   1.000  C
  C48      1.0000 0.93980  0.00100  0.95970  Biso   1.000  C
  C49      1.0000 0.55100  0.20420  0.42537  Biso   1.000  C
  C50      1.0000 0.05100  0.70420  0.42537  Biso   1.000  C
  C51      1.0000 0.44900  0.20420  0.07463  Biso   1.000  C
  C52      1.0000 0.94900  0.70420  0.07463  Biso   1.000  C
  C53      1.0000 0.44900  0.79580  0.57463  Biso   1.000  C
  C54      1.0000 0.94900  0.29580  0.57463  Biso   1.000  C
  C55      1.0000 0.55100  0.79580  0.92537  Biso   1.000  C
  C56      1.0000 0.05100  0.29580  0.92537  Biso   1.000  C
  C57      1.0000 0.57210  0.07550  0.41220  Biso   1.000  C
  C58      1.0000 0.07210  0.57550  0.41220  Biso   1.000  C
  C59      1.0000 0.42790  0.07550  0.08780  Biso   1.000  C
  C60      1.0000 0.92790  0.57550  0.08780  Biso   1.000  C
  C61      1.0000 0.42790  0.92450  0.58780  Biso   1.000  C
  C62      1.0000 0.92790  0.42450  0.58780  Biso   1.000  C
  C63      1.0000 0.57210  0.92450  0.91220  Biso   1.000  C
  C64      1.0000 0.07210  0.42450  0.91220  Biso   1.000  C
  C65      1.0000 0.65560  0.02130  0.41531  Biso   1.000  C
  C66      1.0000 0.15560  0.52130  0.41531  Biso   1.000  C
  C67      1.0000 0.34440  0.02130  0.08469  Biso   1.000  C
  C68      1.0000 0.84440  0.52130  0.08469  Biso   1.000  C
  C69      1.0000 0.34440  0.97870  0.58469  Biso   1.000  C
  C70      1.0000 0.84440  0.47870  0.58469  Biso   1.000  C
  C71      1.0000 0.65560  0.97870  0.91531  Biso   1.000  C
  C72      1.0000 0.15560  0.47870  0.91531  Biso   1.000  C
  C73      1.0000 0.71730  0.09170  0.43193  Biso   1.000  C
  C74      1.0000 0.21730  0.59170  0.43193  Biso   1.000  C
  C75      1.0000 0.28270  0.09170  0.06807  Biso   1.000  C
  C76      1.0000 0.78270  0.59170  0.06807  Biso   1.000  C
  C77      1.0000 0.28270  0.90830  0.56807  Biso   1.000  C
  C78      1.0000 0.78270  0.40830  0.56807  Biso   1.000  C
  C79      1.0000 0.71730  0.90830  0.93193  Biso   1.000  C
  C80      1.0000 0.21730  0.40830  0.93193  Biso   1.000  C
  C81      1.0000 0.69880  0.21750  0.44501  Biso   1.000  C
  C82      1.0000 0.19880  0.71750  0.44501  Biso   1.000  C
  C83      1.0000 0.30120  0.21750  0.05499  Biso   1.000  C
  C84      1.0000 0.80120  0.71750  0.05499  Biso   1.000  C
  C85      1.0000 0.30120  0.78250  0.55499  Biso   1.000  C
  C86      1.0000 0.80120  0.28250  0.55499  Biso   1.000  C
  C87      1.0000 0.69880  0.78250  0.94501  Biso   1.000  C
  C88      1.0000 0.19880  0.28250  0.94501  Biso   1.000  C
  C89      1.0000 0.61540  0.27230  0.44185  Biso   1.000  C
  C90      1.0000 0.11540  0.77230  0.44185  Biso   1.000  C
  C91      1.0000 0.38460  0.27230  0.05815  Biso   1.000  C
  C92      1.0000 0.88460  0.77230  0.05815  Biso   1.000  C
  C93      1.0000 0.38460  0.72770  0.55815  Biso   1.000  C
  C94      1.0000 0.88460  0.22770  0.55815  Biso   1.000  C
  C95      1.0000 0.61540  0.72770  0.94185  Biso   1.000  C
  C96      1.0000 0.11540  0.22770  0.94185  Biso   1.000  C
  C97      1.0000 0.37630  0.18950  0.44727  Biso   1.000  C
  C98      1.0000 0.87630  0.68950  0.44727  Biso   1.000  C
  C99      1.0000 0.62370  0.18950  0.05273  Biso   1.000  C
  C100     1.0000 0.12370  0.68950  0.05273  Biso   1.000  C
  C101     1.0000 0.62370  0.81050  0.55273  Biso   1.000  C
  C102     1.0000 0.12370  0.31050  0.55273  Biso   1.000  C
  C103     1.0000 0.37630  0.81050  0.94727  Biso   1.000  C
  C104     1.0000 0.87630  0.31050  0.94727  Biso   1.000  C
  C105     1.0000 0.28630  0.19510  0.44368  Biso   1.000  C
  C106     1.0000 0.78630  0.69510  0.44368  Biso   1.000  C
  C107     1.0000 0.71370  0.19510  0.05632  Biso   1.000  C
  C108     1.0000 0.21370  0.69510  0.05632  Biso   1.000  C
  C109     1.0000 0.71370  0.80490  0.55632  Biso   1.000  C
  C110     1.0000 0.21370  0.30490  0.55632  Biso   1.000  C
  C111     1.0000 0.28630  0.80490  0.94368  Biso   1.000  C
  C112     1.0000 0.78630  0.30490  0.94368  Biso   1.000  C
  C113     1.0000 0.23270  0.12980  0.46455  Biso   1.000  C
  C114     1.0000 0.73270  0.62980  0.46455  Biso   1.000  C
  C115     1.0000 0.76730  0.12980  0.03545  Biso   1.000  C
  C116     1.0000 0.26730  0.62980  0.03545  Biso   1.000  C
  C117     1.0000 0.76730  0.87020  0.53545  Biso   1.000  C
  C118     1.0000 0.26730  0.37020  0.53545  Biso   1.000  C
  C119     1.0000 0.23270  0.87020  0.96455  Biso   1.000  C
  C120     1.0000 0.73270  0.37020  0.96455  Biso   1.000  C
  C121     1.0000 0.26780  0.06000  0.48902  Biso   1.000  C
  C122     1.0000 0.76780  0.56000  0.48902  Biso   1.000  C
  C123     1.0000 0.73220  0.06000  0.01098  Biso   1.000  C
  C124     1.0000 0.23220  0.56000  0.01098  Biso   1.000  C
  C125     1.0000 0.73220  0.94000  0.51098  Biso   1.000  C
  C126     1.0000 0.23220  0.44000  0.51098  Biso   1.000  C
  C127     1.0000 0.26780  0.94000  0.98902  Biso   1.000  C
  C128     1.0000 0.76780  0.44000  0.98902  Biso   1.000  C
  C129     1.0000 0.35780  0.05610  0.49306  Biso   1.000  C
  C130     1.0000 0.85780  0.55610  0.49306  Biso   1.000  C
  C131     1.0000 0.64220  0.05610  0.00694  Biso   1.000  C
  C132     1.0000 0.14220  0.55610  0.00694  Biso   1.000  C
  C133     1.0000 0.64220  0.94390  0.50694  Biso   1.000  C
  C134     1.0000 0.14220  0.44390  0.50694  Biso   1.000  C
  C135     1.0000 0.35780  0.94390  0.99306  Biso   1.000  C
  C136     1.0000 0.85780  0.44390  0.99306  Biso   1.000  C
  C137     1.0000 0.41090  0.11970  0.47227  Biso   1.000  C
  C138     1.0000 0.91090  0.61970  0.47227  Biso   1.000  C
  C139     1.0000 0.58910  0.11970  0.02773  Biso   1.000  C
  C140     1.0000 0.08910  0.61970  0.02773  Biso   1.000  C
  C141     1.0000 0.58910  0.88030  0.52773  Biso   1.000  C
  C142     1.0000 0.08910  0.38030  0.52773  Biso   1.000  C
  C143     1.0000 0.41090  0.88030  0.97227  Biso   1.000  C
  C144     1.0000 0.91090  0.38030  0.97227  Biso   1.000  C
  C145     1.0000 0.36880  0.91350  0.36041  Biso   1.000  C
  C146     1.0000 0.86880  0.41350  0.36041  Biso   1.000  C
  C147     1.0000 0.63120  0.91350  0.13959  Biso   1.000  C
  C148     1.0000 0.13120  0.41350  0.13959  Biso   1.000  C
  C149     1.0000 0.63120  0.08650  0.63959  Biso   1.000  C
  C150     1.0000 0.13120  0.58650  0.63959  Biso   1.000  C
  C151     1.0000 0.36880  0.08650  0.86041  Biso   1.000  C
  C152     1.0000 0.86880  0.58650  0.86041  Biso   1.000  C
  C153     1.0000 0.32810  0.78580  0.35714  Biso   1.000  C
  C154     1.0000 0.82810  0.28580  0.35714  Biso   1.000  C
  C155     1.0000 0.67190  0.78580  0.14286  Biso   1.000  C
  C156     1.0000 0.17190  0.28580  0.14286  Biso   1.000  C
  C157     1.0000 0.67190  0.21420  0.64286  Biso   1.000  C
  C158     1.0000 0.17190  0.71420  0.64286  Biso   1.000  C
  C159     1.0000 0.32810  0.21420  0.85714  Biso   1.000  C
  C160     1.0000 0.82810  0.71420  0.85714  Biso   1.000  C
  C161     1.0000 0.23970  0.77640  0.36155  Biso   1.000  C
  C162     1.0000 0.73970  0.27640  0.36155  Biso   1.000  C
  C163     1.0000 0.76030  0.77640  0.13845  Biso   1.000  C
  C164     1.0000 0.26030  0.27640  0.13845  Biso   1.000  C
  C165     1.0000 0.76030  0.22360  0.63845  Biso   1.000  C
  C166     1.0000 0.26030  0.72360  0.63845  Biso   1.000  C
  C167     1.0000 0.23970  0.22360  0.86155  Biso   1.000  C
  C168     1.0000 0.73970  0.72360  0.86155  Biso   1.000  C
  C169     1.0000 0.19770  0.89670  0.37034  Biso   1.000  C
  C170     1.0000 0.69770  0.39670  0.37034  Biso   1.000  C
  C171     1.0000 0.80230  0.89670  0.12966  Biso   1.000  C
  C172     1.0000 0.30230  0.39670  0.12966  Biso   1.000  C
  C173     1.0000 0.80230  0.10330  0.62966  Biso   1.000  C
  C174     1.0000 0.30230  0.60330  0.62966  Biso   1.000  C
  C175     1.0000 0.19770  0.10330  0.87034  Biso   1.000  C
  C176     1.0000 0.69770  0.60330  0.87034  Biso   1.000  C
  C177     1.0000 0.24140  0.01870  0.37356  Biso   1.000  C
  C178     1.0000 0.74140  0.51870  0.37356  Biso   1.000  C
  C179     1.0000 0.75860  0.01870  0.12644  Biso   1.000  C
  C180     1.0000 0.25860  0.51870  0.12644  Biso   1.000  C
  C181     1.0000 0.75860  0.98130  0.62644  Biso   1.000  C
  C182     1.0000 0.25860  0.48130  0.62644  Biso   1.000  C
  C183     1.0000 0.24140  0.98130  0.87356  Biso   1.000  C
  C184     1.0000 0.74140  0.48130  0.87356  Biso   1.000  C
  C185     1.0000 0.62260  0.12380  0.25752  Biso   1.000  C
  C186     1.0000 0.12260  0.62380  0.25752  Biso   1.000  C
  C187     1.0000 0.37740  0.12380  0.24248  Biso   1.000  C
  C188     1.0000 0.87740  0.62380  0.24248  Biso   1.000  C
  C189     1.0000 0.37740  0.87620  0.74248  Biso   1.000  C
  C190     1.0000 0.87740  0.37620  0.74248  Biso   1.000  C
  C191     1.0000 0.62260  0.87620  0.75752  Biso   1.000  C
  C192     1.0000 0.12260  0.37620  0.75752  Biso   1.000  C
  C193     1.0000 0.63620  0.14720  0.22701  Biso   1.000  C
  C194     1.0000 0.13620  0.64720  0.22701  Biso   1.000  C
  C195     1.0000 0.36380  0.14720  0.27299  Biso   1.000  C
  C196     1.0000 0.86380  0.64720  0.27299  Biso   1.000  C
  C197     1.0000 0.36380  0.85280  0.77299  Biso   1.000  C
  C198     1.0000 0.86380  0.35280  0.77299  Biso   1.000  C
  C199     1.0000 0.63620  0.85280  0.72701  Biso   1.000  C
  C200     1.0000 0.13620  0.35280  0.72701  Biso   1.000  C
  C201     1.0000 0.69750  0.07330  0.21310  Biso   1.000  C
  C202     1.0000 0.19750  0.57330  0.21310  Biso   1.000  C
  C203     1.0000 0.30250  0.07330  0.28690  Biso   1.000  C
  C204     1.0000 0.80250  0.57330  0.28690  Biso   1.000  C
  C205     1.0000 0.30250  0.92670  0.78690  Biso   1.000  C
  C206     1.0000 0.80250  0.42670  0.78690  Biso   1.000  C
  C207     1.0000 0.69750  0.92670  0.71310  Biso   1.000  C
  C208     1.0000 0.19750  0.42670  0.71310  Biso   1.000  C
  C209     1.0000 0.74440  0.97550  0.22923  Biso   1.000  C
  C210     1.0000 0.24440  0.47550  0.22923  Biso   1.000  C
  C211     1.0000 0.25560  0.97550  0.27077  Biso   1.000  C
  C212     1.0000 0.75560  0.47550  0.27077  Biso   1.000  C
  C213     1.0000 0.25560  0.02450  0.77077  Biso   1.000  C
  C214     1.0000 0.75560  0.52450  0.77077  Biso   1.000  C
  C215     1.0000 0.74440  0.02450  0.72923  Biso   1.000  C
  C216     1.0000 0.24440  0.52450  0.72923  Biso   1.000  C
  C217     1.0000 0.72530  0.95740  0.26032  Biso   1.000  C
  C218     1.0000 0.22530  0.45740  0.26032  Biso   1.000  C
  C219     1.0000 0.27470  0.95740  0.23968  Biso   1.000  C
  C220     1.0000 0.77470  0.45740  0.23968  Biso   1.000  C
  C221     1.0000 0.27470  0.04260  0.73968  Biso   1.000  C
  C222     1.0000 0.77470  0.54260  0.73968  Biso   1.000  C
  C223     1.0000 0.72530  0.04260  0.76032  Biso   1.000  C
  C224     1.0000 0.22530  0.54260  0.76032  Biso   1.000  C
  C225     1.0000 0.57540  0.66310  0.31893  Biso   1.000  C
  C226     1.0000 0.07540  0.16310  0.31893  Biso   1.000  C
  C227     1.0000 0.42460  0.66310  0.18107  Biso   1.000  C
  C228     1.0000 0.92460  0.16310  0.18107  Biso   1.000  C
  C229     1.0000 0.42460  0.33690  0.68107  Biso   1.000  C
  C230     1.0000 0.92460  0.83690  0.68107  Biso   1.000  C
  C231     1.0000 0.57540  0.33690  0.81893  Biso   1.000  C
  C232     1.0000 0.07540  0.83690  0.81893  Biso   1.000  C
  C233     1.0000 0.52950  0.54410  0.31444  Biso   1.000  C
  C234     1.0000 0.02950  0.04410  0.31444  Biso   1.000  C
  C235     1.0000 0.47050  0.54410  0.18556  Biso   1.000  C
  C236     1.0000 0.97050  0.04410  0.18556  Biso   1.000  C
  C237     1.0000 0.47050  0.45590  0.68556  Biso   1.000  C
  C238     1.0000 0.97050  0.95590  0.68556  Biso   1.000  C
  C239     1.0000 0.52950  0.45590  0.81444  Biso   1.000  C
  C240     1.0000 0.02950  0.95590  0.81444  Biso   1.000  C
  C241     1.0000 0.45690  0.55150  0.29790  Biso   1.000  C
  C242     1.0000 0.95690  0.05150  0.29790  Biso   1.000  C
  C243     1.0000 0.54310  0.55150  0.20210  Biso   1.000  C
  C244     1.0000 0.04310  0.05150  0.20210  Biso   1.000  C
  C245     1.0000 0.54310  0.44850  0.70210  Biso   1.000  C
  C246     1.0000 0.04310  0.94850  0.70210  Biso   1.000  C
  C247     1.0000 0.45690  0.44850  0.79790  Biso   1.000  C
  C248     1.0000 0.95690  0.94850  0.79790  Biso   1.000  C
  C249     1.0000 0.43180  0.67840  0.28540  Biso   1.000  C
  C250     1.0000 0.93180  0.17840  0.28540  Biso   1.000  C
  C251     1.0000 0.56820  0.67840  0.21460  Biso   1.000  C
  C252     1.0000 0.06820  0.17840  0.21460  Biso   1.000  C
  C253     1.0000 0.56820  0.32160  0.71460  Biso   1.000  C
  C254     1.0000 0.06820  0.82160  0.71460  Biso   1.000  C
  C255     1.0000 0.43180  0.32160  0.78540  Biso   1.000  C
  C256     1.0000 0.93180  0.82160  0.78540  Biso   1.000  C
  C257     1.0000 0.48370  0.79300  0.29120  Biso   1.000  C
  C258     1.0000 0.98370  0.29300  0.29120  Biso   1.000  C
  C259     1.0000 0.51630  0.79300  0.20880  Biso   1.000  C
  C260     1.0000 0.01630  0.29300  0.20880  Biso   1.000  C
  C261     1.0000 0.51630  0.20700  0.70880  Biso   1.000  C
  C262     1.0000 0.01630  0.70700  0.70880  Biso   1.000  C
  C263     1.0000 0.48370  0.20700  0.79120  Biso   1.000  C
  C264     1.0000 0.98370  0.70700  0.79120  Biso   1.000  C
  H1       1.0000 0.48193  0.52718  0.38706  Biso   1.000  H
  H2       1.0000 0.98193  0.02718  0.38706  Biso   1.000  H
  H3       1.0000 0.51807  0.52718  0.11294  Biso   1.000  H
  H4       1.0000 0.01807  0.02718  0.11294  Biso   1.000  H
  H5       1.0000 0.51807  0.47282  0.61294  Biso   1.000  H
  H6       1.0000 0.01807  0.97282  0.61294  Biso   1.000  H
  H7       1.0000 0.48193  0.47282  0.88706  Biso   1.000  H
  H8       1.0000 0.98193  0.97282  0.88706  Biso   1.000  H
  H9       1.0000 0.50223  0.75554  0.40036  Biso   1.000  H
  H10      1.0000 0.00223  0.25554  0.40036  Biso   1.000  H
  H11      1.0000 0.49777  0.75554  0.09964  Biso   1.000  H
  H12      1.0000 0.99777  0.25554  0.09964  Biso   1.000  H
  H13      1.0000 0.49777  0.24446  0.59964  Biso   1.000  H
  H14      1.0000 0.99777  0.74446  0.59964  Biso   1.000  H
  H15      1.0000 0.50223  0.24446  0.90036  Biso   1.000  H
  H16      1.0000 0.00223  0.74446  0.90036  Biso   1.000  H
  H17      1.0000 0.48380  0.82662  0.45205  Biso   1.000  H
  H18      1.0000 0.98380  0.32662  0.45205  Biso   1.000  H
  H19      1.0000 0.51620  0.82662  0.04795  Biso   1.000  H
  H20      1.0000 0.01620  0.32662  0.04795  Biso   1.000  H
  H21      1.0000 0.51620  0.17338  0.54795  Biso   1.000  H
  H22      1.0000 0.01620  0.67338  0.54795  Biso   1.000  H
  H23      1.0000 0.48380  0.17338  0.95205  Biso   1.000  H
  H24      1.0000 0.98380  0.67338  0.95205  Biso   1.000  H
  H25      1.0000 0.44190  0.66597  0.48876  Biso   1.000  H
  H26      1.0000 0.94190  0.16597  0.48876  Biso   1.000  H
  H27      1.0000 0.55810  0.66597  0.01124  Biso   1.000  H
  H28      1.0000 0.05810  0.16597  0.01124  Biso   1.000  H
  H29      1.0000 0.55810  0.33403  0.51124  Biso   1.000  H
  H30      1.0000 0.05810  0.83403  0.51124  Biso   1.000  H
  H31      1.0000 0.44190  0.33403  0.98876  Biso   1.000  H
  H32      1.0000 0.94190  0.83403  0.98876  Biso   1.000  H
  H33      1.0000 0.42386  0.43354  0.47543  Biso   1.000  H
  H34      1.0000 0.92386  0.93354  0.47543  Biso   1.000  H
  H35      1.0000 0.57614  0.43354  0.02457  Biso   1.000  H
  H36      1.0000 0.07614  0.93354  0.02457  Biso   1.000  H
  H37      1.0000 0.57614  0.56646  0.52457  Biso   1.000  H
  H38      1.0000 0.07614  0.06646  0.52457  Biso   1.000  H
  H39      1.0000 0.42386  0.56646  0.97543  Biso   1.000  H
  H40      1.0000 0.92386  0.06646  0.97543  Biso   1.000  H
  H41      1.0000 0.52836  0.02736  0.40032  Biso   1.000  H
  H42      1.0000 0.02836  0.52736  0.40032  Biso   1.000  H
  H43      1.0000 0.47164  0.02736  0.09968  Biso   1.000  H
  H44      1.0000 0.97164  0.52736  0.09968  Biso   1.000  H
  H45      1.0000 0.47164  0.97264  0.59968  Biso   1.000  H
  H46      1.0000 0.97164  0.47264  0.59968  Biso   1.000  H
  H47      1.0000 0.52836  0.97264  0.90032  Biso   1.000  H
  H48      1.0000 0.02836  0.47264  0.90032  Biso   1.000  H
  H49      1.0000 0.67174  0.93769  0.40511  Biso   1.000  H
  H50      1.0000 0.17174  0.43769  0.40511  Biso   1.000  H
  H51      1.0000 0.32826  0.93769  0.09489  Biso   1.000  H
  H52      1.0000 0.82826  0.43769  0.09489  Biso   1.000  H
  H53      1.0000 0.32826  0.06231  0.59489  Biso   1.000  H
  H54      1.0000 0.82826  0.56231  0.59489  Biso   1.000  H
  H55      1.0000 0.67174  0.06231  0.90511  Biso   1.000  H
  H56      1.0000 0.17174  0.56231  0.90511  Biso   1.000  H
  H57      1.0000 0.77512  0.05471  0.43412  Biso   1.000  H
  H58      1.0000 0.27512  0.55471  0.43412  Biso   1.000  H
  H59      1.0000 0.22488  0.05471  0.06588  Biso   1.000  H
  H60      1.0000 0.72488  0.55471  0.06588  Biso   1.000  H
  H61      1.0000 0.22488  0.94529  0.56588  Biso   1.000  H
  H62      1.0000 0.72488  0.44529  0.56588  Biso   1.000  H
  H63      1.0000 0.77512  0.94529  0.93412  Biso   1.000  H
  H64      1.0000 0.27512  0.44529  0.93412  Biso   1.000  H
  H65      1.0000 0.74297  0.26230  0.45694  Biso   1.000  H
  H66      1.0000 0.24297  0.76230  0.45694  Biso   1.000  H
  H67      1.0000 0.25703  0.26230  0.04306  Biso   1.000  H
  H68      1.0000 0.75703  0.76230  0.04306  Biso   1.000  H
  H69      1.0000 0.25703  0.73770  0.54306  Biso   1.000  H
  H70      1.0000 0.75703  0.23770  0.54306  Biso   1.000  H
  H71      1.0000 0.74297  0.73770  0.95694  Biso   1.000  H
  H72      1.0000 0.24297  0.23770  0.95694  Biso   1.000  H
  H73      1.0000 0.60235  0.36080  0.45135  Biso   1.000  H
  H74      1.0000 0.10235  0.86080  0.45135  Biso   1.000  H
  H75      1.0000 0.39765  0.36080  0.04865  Biso   1.000  H
  H76      1.0000 0.89765  0.86080  0.04865  Biso   1.000  H
  H77      1.0000 0.39765  0.63920  0.54865  Biso   1.000  H
  H78      1.0000 0.89765  0.13920  0.54865  Biso   1.000  H
  H79      1.0000 0.60235  0.63920  0.95135  Biso   1.000  H
  H80      1.0000 0.10235  0.13920  0.95135  Biso   1.000  H
  H81      1.0000 0.26001  0.23835  0.42628  Biso   1.000  H
  H82      1.0000 0.76001  0.73835  0.42628  Biso   1.000  H
  H83      1.0000 0.73999  0.23835  0.07372  Biso   1.000  H
  H84      1.0000 0.23999  0.73835  0.07372  Biso   1.000  H
  H85      1.0000 0.73999  0.76165  0.57372  Biso   1.000  H
  H86      1.0000 0.23999  0.26165  0.57372  Biso   1.000  H
  H87      1.0000 0.26001  0.76165  0.92628  Biso   1.000  H
  H88      1.0000 0.76001  0.26165  0.92628  Biso   1.000  H
  H89      1.0000 0.17109  0.13349  0.46255  Biso   1.000  H
  H90      1.0000 0.67109  0.63349  0.46255  Biso   1.000  H
  H91      1.0000 0.82891  0.13349  0.03745  Biso   1.000  H
  H92      1.0000 0.32891  0.63349  0.03745  Biso   1.000  H
  H93      1.0000 0.82891  0.86651  0.53745  Biso   1.000  H
  H94      1.0000 0.32891  0.36651  0.53745  Biso   1.000  H
  H95      1.0000 0.17109  0.86651  0.96255  Biso   1.000  H
  H96      1.0000 0.67109  0.36651  0.96255  Biso   1.000  H
  H97      1.0000 0.23087  0.01933  0.50399  Biso   1.000  H
  H98      1.0000 0.73087  0.51933  0.50399  Biso   1.000  H
  H99      1.0000 0.76913  0.01933  0.99601  Biso   1.000  H
  H100     1.0000 0.26913  0.51933  0.99601  Biso   1.000  H
  H101     1.0000 0.76913  0.98067  0.49601  Biso   1.000  H
  H102     1.0000 0.26913  0.48067  0.49601  Biso   1.000  H
  H103     1.0000 0.23087  0.98067  0.00399  Biso   1.000  H
  H104     1.0000 0.73087  0.48067  0.00399  Biso   1.000  H
  H105     1.0000 0.38190  0.01315  0.51109  Biso   1.000  H
  H106     1.0000 0.88190  0.51315  0.51109  Biso   1.000  H
  H107     1.0000 0.61810  0.01315  0.98891  Biso   1.000  H
  H108     1.0000 0.11810  0.51315  0.98891  Biso   1.000  H
  H109     1.0000 0.61810  0.98685  0.48891  Biso   1.000  H
  H110     1.0000 0.11810  0.48685  0.48891  Biso   1.000  H
  H111     1.0000 0.38190  0.98685  0.01109  Biso   1.000  H
  H112     1.0000 0.88190  0.48685  0.01109  Biso   1.000  H
  H113     1.0000 0.47292  0.11481  0.47583  Biso   1.000  H
  H114     1.0000 0.97292  0.61481  0.47583  Biso   1.000  H
  H115     1.0000 0.52708  0.11481  0.02417  Biso   1.000  H
  H116     1.0000 0.02708  0.61481  0.02417  Biso   1.000  H
  H117     1.0000 0.52708  0.88519  0.52417  Biso   1.000  H
  H118     1.0000 0.02708  0.38519  0.52417  Biso   1.000  H
  H119     1.0000 0.47292  0.88519  0.97583  Biso   1.000  H
  H120     1.0000 0.97292  0.38519  0.97583  Biso   1.000  H
  H121     1.0000 0.43106  0.91379  0.35812  Biso   1.000  H
  H122     1.0000 0.93106  0.41379  0.35812  Biso   1.000  H
  H123     1.0000 0.56894  0.91379  0.14188  Biso   1.000  H
  H124     1.0000 0.06894  0.41379  0.14188  Biso   1.000  H
  H125     1.0000 0.56894  0.08621  0.64188  Biso   1.000  H
  H126     1.0000 0.06894  0.58621  0.64188  Biso   1.000  H
  H127     1.0000 0.43106  0.08621  0.85812  Biso   1.000  H
  H128     1.0000 0.93106  0.58621  0.85812  Biso   1.000  H
  H129     1.0000 0.35741  0.70601  0.35191  Biso   1.000  H
  H130     1.0000 0.85741  0.20601  0.35191  Biso   1.000  H
  H131     1.0000 0.64259  0.70601  0.14809  Biso   1.000  H
  H132     1.0000 0.14259  0.20601  0.14809  Biso   1.000  H
  H133     1.0000 0.64259  0.29399  0.64809  Biso   1.000  H
  H134     1.0000 0.14259  0.79399  0.64809  Biso   1.000  H
  H135     1.0000 0.35741  0.29399  0.85191  Biso   1.000  H
  H136     1.0000 0.85741  0.79399  0.85191  Biso   1.000  H
  H137     1.0000 0.20773  0.69404  0.35862  Biso   1.000  H
  H138     1.0000 0.70773  0.19404  0.35862  Biso   1.000  H
  H139     1.0000 0.79227  0.69404  0.14138  Biso   1.000  H
  H140     1.0000 0.29227  0.19404  0.14138  Biso   1.000  H
  H141     1.0000 0.79227  0.30596  0.64138  Biso   1.000  H
  H142     1.0000 0.29227  0.80596  0.64138  Biso   1.000  H
  H143     1.0000 0.20773  0.30596  0.85862  Biso   1.000  H
  H144     1.0000 0.70773  0.80596  0.85862  Biso   1.000  H
  H145     1.0000 0.13723  0.89227  0.37492  Biso   1.000  H
  H146     1.0000 0.63723  0.39227  0.37492  Biso   1.000  H
  H147     1.0000 0.86277  0.89227  0.12508  Biso   1.000  H
  H148     1.0000 0.36277  0.39227  0.12508  Biso   1.000  H
  H149     1.0000 0.86277  0.10773  0.62508  Biso   1.000  H
  H150     1.0000 0.36277  0.60773  0.62508  Biso   1.000  H
  H151     1.0000 0.13723  0.10773  0.87492  Biso   1.000  H
  H152     1.0000 0.63723  0.60773  0.87492  Biso   1.000  H
  H153     1.0000 0.20922  0.10257  0.37909  Biso   1.000  H
  H154     1.0000 0.70922  0.60257  0.37909  Biso   1.000  H
  H155     1.0000 0.79078  0.10257  0.12091  Biso   1.000  H
  H156     1.0000 0.29078  0.60257  0.12091  Biso   1.000  H
  H157     1.0000 0.79078  0.89743  0.62091  Biso   1.000  H
  H158     1.0000 0.29078  0.39743  0.62091  Biso   1.000  H
  H159     1.0000 0.20922  0.89743  0.87909  Biso   1.000  H
  H160     1.0000 0.70922  0.39743  0.87909  Biso   1.000  H
  H161     1.0000 0.57840  0.17773  0.26768  Biso   1.000  H
  H162     1.0000 0.07840  0.67773  0.26768  Biso   1.000  H
  H163     1.0000 0.42160  0.17773  0.23232  Biso   1.000  H
  H164     1.0000 0.92160  0.67773  0.23232  Biso   1.000  H
  H165     1.0000 0.42160  0.82227  0.73232  Biso   1.000  H
  H166     1.0000 0.92160  0.32227  0.73232  Biso   1.000  H
  H167     1.0000 0.57840  0.82227  0.76768  Biso   1.000  H
  H168     1.0000 0.07840  0.32227  0.76768  Biso   1.000  H
  H169     1.0000 0.59865  0.21170  0.21700  Biso   1.000  H
  H170     1.0000 0.09865  0.71170  0.21700  Biso   1.000  H
  H171     1.0000 0.40135  0.21170  0.28300  Biso   1.000  H
  H172     1.0000 0.90135  0.71170  0.28300  Biso   1.000  H
  H173     1.0000 0.40135  0.78830  0.78300  Biso   1.000  H
  H174     1.0000 0.90135  0.28830  0.78300  Biso   1.000  H
  H175     1.0000 0.59865  0.78830  0.71700  Biso   1.000  H
  H176     1.0000 0.09865  0.28830  0.71700  Biso   1.000  H
  H177     1.0000 0.71108  0.10320  0.19325  Biso   1.000  H
  H178     1.0000 0.21108  0.60320  0.19325  Biso   1.000  H
  H179     1.0000 0.28892  0.10320  0.30675  Biso   1.000  H
  H180     1.0000 0.78892  0.60320  0.30675  Biso   1.000  H
  H181     1.0000 0.28892  0.89680  0.80675  Biso   1.000  H
  H182     1.0000 0.78892  0.39680  0.80675  Biso   1.000  H
  H183     1.0000 0.71108  0.89680  0.69325  Biso   1.000  H
  H184     1.0000 0.21108  0.39680  0.69325  Biso   1.000  H
  H185     1.0000 0.78803  0.91224  0.22019  Biso   1.000  H
  H186     1.0000 0.28803  0.41224  0.22019  Biso   1.000  H
  H187     1.0000 0.21197  0.91224  0.27981  Biso   1.000  H
  H188     1.0000 0.71197  0.41224  0.27981  Biso   1.000  H
  H189     1.0000 0.21197  0.08776  0.77981  Biso   1.000  H
  H190     1.0000 0.71197  0.58776  0.77981  Biso   1.000  H
  H191     1.0000 0.78803  0.08776  0.72019  Biso   1.000  H
  H192     1.0000 0.28803  0.58776  0.72019  Biso   1.000  H
  H193     1.0000 0.75579  0.88434  0.27210  Biso   1.000  H
  H194     1.0000 0.25579  0.38434  0.27210  Biso   1.000  H
  H195     1.0000 0.24421  0.88434  0.22790  Biso   1.000  H
  H196     1.0000 0.74421  0.38434  0.22790  Biso   1.000  H
  H197     1.0000 0.24421  0.11566  0.72790  Biso   1.000  H
  H198     1.0000 0.74421  0.61566  0.72790  Biso   1.000  H
  H199     1.0000 0.75579  0.11566  0.77210  Biso   1.000  H
  H200     1.0000 0.25579  0.61566  0.77210  Biso   1.000  H
  H201     1.0000 0.62809  0.65147  0.33110  Biso   1.000  H
  H202     1.0000 0.12809  0.15147  0.33110  Biso   1.000  H
  H203     1.0000 0.37191  0.65147  0.16890  Biso   1.000  H
  H204     1.0000 0.87191  0.15147  0.16890  Biso   1.000  H
  H205     1.0000 0.37191  0.34853  0.66890  Biso   1.000  H
  H206     1.0000 0.87191  0.84853  0.66890  Biso   1.000  H
  H207     1.0000 0.62809  0.34853  0.83110  Biso   1.000  H
  H208     1.0000 0.12809  0.84853  0.83110  Biso   1.000  H
  H209     1.0000 0.54520  0.46118  0.32388  Biso   1.000  H
  H210     1.0000 0.04520  0.96118  0.32388  Biso   1.000  H
  H211     1.0000 0.45480  0.46118  0.17612  Biso   1.000  H
  H212     1.0000 0.95480  0.96118  0.17612  Biso   1.000  H
  H213     1.0000 0.45480  0.53882  0.67612  Biso   1.000  H
  H214     1.0000 0.95480  0.03882  0.67612  Biso   1.000  H
  H215     1.0000 0.54520  0.53882  0.82388  Biso   1.000  H
  H216     1.0000 0.04520  0.03882  0.82388  Biso   1.000  H
  H217     1.0000 0.41991  0.47694  0.29557  Biso   1.000  H
  H218     1.0000 0.91991  0.97694  0.29557  Biso   1.000  H
  H219     1.0000 0.58009  0.47694  0.20443  Biso   1.000  H
  H220     1.0000 0.08009  0.97694  0.20443  Biso   1.000  H
  H221     1.0000 0.58009  0.52306  0.70443  Biso   1.000  H
  H222     1.0000 0.08009  0.02306  0.70443  Biso   1.000  H
  H223     1.0000 0.41991  0.52306  0.79557  Biso   1.000  H
  H224     1.0000 0.91991  0.02306  0.79557  Biso   1.000  H
  H225     1.0000 0.38785  0.67810  0.26817  Biso   1.000  H
  H226     1.0000 0.88785  0.17810  0.26817  Biso   1.000  H
  H227     1.0000 0.61215  0.67810  0.23183  Biso   1.000  H
  H228     1.0000 0.11215  0.17810  0.23183  Biso   1.000  H
  H229     1.0000 0.61215  0.32190  0.73183  Biso   1.000  H
  H230     1.0000 0.11215  0.82190  0.73183  Biso   1.000  H
  H231     1.0000 0.38785  0.32190  0.76817  Biso   1.000  H
  H232     1.0000 0.88785  0.82190  0.76817  Biso   1.000  H
  H233     1.0000 0.46555  0.88565  0.28281  Biso   1.000  H
  H234     1.0000 0.96555  0.38565  0.28281  Biso   1.000  H
  H235     1.0000 0.53445  0.88565  0.21719  Biso   1.000  H
  H236     1.0000 0.03445  0.38565  0.21719  Biso   1.000  H
  H237     1.0000 0.53445  0.11435  0.71719  Biso   1.000  H
  H238     1.0000 0.03445  0.61435  0.71719  Biso   1.000  H
  H239     1.0000 0.46555  0.11435  0.78281  Biso   1.000  H
  H240     1.0000 0.96555  0.61435  0.78281  Biso   1.000  H
