data_image0
_cell_length_a       9.979
_cell_length_b       25.785
_cell_length_c       11.086
_cell_angle_alpha    90
_cell_angle_beta     92.51
_cell_angle_gamma    90

_symmetry_space_group_name_H-M    "P 1"
_symmetry_int_tables_number       1

loop_
  _symmetry_equiv_pos_as_xyz
  'x, y, z'

loop_
  _atom_site_label
  _atom_site_occupancy
  _atom_site_fract_x
  _atom_site_fract_y
  _atom_site_fract_z
  _atom_site_thermal_displace_type
  _atom_site_B_iso_or_equiv
  _atom_site_type_symbol
  Cl1      1.0000 0.52880  0.23800  0.17350  Biso   1.000  Cl
  Cl2      1.0000 0.47120  0.73800  0.32650  Biso   1.000  Cl
  Cl3      1.0000 0.47120  0.76200  0.82650  Biso   1.000  Cl
  Cl4      1.0000 0.52880  0.26200  0.67350  Biso   1.000  Cl
  O1       1.0000 0.52300  0.19220  0.22300  Biso   1.000  O
  O2       1.0000 0.47700  0.69220  0.27700  Biso   1.000  O
  O3       1.0000 0.47700  0.80780  0.77700  Biso   1.000  O
  O4       1.0000 0.52300  0.30780  0.72300  Biso   1.000  O
  O5       1.0000 0.54100  0.24290  0.04880  Biso   1.000  O
  O6       1.0000 0.45900  0.74290  0.45120  Biso   1.000  O
  O7       1.0000 0.45900  0.75710  0.95120  Biso   1.000  O
  O8       1.0000 0.54100  0.25710  0.54880  Biso   1.000  O
  O9       1.0000 0.43200  0.26700  0.20000  Biso   1.000  O
  O10      1.0000 0.56800  0.76700  0.30000  Biso   1.000  O
  O11      1.0000 0.56800  0.73300  0.80000  Biso   1.000  O
  O12      1.0000 0.43200  0.23300  0.70000  Biso   1.000  O
  O13      1.0000 0.63100  0.25930  0.22500  Biso   1.000  O
  O14      1.0000 0.36900  0.75930  0.27500  Biso   1.000  O
  O15      1.0000 0.36900  0.74070  0.77500  Biso   1.000  O
  O16      1.0000 0.63100  0.24070  0.72500  Biso   1.000  O
  S1       1.0000 0.09730  0.61700  0.88880  Biso   1.000  S
  S2       1.0000 0.90270  0.11700  0.61120  Biso   1.000  S
  S3       1.0000 0.90270  0.38300  0.11120  Biso   1.000  S
  S4       1.0000 0.09730  0.88300  0.38880  Biso   1.000  S
  S5       1.0000 0.13870  0.46240  0.32040  Biso   1.000  S
  S6       1.0000 0.86130  0.96240  0.17960  Biso   1.000  S
  S7       1.0000 0.86130  0.53760  0.67960  Biso   1.000  S
  S8       1.0000 0.13870  0.03760  0.82040  Biso   1.000  S
  S9       1.0000 0.84580  0.38760  0.54110  Biso   1.000  S
  S10      1.0000 0.15420  0.88760  0.95890  Biso   1.000  S
  S11      1.0000 0.15420  0.61240  0.45890  Biso   1.000  S
  S12      1.0000 0.84580  0.11240  0.04110  Biso   1.000  S
  S13      1.0000 0.10900  0.54510  0.10140  Biso   1.000  S
  S14      1.0000 0.89100  0.04510  0.39860  Biso   1.000  S
  S15      1.0000 0.89100  0.45490  0.89860  Biso   1.000  S
  S16      1.0000 0.10900  0.95490  0.60140  Biso   1.000  S
  S17      1.0000 0.85550  0.47840  0.37390  Biso   1.000  S
  S18      1.0000 0.14450  0.97840  0.12610  Biso   1.000  S
  S19      1.0000 0.14450  0.52160  0.62610  Biso   1.000  S
  S20      1.0000 0.85550  0.02160  0.87390  Biso   1.000  S
  S21      1.0000 0.77110  0.62600  0.93030  Biso   1.000  S
  S22      1.0000 0.22890  0.12600  0.56970  Biso   1.000  S
  S23      1.0000 0.22890  0.37400  0.06970  Biso   1.000  S
  S24      1.0000 0.77110  0.87400  0.43030  Biso   1.000  S
  S25      1.0000 0.82270  0.55670  0.14670  Biso   1.000  S
  S26      1.0000 0.17730  0.05670  0.35330  Biso   1.000  S
  S27      1.0000 0.17730  0.44330  0.85330  Biso   1.000  S
  S28      1.0000 0.82270  0.94330  0.64670  Biso   1.000  S
  S29      1.0000 0.16530  0.36940  0.48110  Biso   1.000  S
  S30      1.0000 0.83470  0.86940  0.01890  Biso   1.000  S
  S31      1.0000 0.83470  0.63060  0.51890  Biso   1.000  S
  S32      1.0000 0.16530  0.13060  0.98110  Biso   1.000  S
  N1       1.0000 0.07500  0.75910  0.99000  Biso   1.000  N
  N2       1.0000 0.92500  0.25910  0.51000  Biso   1.000  N
  N3       1.0000 0.92500  0.24090  0.01000  Biso   1.000  N
  N4       1.0000 0.07500  0.74090  0.49000  Biso   1.000  N
  N5       1.0000 0.91300  0.69100  0.25900  Biso   1.000  N
  N6       1.0000 0.08700  0.19100  0.24100  Biso   1.000  N
  N7       1.0000 0.08700  0.30900  0.74100  Biso   1.000  N
  N8       1.0000 0.91300  0.80900  0.75900  Biso   1.000  N
  C1       1.0000 0.93700  0.42470  0.44000  Biso   1.000  C
  C2       1.0000 0.06300  0.92470  0.06000  Biso   1.000  C
  C3       1.0000 0.06300  0.57530  0.56000  Biso   1.000  C
  C4       1.0000 0.93700  0.07530  0.94000  Biso   1.000  C
  C5       1.0000 0.06400  0.41750  0.41700  Biso   1.000  C
  C6       1.0000 0.93600  0.91750  0.08300  Biso   1.000  C
  C7       1.0000 0.93600  0.58250  0.58300  Biso   1.000  C
  C8       1.0000 0.06400  0.08250  0.91700  Biso   1.000  C
  C9       1.0000 0.99000  0.49450  0.28260  Biso   1.000  C
  C10      1.0000 0.01000  0.99450  0.21740  Biso   1.000  C
  C11      1.0000 0.01000  0.50550  0.71740  Biso   1.000  C
  C12      1.0000 0.99000  0.00550  0.78260  Biso   1.000  C
  C13      1.0000 0.97500  0.52850  0.19130  Biso   1.000  C
  C14      1.0000 0.02500  0.02850  0.30870  Biso   1.000  C
  C15      1.0000 0.02500  0.47150  0.80870  Biso   1.000  C
  C16      1.0000 0.97500  0.97150  0.69130  Biso   1.000  C
  C17      1.0000 0.88500  0.59260  0.02700  Biso   1.000  C
  C18      1.0000 0.11500  0.09260  0.47300  Biso   1.000  C
  C19      1.0000 0.11500  0.40740  0.97300  Biso   1.000  C
  C20      1.0000 0.88500  0.90740  0.52700  Biso   1.000  C
  C21      1.0000 0.01600  0.58770  0.00500  Biso   1.000  C
  C22      1.0000 0.98400  0.08770  0.49500  Biso   1.000  C
  C23      1.0000 0.98400  0.41230  0.99500  Biso   1.000  C
  C24      1.0000 0.01600  0.91230  0.50500  Biso   1.000  C
  C25      1.0000 0.13500  0.72550  0.02400  Biso   1.000  C
  C26      1.0000 0.86500  0.22550  0.47600  Biso   1.000  C
  C27      1.0000 0.86500  0.27450  0.97600  Biso   1.000  C
  C28      1.0000 0.13500  0.77450  0.52400  Biso   1.000  C
  C29      1.0000 0.84200  0.70010  0.18200  Biso   1.000  C
  C30      1.0000 0.15800  0.20010  0.31800  Biso   1.000  C
  C31      1.0000 0.15800  0.29990  0.81800  Biso   1.000  C
  C32      1.0000 0.84200  0.79990  0.68200  Biso   1.000  C
  C33      1.0000 0.67600  0.66300  0.03300  Biso   1.000  C
  C34      1.0000 0.32400  0.16300  0.46700  Biso   1.000  C
  C35      1.0000 0.32400  0.33700  0.96700  Biso   1.000  C
  C36      1.0000 0.67600  0.83700  0.53300  Biso   1.000  C
  C37      1.0000 0.24700  0.64290  0.96500  Biso   1.000  C
  C38      1.0000 0.75300  0.14290  0.53500  Biso   1.000  C
  C39      1.0000 0.75300  0.35710  0.03500  Biso   1.000  C
  C40      1.0000 0.24700  0.85710  0.46500  Biso   1.000  C
  C41      1.0000 0.21800  0.68100  0.06500  Biso   1.000  C
  C42      1.0000 0.78200  0.18100  0.43500  Biso   1.000  C
  C43      1.0000 0.78200  0.31900  0.93500  Biso   1.000  C
  C44      1.0000 0.21800  0.81900  0.56500  Biso   1.000  C
  C45      1.0000 0.74300  0.71130  0.08400  Biso   1.000  C
  C46      1.0000 0.25700  0.21130  0.41600  Biso   1.000  C
  C47      1.0000 0.25700  0.28870  0.91600  Biso   1.000  C
  C48      1.0000 0.74300  0.78870  0.58400  Biso   1.000  C
  C49      1.0000 0.72000  0.35990  0.44100  Biso   1.000  C
  C50      1.0000 0.28000  0.85990  0.05900  Biso   1.000  C
  C51      1.0000 0.28000  0.64010  0.55900  Biso   1.000  C
  C52      1.0000 0.72000  0.14010  0.94100  Biso   1.000  C
  C53      1.0000 0.28200  0.36000  0.43200  Biso   1.000  C
  C54      1.0000 0.71800  0.86000  0.06800  Biso   1.000  C
  C55      1.0000 0.71800  0.64000  0.56800  Biso   1.000  C
  C56      1.0000 0.28200  0.14000  0.93200  Biso   1.000  C
  H1       1.0000 0.66900  0.38580  0.39740  Biso   1.000  H
  H2       1.0000 0.33100  0.88580  0.10260  Biso   1.000  H
  H3       1.0000 0.33100  0.61420  0.60260  Biso   1.000  H
  H4       1.0000 0.66900  0.11420  0.89740  Biso   1.000  H
  H5       1.0000 0.76250  0.33880  0.37790  Biso   1.000  H
  H6       1.0000 0.23750  0.83880  0.12210  Biso   1.000  H
  H7       1.0000 0.23750  0.66120  0.62210  Biso   1.000  H
  H8       1.0000 0.76250  0.16120  0.87790  Biso   1.000  H
  H9       1.0000 0.66120  0.33750  0.48000  Biso   1.000  H
  H10      1.0000 0.33880  0.83750  0.02000  Biso   1.000  H
  H11      1.0000 0.33880  0.66250  0.52000  Biso   1.000  H
  H12      1.0000 0.66120  0.16250  0.98000  Biso   1.000  H
  H13      1.0000 0.33070  0.33180  0.46740  Biso   1.000  H
  H14      1.0000 0.66930  0.83180  0.03260  Biso   1.000  H
  H15      1.0000 0.66930  0.66820  0.53260  Biso   1.000  H
  H16      1.0000 0.33070  0.16820  0.96740  Biso   1.000  H
  H17      1.0000 0.26340  0.34760  0.34410  Biso   1.000  H
  H18      1.0000 0.73660  0.84760  0.15590  Biso   1.000  H
  H19      1.0000 0.73660  0.65240  0.65590  Biso   1.000  H
  H20      1.0000 0.26340  0.15240  0.84410  Biso   1.000  H
  H21      1.0000 0.33760  0.38890  0.42390  Biso   1.000  H
  H22      1.0000 0.66240  0.88890  0.07610  Biso   1.000  H
  H23      1.0000 0.66240  0.61110  0.57610  Biso   1.000  H
  H24      1.0000 0.33760  0.11110  0.92390  Biso   1.000  H
  H25      1.0000 0.59070  0.67220  0.99350  Biso   1.000  H
  H26      1.0000 0.40930  0.17220  0.50650  Biso   1.000  H
  H27      1.0000 0.40930  0.32780  0.00650  Biso   1.000  H
  H28      1.0000 0.59070  0.82780  0.49350  Biso   1.000  H
  H29      1.0000 0.65430  0.64080  0.10070  Biso   1.000  H
  H30      1.0000 0.34570  0.14080  0.39930  Biso   1.000  H
  H31      1.0000 0.34570  0.35920  0.89930  Biso   1.000  H
  H32      1.0000 0.65430  0.85920  0.60070  Biso   1.000  H
  H33      1.0000 0.30130  0.61440  0.99480  Biso   1.000  H
  H34      1.0000 0.69870  0.11440  0.50520  Biso   1.000  H
  H35      1.0000 0.69870  0.38560  0.00520  Biso   1.000  H
  H36      1.0000 0.30130  0.88560  0.49480  Biso   1.000  H
  H37      1.0000 0.29900  0.66080  0.90570  Biso   1.000  H
  H38      1.0000 0.70100  0.16080  0.59430  Biso   1.000  H
  H39      1.0000 0.70100  0.33920  0.09430  Biso   1.000  H
  H40      1.0000 0.29900  0.83920  0.40570  Biso   1.000  H
  H41      1.0000 0.30280  0.69250  0.10200  Biso   1.000  H
  H42      1.0000 0.69720  0.19250  0.39800  Biso   1.000  H
  H43      1.0000 0.69720  0.30750  0.89800  Biso   1.000  H
  H44      1.0000 0.30280  0.80750  0.60200  Biso   1.000  H
  H45      1.0000 0.17410  0.66140  0.12750  Biso   1.000  H
  H46      1.0000 0.82590  0.16140  0.37250  Biso   1.000  H
  H47      1.0000 0.82590  0.33860  0.87250  Biso   1.000  H
  H48      1.0000 0.17410  0.83860  0.62750  Biso   1.000  H
  H49      1.0000 0.67710  0.73490  0.11260  Biso   1.000  H
  H50      1.0000 0.32290  0.23490  0.38740  Biso   1.000  H
  H51      1.0000 0.32290  0.26510  0.88740  Biso   1.000  H
  H52      1.0000 0.67710  0.76510  0.61260  Biso   1.000  H
  H53      1.0000 0.78700  0.72840  0.01900  Biso   1.000  H
  H54      1.0000 0.21300  0.22840  0.48100  Biso   1.000  H
  H55      1.0000 0.21300  0.27160  0.98100  Biso   1.000  H
  H56      1.0000 0.78700  0.77160  0.51900  Biso   1.000  H
  Cu1      1.0000 0.00320  0.32245  0.58110  Biso   1.000  Cu
  Cu2      1.0000 0.99680  0.82245  0.91890  Biso   1.000  Cu
  Cu3      1.0000 0.99680  0.67755  0.41890  Biso   1.000  Cu
  Cu4      1.0000 0.00320  0.17755  0.08110  Biso   1.000  Cu
  O17      1.0000 0.49800  0.02200  0.69700  Biso   1.000  O
  O18      1.0000 0.50200  0.52200  0.80300  Biso   1.000  O
  O19      1.0000 0.50200  0.97800  0.30300  Biso   1.000  O
  O20      1.0000 0.49800  0.47800  0.19700  Biso   1.000  O
  C57      1.0000 0.49400  0.03100  0.84500  Biso   1.000  C
  C58      1.0000 0.50600  0.53100  0.65500  Biso   1.000  C
  C59      1.0000 0.50600  0.96900  0.15500  Biso   1.000  C
  C60      1.0000 0.49400  0.46900  0.34500  Biso   1.000  C
  C61      1.0000 0.48600  0.96800  0.85100  Biso   1.000  C
  C62      1.0000 0.51400  0.46800  0.64900  Biso   1.000  C
  C63      1.0000 0.51400  0.03200  0.14900  Biso   1.000  C
  C64      1.0000 0.48600  0.53200  0.35100  Biso   1.000  C
  C65      1.0000 0.46800  0.94100  0.74200  Biso   1.000  C
  C66      1.0000 0.53200  0.44100  0.75800  Biso   1.000  C
  C67      1.0000 0.53200  0.05900  0.25800  Biso   1.000  C
  C68      1.0000 0.46800  0.55900  0.24200  Biso   1.000  C
  C69      1.0000 0.46400  0.96500  0.61600  Biso   1.000  C
  C70      1.0000 0.53600  0.46500  0.88400  Biso   1.000  C
  C71      1.0000 0.53600  0.03500  0.38400  Biso   1.000  C
  C72      1.0000 0.46400  0.53500  0.11600  Biso   1.000  C
