data_image0
_cell_length_a       9.81
_cell_length_b       15.486
_cell_length_c       4.108
_cell_angle_alpha    81.32
_cell_angle_beta     87.74
_cell_angle_gamma    108.18

_symmetry_space_group_name_H-M    "P 1"
_symmetry_int_tables_number       1

loop_
  _symmetry_equiv_pos_as_xyz
  'x, y, z'

loop_
  _atom_site_label
  _atom_site_occupancy
  _atom_site_fract_x
  _atom_site_fract_y
  _atom_site_fract_z
  _atom_site_thermal_displace_type
  _atom_site_B_iso_or_equiv
  _atom_site_type_symbol
  Cu1      1.0000 0.28530  0.25200  0.79590  Biso   1.000  Cu
  Cu2      1.0000 0.71470  0.74800  0.20410  Biso   1.000  Cu
  I1       1.0000 0.40200  0.20870  0.30130  Biso   1.000  I
  I2       1.0000 0.59800  0.79130  0.69870  Biso   1.000  I
  O1       1.0000 0.33140  0.41020  0.54310  Biso   1.000  O
  O2       1.0000 0.66860  0.58980  0.45690  Biso   1.000  O
  O3       1.0000 0.20630  0.48400  0.22970  Biso   1.000  O
  O4       1.0000 0.79370  0.51600  0.77030  Biso   1.000  O
  N1       1.0000 0.08810  0.26530  0.74180  Biso   1.000  N
  N2       1.0000 0.91190  0.73470  0.25820  Biso   1.000  N
  C1       1.0000 0.07650  0.33890  0.55110  Biso   1.000  C
  C2       1.0000 0.92350  0.66110  0.44890  Biso   1.000  C
  C3       1.0000 0.94710  0.34810  0.45440  Biso   1.000  C
  C4       1.0000 0.05290  0.65190  0.54560  Biso   1.000  C
  C5       1.0000 0.82200  0.27860  0.56510  Biso   1.000  C
  C6       1.0000 0.17800  0.72140  0.43490  Biso   1.000  C
  C7       1.0000 0.82780  0.19900  0.76960  Biso   1.000  C
  C8       1.0000 0.17220  0.80100  0.23040  Biso   1.000  C
  C9       1.0000 0.70370  0.12460  0.89480  Biso   1.000  C
  C10      1.0000 0.29630  0.87540  0.10520  Biso   1.000  C
  C11      1.0000 0.71340  0.04880  0.09400  Biso   1.000  C
  C12      1.0000 0.28660  0.95120  0.90600  Biso   1.000  C
  C13      1.0000 0.84930  0.04460  0.19070  Biso   1.000  C
  C14      1.0000 0.15070  0.95540  0.80930  Biso   1.000  C
  C15      1.0000 0.97210  0.11540  0.06610  Biso   1.000  C
  C16      1.0000 0.02790  0.88460  0.93390  Biso   1.000  C
  C17      1.0000 0.96460  0.19390  0.85730  Biso   1.000  C
  C18      1.0000 0.03540  0.80610  0.14270  Biso   1.000  C
  C19      1.0000 0.22190  0.41430  0.44170  Biso   1.000  C
  C20      1.0000 0.77810  0.58570  0.55830  Biso   1.000  C
  C21      1.0000 0.34180  0.55980  0.11760  Biso   1.000  C
  C22      1.0000 0.65820  0.44020  0.88240  Biso   1.000  C
  H1       1.0000 0.94520  0.40310  0.30360  Biso   1.000  H
  H2       1.0000 0.05480  0.59690  0.69640  Biso   1.000  H
  H3       1.0000 0.72850  0.28420  0.50660  Biso   1.000  H
  H4       1.0000 0.27150  0.71580  0.49340  Biso   1.000  H
  H5       1.0000 0.60800  0.12800  0.83960  Biso   1.000  H
  H6       1.0000 0.39200  0.87200  0.16040  Biso   1.000  H
  H7       1.0000 0.62550  0.99530  0.17380  Biso   1.000  H
  H8       1.0000 0.37450  0.00470  0.82620  Biso   1.000  H
  H9       1.0000 0.85520  0.99120  0.34440  Biso   1.000  H
  H10      1.0000 0.14480  0.00880  0.65560  Biso   1.000  H
  H11      1.0000 0.06580  0.11010  0.12000  Biso   1.000  H
  H12      1.0000 0.93420  0.88990  0.88000  Biso   1.000  H
