data_image0
_cell_length_a       11.766
_cell_length_b       9.654
_cell_length_c       15.018
_cell_angle_alpha    90
_cell_angle_beta     90.56
_cell_angle_gamma    90

_symmetry_space_group_name_H-M    "P 1"
_symmetry_int_tables_number       1

loop_
  _symmetry_equiv_pos_as_xyz
  'x, y, z'

loop_
  _atom_site_label
  _atom_site_occupancy
  _atom_site_fract_x
  _atom_site_fract_y
  _atom_site_fract_z
  _atom_site_thermal_displace_type
  _atom_site_B_iso_or_equiv
  _atom_site_type_symbol
  Cu1      1.0000 0.52020  0.37860  0.64880  Biso   1.000  Cu
  Cu2      1.0000 0.97980  0.87860  0.85120  Biso   1.000  Cu
  Cu3      1.0000 0.47980  0.62140  0.35120  Biso   1.000  Cu
  Cu4      1.0000 0.02020  0.12140  0.14880  Biso   1.000  Cu
  Cl1      1.0000 0.47260  0.27570  0.78850  Biso   1.000  Cl
  Cl2      1.0000 0.02740  0.77570  0.71150  Biso   1.000  Cl
  Cl3      1.0000 0.52740  0.72430  0.21150  Biso   1.000  Cl
  Cl4      1.0000 0.97260  0.22430  0.28850  Biso   1.000  Cl
  S1       1.0000 0.83420  0.03710  0.83560  Biso   1.000  S
  S2       1.0000 0.66580  0.53710  0.66440  Biso   1.000  S
  S3       1.0000 0.16580  0.96290  0.16440  Biso   1.000  S
  S4       1.0000 0.33420  0.46290  0.33560  Biso   1.000  S
  C1       1.0000 0.79000  0.04040  0.72940  Biso   1.000  C
  C2       1.0000 0.71000  0.54040  0.77060  Biso   1.000  C
  C3       1.0000 0.21000  0.95960  0.27060  Biso   1.000  C
  C4       1.0000 0.29000  0.45960  0.22940  Biso   1.000  C
  N1       1.0000 0.69880  0.12130  0.70170  Biso   1.000  N
  N2       1.0000 0.80120  0.62130  0.79830  Biso   1.000  N
  N3       1.0000 0.30120  0.87870  0.29830  Biso   1.000  N
  N4       1.0000 0.19880  0.37870  0.20170  Biso   1.000  N
  S5       1.0000 0.58600  0.19710  0.55600  Biso   1.000  S
  S6       1.0000 0.91400  0.69710  0.94400  Biso   1.000  S
  S7       1.0000 0.41400  0.80290  0.44400  Biso   1.000  S
  S8       1.0000 0.08600  0.30290  0.05600  Biso   1.000  S
  C5       1.0000 0.68040  0.11220  0.61330  Biso   1.000  C
  C6       1.0000 0.81960  0.61220  0.88670  Biso   1.000  C
  C7       1.0000 0.31960  0.88780  0.38670  Biso   1.000  C
  C8       1.0000 0.18040  0.38780  0.11330  Biso   1.000  C
  C9       1.0000 0.76540  0.00780  0.57780  Biso   1.000  C
  C10      1.0000 0.73460  0.50780  0.92220  Biso   1.000  C
  C11      1.0000 0.23460  0.99220  0.42220  Biso   1.000  C
  C12      1.0000 0.26540  0.49220  0.07780  Biso   1.000  C
  C13      1.0000 0.84110  0.07120  0.50810  Biso   1.000  C
  C14      1.0000 0.65890  0.57120  0.99190  Biso   1.000  C
  C15      1.0000 0.15890  0.92880  0.49190  Biso   1.000  C
  C16      1.0000 0.34110  0.42880  0.00810  Biso   1.000  C
  C17      1.0000 0.70600  0.87980  0.54290  Biso   1.000  C
  C18      1.0000 0.79400  0.37980  0.95710  Biso   1.000  C
  C19      1.0000 0.29400  0.12020  0.45710  Biso   1.000  C
  C20      1.0000 0.20600  0.62020  0.04290  Biso   1.000  C
  N5       1.0000 0.82890  0.97510  0.65930  Biso   1.000  N
  N6       1.0000 0.67110  0.47510  0.84070  Biso   1.000  N
  N7       1.0000 0.17110  0.02490  0.34070  Biso   1.000  N
  N8       1.0000 0.32890  0.52490  0.15930  Biso   1.000  N
  S9       1.0000 0.37310  0.47640  0.56760  Biso   1.000  S
  S10      1.0000 0.12690  0.97640  0.93240  Biso   1.000  S
  S11      1.0000 0.62690  0.52360  0.43240  Biso   1.000  S
  S12      1.0000 0.87310  0.02360  0.06760  Biso   1.000  S
  C21      1.0000 0.25440  0.42650  0.61640  Biso   1.000  C
  C22      1.0000 0.24560  0.92650  0.88360  Biso   1.000  C
  C23      1.0000 0.74560  0.57350  0.38360  Biso   1.000  C
  C24      1.0000 0.75440  0.07350  0.11640  Biso   1.000  C
  N9       1.0000 0.14630  0.44750  0.58200  Biso   1.000  N
  N10      1.0000 0.35370  0.94750  0.91800  Biso   1.000  N
  N11      1.0000 0.85370  0.55250  0.41800  Biso   1.000  N
  N12      1.0000 0.64630  0.05250  0.08200  Biso   1.000  N
  C25      1.0000 0.06400  0.39580  0.63410  Biso   1.000  C
  C26      1.0000 0.43600  0.89580  0.86590  Biso   1.000  C
  C27      1.0000 0.93600  0.60420  0.36590  Biso   1.000  C
  C28      1.0000 0.56400  0.10420  0.13410  Biso   1.000  C
  S13      1.0000 0.92750  0.40210  0.61810  Biso   1.000  S
  S14      1.0000 0.57250  0.90210  0.88190  Biso   1.000  S
  S15      1.0000 0.07250  0.59790  0.38190  Biso   1.000  S
  S16      1.0000 0.42750  0.09790  0.11810  Biso   1.000  S
  C29      1.0000 0.12330  0.32810  0.71270  Biso   1.000  C
  C30      1.0000 0.37670  0.82810  0.78730  Biso   1.000  C
  C31      1.0000 0.87670  0.67190  0.28730  Biso   1.000  C
  C32      1.0000 0.62330  0.17190  0.21270  Biso   1.000  C
  C33      1.0000 0.08620  0.39180  0.79940  Biso   1.000  C
  C34      1.0000 0.41380  0.89180  0.70060  Biso   1.000  C
  C35      1.0000 0.91380  0.60820  0.20060  Biso   1.000  C
  C36      1.0000 0.58620  0.10820  0.29940  Biso   1.000  C
  C37      1.0000 0.10290  0.17240  0.71060  Biso   1.000  C
  C38      1.0000 0.39710  0.67240  0.78940  Biso   1.000  C
  C39      1.0000 0.89710  0.82760  0.28940  Biso   1.000  C
  C40      1.0000 0.60290  0.32760  0.21060  Biso   1.000  C
  N13      1.0000 0.24100  0.36090  0.69210  Biso   1.000  N
  N14      1.0000 0.25900  0.86090  0.80790  Biso   1.000  N
  N15      1.0000 0.75900  0.63910  0.30790  Biso   1.000  N
  N16      1.0000 0.74100  0.13910  0.19210  Biso   1.000  N
  H1       1.0000 0.88670  0.93950  0.64790  Biso   1.000  H
  H2       1.0000 0.61330  0.43950  0.85210  Biso   1.000  H
  H3       1.0000 0.11330  0.06050  0.35210  Biso   1.000  H
  H4       1.0000 0.38670  0.56050  0.14790  Biso   1.000  H
  H5       1.0000 0.88650  0.14110  0.52770  Biso   1.000  H
  H6       1.0000 0.61350  0.64110  0.97230  Biso   1.000  H
  H7       1.0000 0.11350  0.85890  0.47230  Biso   1.000  H
  H8       1.0000 0.38650  0.35890  0.02770  Biso   1.000  H
  H9       1.0000 0.89390  0.00710  0.49360  Biso   1.000  H
  H10      1.0000 0.60610  0.50710  0.00640  Biso   1.000  H
  H11      1.0000 0.10610  0.99290  0.50640  Biso   1.000  H
  H12      1.0000 0.39390  0.49290  0.99360  Biso   1.000  H
  H13      1.0000 0.80470  0.09200  0.45720  Biso   1.000  H
  H14      1.0000 0.69530  0.59200  0.04280  Biso   1.000  H
  H15      1.0000 0.19530  0.90800  0.54280  Biso   1.000  H
  H16      1.0000 0.30470  0.40800  0.95720  Biso   1.000  H
  H17      1.0000 0.66200  0.85480  0.57540  Biso   1.000  H
  H18      1.0000 0.83800  0.35480  0.92460  Biso   1.000  H
  H19      1.0000 0.33800  0.14520  0.42460  Biso   1.000  H
  H20      1.0000 0.16200  0.64520  0.07540  Biso   1.000  H
  H21      1.0000 0.75220  0.81240  0.52960  Biso   1.000  H
  H22      1.0000 0.74780  0.31240  0.97040  Biso   1.000  H
  H23      1.0000 0.24780  0.18760  0.47040  Biso   1.000  H
  H24      1.0000 0.25220  0.68760  0.02960  Biso   1.000  H
  H25      1.0000 0.66410  0.91790  0.49310  Biso   1.000  H
  H26      1.0000 0.83590  0.41790  0.00690  Biso   1.000  H
  H27      1.0000 0.33590  0.08210  0.50690  Biso   1.000  H
  H28      1.0000 0.16410  0.58210  0.99310  Biso   1.000  H
  H29      1.0000 0.66950  0.15620  0.73760  Biso   1.000  H
  H30      1.0000 0.83050  0.65620  0.76240  Biso   1.000  H
  H31      1.0000 0.33050  0.84380  0.26240  Biso   1.000  H
  H32      1.0000 0.16950  0.34380  0.23760  Biso   1.000  H
  H33      1.0000 0.29310  0.32730  0.71510  Biso   1.000  H
  H34      1.0000 0.20690  0.82730  0.78490  Biso   1.000  H
  H35      1.0000 0.70690  0.67270  0.28490  Biso   1.000  H
  H36      1.0000 0.79310  0.17270  0.21510  Biso   1.000  H
  H37      1.0000 0.00340  0.36690  0.81810  Biso   1.000  H
  H38      1.0000 0.49660  0.86690  0.68190  Biso   1.000  H
  H39      1.0000 0.99660  0.63310  0.18190  Biso   1.000  H
  H40      1.0000 0.50340  0.13310  0.31810  Biso   1.000  H
  H41      1.0000 0.11460  0.34990  0.84750  Biso   1.000  H
  H42      1.0000 0.38540  0.84990  0.65250  Biso   1.000  H
  H43      1.0000 0.88540  0.65010  0.15250  Biso   1.000  H
  H44      1.0000 0.61460  0.15010  0.34750  Biso   1.000  H
  H45      1.0000 0.09720  0.47720  0.79260  Biso   1.000  H
  H46      1.0000 0.40280  0.97720  0.70740  Biso   1.000  H
  H47      1.0000 0.90280  0.52280  0.20740  Biso   1.000  H
  H48      1.0000 0.59720  0.02280  0.29260  Biso   1.000  H
  H49      1.0000 0.02660  0.15340  0.72200  Biso   1.000  H
  H50      1.0000 0.47340  0.65340  0.77800  Biso   1.000  H
  H51      1.0000 0.97340  0.84660  0.27800  Biso   1.000  H
  H52      1.0000 0.52660  0.34660  0.22200  Biso   1.000  H
  H53      1.0000 0.12650  0.14140  0.64620  Biso   1.000  H
  H54      1.0000 0.37350  0.64140  0.85380  Biso   1.000  H
  H55      1.0000 0.87350  0.85860  0.35380  Biso   1.000  H
  H56      1.0000 0.62650  0.35860  0.14620  Biso   1.000  H
  H57      1.0000 0.12540  0.14070  0.75420  Biso   1.000  H
  H58      1.0000 0.37460  0.64070  0.74580  Biso   1.000  H
  H59      1.0000 0.87460  0.85930  0.24580  Biso   1.000  H
  H60      1.0000 0.62540  0.35930  0.25420  Biso   1.000  H
  H61      1.0000 0.13010  0.48850  0.53480  Biso   1.000  H
  H62      1.0000 0.36990  0.98850  0.96520  Biso   1.000  H
  H63      1.0000 0.86990  0.51150  0.46520  Biso   1.000  H
  H64      1.0000 0.63010  0.01150  0.03480  Biso   1.000  H
