data_image0
_cell_length_a       4.1245
_cell_length_b       7.6624
_cell_length_c       12.3687
_cell_angle_alpha    96.719
_cell_angle_beta     92.504
_cell_angle_gamma    100.643

_symmetry_space_group_name_H-M    "P 1"
_symmetry_int_tables_number       1

loop_
  _symmetry_equiv_pos_as_xyz
  'x, y, z'

loop_
  _atom_site_label
  _atom_site_occupancy
  _atom_site_fract_x
  _atom_site_fract_y
  _atom_site_fract_z
  _atom_site_thermal_displace_type
  _atom_site_B_iso_or_equiv
  _atom_site_type_symbol
  I1       1.0000 0.16120  0.74182  0.43969  Biso   1.000  I
  I2       1.0000 0.83880  0.25818  0.56031  Biso   1.000  I
  Cu1      1.0000 0.27783  0.09053  0.45653  Biso   1.000  Cu
  Cu2      1.0000 0.72217  0.90947  0.54347  Biso   1.000  Cu
  O1       1.0000 0.41890  0.66360  0.10000  Biso   1.000  O
  O2       1.0000 0.58110  0.33640  0.90000  Biso   1.000  O
  N1       1.0000 0.22920  0.16710  0.30380  Biso   1.000  N
  N2       1.0000 0.77080  0.83290  0.69620  Biso   1.000  N
  C1       1.0000 0.01110  0.06720  0.22650  Biso   1.000  C
  C2       1.0000 0.98890  0.93280  0.77350  Biso   1.000  C
  H1       1.0000 0.90650  0.95110  0.23970  Biso   1.000  H
  H2       1.0000 0.09350  0.04890  0.76030  Biso   1.000  H
  C3       1.0000 0.93120  0.12530  0.12830  Biso   1.000  C
  C4       1.0000 0.06880  0.87470  0.87170  Biso   1.000  C
  H3       1.0000 0.77660  0.04990  0.07570  Biso   1.000  H
  H4       1.0000 0.22340  0.95010  0.92430  Biso   1.000  H
  C5       1.0000 0.08030  0.29480  0.10800  Biso   1.000  C
  C6       1.0000 0.91970  0.70520  0.89200  Biso   1.000  C
  H5       1.0000 0.02850  0.33890  0.04200  Biso   1.000  H
  H6       1.0000 0.97150  0.66110  0.95800  Biso   1.000  H
  C7       1.0000 0.30750  0.39800  0.18710  Biso   1.000  C
  C8       1.0000 0.69250  0.60200  0.81290  Biso   1.000  C
  C9       1.0000 0.37680  0.32960  0.28330  Biso   1.000  C
  C10      1.0000 0.62320  0.67040  0.71670  Biso   1.000  C
  H7       1.0000 0.53490  0.40110  0.33630  Biso   1.000  H
  H8       1.0000 0.46510  0.59890  0.66370  Biso   1.000  H
  C11      1.0000 0.48150  0.58120  0.17380  Biso   1.000  C
  C12      1.0000 0.51850  0.41880  0.82620  Biso   1.000  C
  H9       1.0000 0.65400  0.63790  0.22670  Biso   1.000  H
  H10      1.0000 0.34600  0.36210  0.77330  Biso   1.000  H
