data_image0
_cell_length_a       6.9494
_cell_length_b       9.1996
_cell_length_c       28.299
_cell_angle_alpha    90
_cell_angle_beta     90
_cell_angle_gamma    90

_symmetry_space_group_name_H-M    "P 1"
_symmetry_int_tables_number       1

loop_
  _symmetry_equiv_pos_as_xyz
  'x, y, z'

loop_
  _atom_site_label
  _atom_site_occupancy
  _atom_site_fract_x
  _atom_site_fract_y
  _atom_site_fract_z
  _atom_site_thermal_displace_type
  _atom_site_B_iso_or_equiv
  _atom_site_type_symbol
  Cu1      1.0000 0.24421  0.45969  0.36674  Biso   1.000  Cu
  Cu2      1.0000 0.25579  0.54031  0.86674  Biso   1.000  Cu
  Cu3      1.0000 0.75579  0.95969  0.13326  Biso   1.000  Cu
  Cu4      1.0000 0.74421  0.04031  0.63326  Biso   1.000  Cu
  Cu5      1.0000 0.47362  0.45790  0.12149  Biso   1.000  Cu
  Cu6      1.0000 0.02638  0.54210  0.62149  Biso   1.000  Cu
  Cu7      1.0000 0.52638  0.95790  0.37851  Biso   1.000  Cu
  Cu8      1.0000 0.97362  0.04210  0.87851  Biso   1.000  Cu
  Cu9      1.0000 0.54774  0.44867  0.41341  Biso   1.000  Cu
  Cu10     1.0000 0.95226  0.55133  0.91341  Biso   1.000  Cu
  Cu11     1.0000 0.45226  0.94867  0.08659  Biso   1.000  Cu
  Cu12     1.0000 0.04774  0.05133  0.58659  Biso   1.000  Cu
  N1       1.0000 0.07130  0.54020  0.98082  Biso   1.000  N
  N2       1.0000 0.42870  0.45980  0.48082  Biso   1.000  N
  N3       1.0000 0.92870  0.04020  0.51918  Biso   1.000  N
  N4       1.0000 0.57130  0.95980  0.01918  Biso   1.000  N
  C1       1.0000 0.00670  0.45060  0.01483  Biso   1.000  C
  C2       1.0000 0.49330  0.54940  0.51483  Biso   1.000  C
  C3       1.0000 0.99330  0.95060  0.48517  Biso   1.000  C
  C4       1.0000 0.50670  0.04940  0.98517  Biso   1.000  C
  C5       1.0000 0.11050  0.43110  0.05714  Biso   1.000  C
  C6       1.0000 0.38950  0.56890  0.55714  Biso   1.000  C
  C7       1.0000 0.88950  0.93110  0.44286  Biso   1.000  C
  C8       1.0000 0.61050  0.06890  0.94286  Biso   1.000  C
  N5       1.0000 0.27650  0.50020  0.06422  Biso   1.000  N
  N6       1.0000 0.22350  0.49980  0.56422  Biso   1.000  N
  N7       1.0000 0.72350  0.00020  0.43578  Biso   1.000  N
  N8       1.0000 0.77650  0.99980  0.93578  Biso   1.000  N
  C9       1.0000 0.33670  0.59090  0.03042  Biso   1.000  C
  C10      1.0000 0.16330  0.40910  0.53042  Biso   1.000  C
  C11      1.0000 0.66330  0.09090  0.46958  Biso   1.000  C
  C12      1.0000 0.83670  0.90910  0.96958  Biso   1.000  C
  H1       1.0000 0.44990  0.64280  0.03520  Biso   1.000  H
  H2       1.0000 0.05010  0.35720  0.53520  Biso   1.000  H
  H3       1.0000 0.55010  0.14280  0.46480  Biso   1.000  H
  H4       1.0000 0.94990  0.85720  0.96480  Biso   1.000  H
  C13      1.0000 0.23920  0.61050  0.98930  Biso   1.000  C
  C14      1.0000 0.26080  0.38950  0.48930  Biso   1.000  C
  C15      1.0000 0.76080  0.11050  0.51070  Biso   1.000  C
  C16      1.0000 0.73920  0.88950  0.01070  Biso   1.000  C
  H5       1.0000 0.28860  0.67320  0.96660  Biso   1.000  H
  H6       1.0000 0.21140  0.32680  0.46660  Biso   1.000  H
  H7       1.0000 0.71140  0.17320  0.53340  Biso   1.000  H
  H8       1.0000 0.78860  0.82680  0.03340  Biso   1.000  H
  C17      1.0000 0.82110  0.36990  0.00605  Biso   1.000  C
  C18      1.0000 0.67890  0.63010  0.50605  Biso   1.000  C
  C19      1.0000 0.17890  0.86990  0.49395  Biso   1.000  C
  C20      1.0000 0.32110  0.13010  0.99395  Biso   1.000  C
  H9       1.0000 0.74840  0.41930  0.98210  Biso   1.000  H
  H10      1.0000 0.75160  0.58070  0.48210  Biso   1.000  H
  H11      1.0000 0.25160  0.91930  0.51790  Biso   1.000  H
  H12      1.0000 0.24840  0.08070  0.01790  Biso   1.000  H
  H13      1.0000 0.74760  0.36610  0.03470  Biso   1.000  H
  H14      1.0000 0.75240  0.63390  0.53470  Biso   1.000  H
  H15      1.0000 0.25240  0.86610  0.46530  Biso   1.000  H
  H16      1.0000 0.24760  0.13390  0.96530  Biso   1.000  H
  H17      1.0000 0.84940  0.27280  0.99570  Biso   1.000  H
  H18      1.0000 0.65060  0.72720  0.49570  Biso   1.000  H
  H19      1.0000 0.15060  0.77280  0.50430  Biso   1.000  H
  H20      1.0000 0.34940  0.22720  0.00430  Biso   1.000  H
  C21      1.0000 0.04100  0.33170  0.09485  Biso   1.000  C
  C22      1.0000 0.45900  0.66830  0.59485  Biso   1.000  C
  C23      1.0000 0.95900  0.83170  0.40515  Biso   1.000  C
  C24      1.0000 0.54100  0.16830  0.90515  Biso   1.000  C
  H21      1.0000 0.13860  0.32150  0.11860  Biso   1.000  H
  H22      1.0000 0.36140  0.67850  0.61860  Biso   1.000  H
  H23      1.0000 0.86140  0.82150  0.38140  Biso   1.000  H
  H24      1.0000 0.63860  0.17850  0.88140  Biso   1.000  H
  H25      1.0000 0.01280  0.23830  0.08140  Biso   1.000  H
  H26      1.0000 0.48720  0.76170  0.58140  Biso   1.000  H
  H27      1.0000 0.98720  0.73830  0.41860  Biso   1.000  H
  H28      1.0000 0.51280  0.26170  0.91860  Biso   1.000  H
  H29      1.0000 0.92660  0.37130  0.10890  Biso   1.000  H
  H30      1.0000 0.57340  0.62870  0.60890  Biso   1.000  H
  H31      1.0000 0.07340  0.87130  0.39110  Biso   1.000  H
  H32      1.0000 0.42660  0.12870  0.89110  Biso   1.000  H
  N9       1.0000 0.34400  0.45530  0.19325  Biso   1.000  N
  N10      1.0000 0.15600  0.54470  0.69325  Biso   1.000  N
  N11      1.0000 0.65600  0.95530  0.30675  Biso   1.000  N
  N12      1.0000 0.84400  0.04470  0.80675  Biso   1.000  N
  C25      1.0000 0.21450  0.54650  0.21128  Biso   1.000  C
  C26      1.0000 0.28550  0.45350  0.71128  Biso   1.000  C
  C27      1.0000 0.78550  0.04650  0.28872  Biso   1.000  C
  C28      1.0000 0.71450  0.95350  0.78872  Biso   1.000  C
  C29      1.0000 0.17300  0.54640  0.26024  Biso   1.000  C
  C30      1.0000 0.32700  0.45360  0.76024  Biso   1.000  C
  C31      1.0000 0.82700  0.04640  0.23976  Biso   1.000  C
  C32      1.0000 0.67300  0.95360  0.73976  Biso   1.000  C
  N13      1.0000 0.26300  0.45540  0.28957  Biso   1.000  N
  N14      1.0000 0.23700  0.54460  0.78957  Biso   1.000  N
  N15      1.0000 0.73700  0.95540  0.21043  Biso   1.000  N
  N16      1.0000 0.76300  0.04460  0.71043  Biso   1.000  N
  C33      1.0000 0.39240  0.36320  0.27062  Biso   1.000  C
  C34      1.0000 0.10760  0.63680  0.77062  Biso   1.000  C
  C35      1.0000 0.60760  0.86320  0.22938  Biso   1.000  C
  C36      1.0000 0.89240  0.13680  0.72938  Biso   1.000  C
  H33      1.0000 0.45700  0.29830  0.29020  Biso   1.000  H
  H34      1.0000 0.04300  0.70170  0.79020  Biso   1.000  H
  H35      1.0000 0.54300  0.79830  0.20980  Biso   1.000  H
  H36      1.0000 0.95700  0.20170  0.70980  Biso   1.000  H
  C37      1.0000 0.43110  0.36300  0.22294  Biso   1.000  C
  C38      1.0000 0.06890  0.63700  0.72294  Biso   1.000  C
  C39      1.0000 0.56890  0.86300  0.27706  Biso   1.000  C
  C40      1.0000 0.93110  0.13700  0.77706  Biso   1.000  C
  H37      1.0000 0.52000  0.29700  0.21100  Biso   1.000  H
  H38      1.0000 0.98000  0.70300  0.71100  Biso   1.000  H
  H39      1.0000 0.48000  0.79700  0.28900  Biso   1.000  H
  H40      1.0000 0.02000  0.20300  0.78900  Biso   1.000  H
  C41      1.0000 0.11800  0.64950  0.17793  Biso   1.000  C
  C42      1.0000 0.38200  0.35050  0.67793  Biso   1.000  C
  C43      1.0000 0.88200  0.14950  0.32207  Biso   1.000  C
  C44      1.0000 0.61800  0.85050  0.82207  Biso   1.000  C
  H41      1.0000 0.18060  0.64530  0.14770  Biso   1.000  H
  H42      1.0000 0.31940  0.35470  0.64770  Biso   1.000  H
  H43      1.0000 0.81940  0.14530  0.35230  Biso   1.000  H
  H44      1.0000 0.68060  0.85470  0.85230  Biso   1.000  H
  H45      1.0000 0.12620  0.74650  0.19020  Biso   1.000  H
  H46      1.0000 0.37380  0.25350  0.69020  Biso   1.000  H
  H47      1.0000 0.87380  0.24650  0.30980  Biso   1.000  H
  H48      1.0000 0.62620  0.75350  0.80980  Biso   1.000  H
  H49      1.0000 0.98530  0.62270  0.17440  Biso   1.000  H
  H50      1.0000 0.51470  0.37730  0.67440  Biso   1.000  H
  H51      1.0000 0.01470  0.12270  0.32560  Biso   1.000  H
  H52      1.0000 0.48530  0.87730  0.82560  Biso   1.000  H
  C45      1.0000 0.02630  0.64590  0.28111  Biso   1.000  C
  C46      1.0000 0.47370  0.35410  0.78111  Biso   1.000  C
  C47      1.0000 0.97370  0.14590  0.21889  Biso   1.000  C
  C48      1.0000 0.52630  0.85410  0.71889  Biso   1.000  C
  H53      1.0000 0.90070  0.61880  0.27010  Biso   1.000  H
  H54      1.0000 0.59930  0.38120  0.77010  Biso   1.000  H
  H55      1.0000 0.09930  0.11880  0.22990  Biso   1.000  H
  H56      1.0000 0.40070  0.88120  0.72990  Biso   1.000  H
  H57      1.0000 0.05350  0.74410  0.27170  Biso   1.000  H
  H58      1.0000 0.44650  0.25590  0.77170  Biso   1.000  H
  H59      1.0000 0.94650  0.24410  0.22830  Biso   1.000  H
  H60      1.0000 0.55350  0.75590  0.72830  Biso   1.000  H
  H61      1.0000 0.03040  0.63890  0.31490  Biso   1.000  H
  H62      1.0000 0.46960  0.36110  0.81490  Biso   1.000  H
  H63      1.0000 0.96960  0.13890  0.18510  Biso   1.000  H
  H64      1.0000 0.53040  0.86110  0.68510  Biso   1.000  H
  N17      1.0000 0.97110  0.45150  0.38588  Biso   1.000  N
  N18      1.0000 0.52890  0.54850  0.88588  Biso   1.000  N
  N19      1.0000 0.02890  0.95150  0.11412  Biso   1.000  N
  N20      1.0000 0.47110  0.04850  0.61412  Biso   1.000  N
  C49      1.0000 0.81310  0.44440  0.39678  Biso   1.000  C
  C50      1.0000 0.68690  0.55560  0.89678  Biso   1.000  C
  C51      1.0000 0.18690  0.94440  0.10322  Biso   1.000  C
  C52      1.0000 0.31310  0.05560  0.60322  Biso   1.000  C
  N21      1.0000 0.44030  0.75780  0.38195  Biso   1.000  N
  N22      1.0000 0.05970  0.24220  0.88195  Biso   1.000  N
  N23      1.0000 0.55970  0.25780  0.11805  Biso   1.000  N
  N24      1.0000 0.94030  0.74220  0.61805  Biso   1.000  N
  C53      1.0000 0.38960  0.63970  0.38124  Biso   1.000  C
  C54      1.0000 0.11040  0.36030  0.88124  Biso   1.000  C
  C55      1.0000 0.61040  0.13970  0.11876  Biso   1.000  C
  C56      1.0000 0.88960  0.86030  0.61876  Biso   1.000  C
  N25      1.0000 0.39690  0.14480  0.37924  Biso   1.000  N
  N26      1.0000 0.10310  0.85520  0.87924  Biso   1.000  N
  N27      1.0000 0.60310  0.64480  0.12076  Biso   1.000  N
  N28      1.0000 0.89690  0.35520  0.62076  Biso   1.000  N
  C57      1.0000 0.36380  0.26540  0.38066  Biso   1.000  C
  C58      1.0000 0.13620  0.73460  0.88066  Biso   1.000  C
  C59      1.0000 0.63620  0.76540  0.11934  Biso   1.000  C
  C60      1.0000 0.86380  0.23460  0.61934  Biso   1.000  C
