data_image0
_cell_length_a       7.8566
_cell_length_b       7.8566
_cell_length_c       19.235
_cell_angle_alpha    90
_cell_angle_beta     90
_cell_angle_gamma    90

_symmetry_space_group_name_H-M    "P 1"
_symmetry_int_tables_number       1

loop_
  _symmetry_equiv_pos_as_xyz
  'x, y, z'

loop_
  _atom_site_label
  _atom_site_occupancy
  _atom_site_fract_x
  _atom_site_fract_y
  _atom_site_fract_z
  _atom_site_thermal_displace_type
  _atom_site_B_iso_or_equiv
  _atom_site_type_symbol
  Cu1      1.0000 0.00030  0.71010  0.84160  Biso   1.000  Cu
  Cu2      1.0000 0.99970  0.28990  0.34160  Biso   1.000  Cu
  Cu3      1.0000 0.28990  0.00030  0.59160  Biso   1.000  Cu
  Cu4      1.0000 0.71010  0.99970  0.09160  Biso   1.000  Cu
  O1       1.0000 0.19000  0.74900  0.92330  Biso   1.000  O
  O2       1.0000 0.81000  0.25100  0.42330  Biso   1.000  O
  O3       1.0000 0.25100  0.19000  0.67330  Biso   1.000  O
  O4       1.0000 0.74900  0.81000  0.17330  Biso   1.000  O
  O5       1.0000 0.97500  0.98800  0.83460  Biso   1.000  O
  O6       1.0000 0.02500  0.01200  0.33460  Biso   1.000  O
  O7       1.0000 0.01200  0.97500  0.58460  Biso   1.000  O
  O8       1.0000 0.98800  0.02500  0.08460  Biso   1.000  O
  O9       1.0000 0.80400  0.67400  0.78040  Biso   1.000  O
  O10      1.0000 0.19600  0.32600  0.28040  Biso   1.000  O
  O11      1.0000 0.32600  0.80400  0.53040  Biso   1.000  O
  O12      1.0000 0.67400  0.19600  0.03040  Biso   1.000  O
  O13      1.0000 0.98500  0.43360  0.81050  Biso   1.000  O
  O14      1.0000 0.01500  0.56640  0.31050  Biso   1.000  O
  O15      1.0000 0.56640  0.98500  0.56050  Biso   1.000  O
  O16      1.0000 0.43360  0.01500  0.06050  Biso   1.000  O
  N1       1.0000 0.81770  0.70600  0.91340  Biso   1.000  N
  N2       1.0000 0.18230  0.29400  0.41340  Biso   1.000  N
  N3       1.0000 0.29400  0.81770  0.66340  Biso   1.000  N
  N4       1.0000 0.70600  0.18230  0.16340  Biso   1.000  N
  N5       1.0000 0.70430  0.81760  0.01850  Biso   1.000  N
  N6       1.0000 0.29570  0.18240  0.51850  Biso   1.000  N
  N7       1.0000 0.18240  0.70430  0.76850  Biso   1.000  N
  N8       1.0000 0.81760  0.29570  0.26850  Biso   1.000  N
  C1       1.0000 0.81760  0.81400  0.96540  Biso   1.000  C
  C2       1.0000 0.18240  0.18600  0.46540  Biso   1.000  C
  C3       1.0000 0.18600  0.81760  0.71540  Biso   1.000  C
  C4       1.0000 0.81400  0.18240  0.21540  Biso   1.000  C
  C5       1.0000 0.69800  0.58300  0.91330  Biso   1.000  C
  C6       1.0000 0.30200  0.41700  0.41330  Biso   1.000  C
  C7       1.0000 0.41700  0.69800  0.66330  Biso   1.000  C
  C8       1.0000 0.58300  0.30200  0.16330  Biso   1.000  C
  C9       1.0000 0.58600  0.69900  0.01640  Biso   1.000  C
  C10      1.0000 0.41400  0.30100  0.51640  Biso   1.000  C
  C11      1.0000 0.30100  0.58600  0.76640  Biso   1.000  C
  C12      1.0000 0.69900  0.41400  0.26640  Biso   1.000  C
  C13      1.0000 0.57790  0.57920  0.96600  Biso   1.000  C
  C14      1.0000 0.42210  0.42080  0.46600  Biso   1.000  C
  C15      1.0000 0.42080  0.57790  0.71600  Biso   1.000  C
  C16      1.0000 0.57920  0.42210  0.21600  Biso   1.000  C
  H1       1.0000 0.90510  0.89750  0.96580  Biso   1.000  H
  H2       1.0000 0.09490  0.10250  0.46580  Biso   1.000  H
  H3       1.0000 0.10250  0.90510  0.71580  Biso   1.000  H
  H4       1.0000 0.89750  0.09490  0.21580  Biso   1.000  H
  H5       1.0000 0.69650  0.49900  0.87760  Biso   1.000  H
  H6       1.0000 0.30350  0.50100  0.37760  Biso   1.000  H
  H7       1.0000 0.50100  0.69650  0.62760  Biso   1.000  H
  H8       1.0000 0.49900  0.30350  0.12760  Biso   1.000  H
  H9       1.0000 0.50240  0.69720  0.05210  Biso   1.000  H
  H10      1.0000 0.49760  0.30280  0.55210  Biso   1.000  H
  H11      1.0000 0.30280  0.50240  0.80210  Biso   1.000  H
  H12      1.0000 0.69720  0.49760  0.30210  Biso   1.000  H
  H13      1.0000 0.49160  0.49460  0.96670  Biso   1.000  H
  H14      1.0000 0.50840  0.50540  0.46670  Biso   1.000  H
  H15      1.0000 0.50540  0.49160  0.71670  Biso   1.000  H
  H16      1.0000 0.49460  0.50840  0.21670  Biso   1.000  H
  P1       1.0000 0.49900  0.10640  0.84160  Biso   1.000  P
  P2       1.0000 0.50100  0.89360  0.34160  Biso   1.000  P
  P3       1.0000 0.89360  0.49900  0.59160  Biso   1.000  P
  P4       1.0000 0.10640  0.50100  0.09160  Biso   1.000  P
  F1       1.0000 0.57500  0.22600  0.77880  Biso   1.000  F
  F2       1.0000 0.42500  0.77400  0.27880  Biso   1.000  F
  F3       1.0000 0.77400  0.57500  0.52880  Biso   1.000  F
  F4       1.0000 0.22600  0.42500  0.02880  Biso   1.000  F
  F5       1.0000 0.59000  0.93800  0.79750  Biso   1.000  F
  F6       1.0000 0.41000  0.06200  0.29750  Biso   1.000  F
  F7       1.0000 0.06200  0.59000  0.54750  Biso   1.000  F
  F8       1.0000 0.93800  0.41000  0.04750  Biso   1.000  F
  F9       1.0000 0.43500  0.93000  0.88060  Biso   1.000  F
  F10      1.0000 0.56500  0.07000  0.38060  Biso   1.000  F
  F11      1.0000 0.07000  0.43500  0.63060  Biso   1.000  F
  F12      1.0000 0.93000  0.56500  0.13060  Biso   1.000  F
  F13      1.0000 0.34200  0.09700  0.78430  Biso   1.000  F
  F14      1.0000 0.65800  0.90300  0.28430  Biso   1.000  F
  F15      1.0000 0.90300  0.34200  0.53430  Biso   1.000  F
  F16      1.0000 0.09700  0.65800  0.03430  Biso   1.000  F
  F17      1.0000 0.67900  0.09600  0.88740  Biso   1.000  F
  F18      1.0000 0.32100  0.90400  0.38740  Biso   1.000  F
  F19      1.0000 0.90400  0.67900  0.63740  Biso   1.000  F
  F20      1.0000 0.09600  0.32100  0.13740  Biso   1.000  F
  F21      1.0000 0.40700  0.23600  0.89990  Biso   1.000  F
  F22      1.0000 0.59300  0.76400  0.39990  Biso   1.000  F
  F23      1.0000 0.76400  0.40700  0.64990  Biso   1.000  F
  F24      1.0000 0.23600  0.59300  0.14990  Biso   1.000  F
  O17      1.0000 0.09600  0.24500  0.91930  Biso   1.000  O
  O18      1.0000 0.90400  0.75500  0.41930  Biso   1.000  O
  O19      1.0000 0.75500  0.09600  0.66930  Biso   1.000  O
  O20      1.0000 0.24500  0.90400  0.16930  Biso   1.000  O
  F25      1.0000 0.58600  0.27600  0.80140  Biso   1.000  F
  F26      1.0000 0.41400  0.72400  0.30140  Biso   1.000  F
  F27      1.0000 0.72400  0.58600  0.55140  Biso   1.000  F
  F28      1.0000 0.27600  0.41400  0.05140  Biso   1.000  F
  F29      1.0000 0.58100  0.99900  0.77580  Biso   1.000  F
  F30      1.0000 0.41900  0.00100  0.27580  Biso   1.000  F
  F31      1.0000 0.00100  0.58100  0.52580  Biso   1.000  F
  F32      1.0000 0.99900  0.41900  0.02580  Biso   1.000  F
  F33      1.0000 0.39800  0.98100  0.89910  Biso   1.000  F
  F34      1.0000 0.60200  0.01900  0.39910  Biso   1.000  F
  F35      1.0000 0.01900  0.39800  0.64910  Biso   1.000  F
  F36      1.0000 0.98100  0.60200  0.14910  Biso   1.000  F
  F37      1.0000 0.30300  0.11500  0.80470  Biso   1.000  F
  F38      1.0000 0.69700  0.88500  0.30470  Biso   1.000  F
  F39      1.0000 0.88500  0.30300  0.55470  Biso   1.000  F
  F40      1.0000 0.11500  0.69700  0.05470  Biso   1.000  F
  F41      1.0000 0.69400  0.12100  0.87960  Biso   1.000  F
  F42      1.0000 0.30600  0.87900  0.37960  Biso   1.000  F
  F43      1.0000 0.87900  0.69400  0.62960  Biso   1.000  F
  F44      1.0000 0.12100  0.30600  0.12960  Biso   1.000  F
  F45      1.0000 0.43200  0.28600  0.87870  Biso   1.000  F
  F46      1.0000 0.56800  0.71400  0.37870  Biso   1.000  F
  F47      1.0000 0.71400  0.43200  0.62870  Biso   1.000  F
  F48      1.0000 0.28600  0.56800  0.12870  Biso   1.000  F
  O21      1.0000 0.19300  0.67000  0.90190  Biso   1.000  O
  O22      1.0000 0.80700  0.33000  0.40190  Biso   1.000  O
  O23      1.0000 0.33000  0.19300  0.65190  Biso   1.000  O
  O24      1.0000 0.67000  0.80700  0.15190  Biso   1.000  O
  O25      1.0000 0.04600  0.98300  0.85130  Biso   1.000  O
  O26      1.0000 0.95400  0.01700  0.35130  Biso   1.000  O
  O27      1.0000 0.01700  0.04600  0.60130  Biso   1.000  O
  O28      1.0000 0.98300  0.95400  0.10130  Biso   1.000  O
  O29      1.0000 0.80600  0.76800  0.75600  Biso   1.000  O
  O30      1.0000 0.19400  0.23200  0.25600  Biso   1.000  O
  O31      1.0000 0.23200  0.80600  0.50600  Biso   1.000  O
  O32      1.0000 0.76800  0.19400  0.00600  Biso   1.000  O
