data_image0
_cell_length_a       10.6219
_cell_length_b       7.6529
_cell_length_c       11.1018
_cell_angle_alpha    90
_cell_angle_beta     104.804
_cell_angle_gamma    90

_symmetry_space_group_name_H-M    "P 1"
_symmetry_int_tables_number       1

loop_
  _symmetry_equiv_pos_as_xyz
  'x, y, z'

loop_
  _atom_site_label
  _atom_site_occupancy
  _atom_site_fract_x
  _atom_site_fract_y
  _atom_site_fract_z
  _atom_site_thermal_displace_type
  _atom_site_B_iso_or_equiv
  _atom_site_type_symbol
  Cu1      1.0000 0.94781  0.65352  0.43368  Biso   1.000  Cu
  Cu2      1.0000 0.05219  0.15352  0.06632  Biso   1.000  Cu
  Cu3      1.0000 0.05219  0.34648  0.56632  Biso   1.000  Cu
  Cu4      1.0000 0.94781  0.84648  0.93368  Biso   1.000  Cu
  N1       1.0000 0.80660  0.75790  0.50440  Biso   1.000  N
  N2       1.0000 0.19340  0.25790  0.99560  Biso   1.000  N
  N3       1.0000 0.19340  0.24210  0.49560  Biso   1.000  N
  N4       1.0000 0.80660  0.74210  0.00440  Biso   1.000  N
  C1       1.0000 0.73620  0.65680  0.56000  Biso   1.000  C
  C2       1.0000 0.26380  0.15680  0.94000  Biso   1.000  C
  C3       1.0000 0.26380  0.34320  0.44000  Biso   1.000  C
  C4       1.0000 0.73620  0.84320  0.06000  Biso   1.000  C
  H1       1.0000 0.74820  0.53640  0.56110  Biso   1.000  H
  H2       1.0000 0.25180  0.03640  0.93890  Biso   1.000  H
  H3       1.0000 0.25180  0.46360  0.43890  Biso   1.000  H
  H4       1.0000 0.74820  0.96360  0.06110  Biso   1.000  H
  C5       1.0000 0.64540  0.72750  0.61630  Biso   1.000  C
  C6       1.0000 0.35460  0.22750  0.88370  Biso   1.000  C
  C7       1.0000 0.35460  0.27250  0.38370  Biso   1.000  C
  C8       1.0000 0.64540  0.77250  0.11630  Biso   1.000  C
  N5       1.0000 0.62460  0.89580  0.61960  Biso   1.000  N
  N6       1.0000 0.37540  0.39580  0.88040  Biso   1.000  N
  N7       1.0000 0.37540  0.10420  0.38040  Biso   1.000  N
  N8       1.0000 0.62460  0.60420  0.11960  Biso   1.000  N
  C9       1.0000 0.69590  0.99640  0.56480  Biso   1.000  C
  C10      1.0000 0.30410  0.49640  0.93520  Biso   1.000  C
  C11      1.0000 0.30410  0.00360  0.43520  Biso   1.000  C
  C12      1.0000 0.69590  0.50360  0.06480  Biso   1.000  C
  H5       1.0000 0.68470  0.11690  0.56570  Biso   1.000  H
  H6       1.0000 0.31530  0.61690  0.93430  Biso   1.000  H
  H7       1.0000 0.31530  0.88310  0.43430  Biso   1.000  H
  H8       1.0000 0.68470  0.38310  0.06570  Biso   1.000  H
  C13      1.0000 0.78520  0.92970  0.50700  Biso   1.000  C
  C14      1.0000 0.21480  0.42970  0.99300  Biso   1.000  C
  C15      1.0000 0.21480  0.07030  0.49300  Biso   1.000  C
  C16      1.0000 0.78520  0.57030  0.00700  Biso   1.000  C
  H9       1.0000 0.83160  0.00550  0.46900  Biso   1.000  H
  H10      1.0000 0.16840  0.50550  0.03100  Biso   1.000  H
  H11      1.0000 0.16840  0.99450  0.53100  Biso   1.000  H
  H12      1.0000 0.83160  0.49450  0.96900  Biso   1.000  H
  I1       1.0000 0.53676  0.56382  0.70189  Biso   1.000  I
  I2       1.0000 0.46324  0.06382  0.79811  Biso   1.000  I
  I3       1.0000 0.46324  0.43618  0.29811  Biso   1.000  I
  I4       1.0000 0.53676  0.93618  0.20189  Biso   1.000  I
  S1       1.0000 0.86828  0.36131  0.38264  Biso   1.000  S
  S2       1.0000 0.13172  0.86131  0.11736  Biso   1.000  S
  S3       1.0000 0.13172  0.63869  0.61736  Biso   1.000  S
  S4       1.0000 0.86828  0.13869  0.88264  Biso   1.000  S
  C17      1.0000 0.93900  0.29980  0.27370  Biso   1.000  C
  C18      1.0000 0.06100  0.79980  0.22630  Biso   1.000  C
  C19      1.0000 0.06100  0.70020  0.72630  Biso   1.000  C
  C20      1.0000 0.93900  0.20020  0.77370  Biso   1.000  C
  N9       1.0000 0.98730  0.25540  0.19650  Biso   1.000  N
  N10      1.0000 0.01270  0.75540  0.30350  Biso   1.000  N
  N11      1.0000 0.01270  0.74460  0.80350  Biso   1.000  N
  N12      1.0000 0.98730  0.24460  0.69650  Biso   1.000  N
