data_image0
_cell_length_a       20.177
_cell_length_b       6.381
_cell_length_c       11.071
_cell_angle_alpha    90
_cell_angle_beta     111.8
_cell_angle_gamma    90

_symmetry_space_group_name_H-M    "P 1"
_symmetry_int_tables_number       1

loop_
  _symmetry_equiv_pos_as_xyz
  'x, y, z'

loop_
  _atom_site_label
  _atom_site_occupancy
  _atom_site_fract_x
  _atom_site_fract_y
  _atom_site_fract_z
  _atom_site_thermal_displace_type
  _atom_site_B_iso_or_equiv
  _atom_site_type_symbol
  Cu1      1.0000 0.00000  0.35389  0.25000  Biso   1.000  Cu
  Cu2      1.0000 0.50000  0.85389  0.25000  Biso   1.000  Cu
  Cu3      1.0000 0.00000  0.64611  0.75000  Biso   1.000  Cu
  Cu4      1.0000 0.50000  0.14611  0.75000  Biso   1.000  Cu
  Sn1      1.0000 0.75000  0.75000  0.00000  Biso   1.000  Sn
  Sn2      1.0000 0.25000  0.25000  0.00000  Biso   1.000  Sn
  Sn3      1.0000 0.25000  0.75000  0.50000  Biso   1.000  Sn
  Sn4      1.0000 0.75000  0.25000  0.50000  Biso   1.000  Sn
  C1       1.0000 0.90900  0.49180  0.17190  Biso   1.000  C
  C2       1.0000 0.40900  0.99180  0.17190  Biso   1.000  C
  C3       1.0000 0.09100  0.49180  0.32810  Biso   1.000  C
  C4       1.0000 0.59100  0.99180  0.32810  Biso   1.000  C
  C5       1.0000 0.09100  0.50820  0.82810  Biso   1.000  C
  C6       1.0000 0.59100  0.00820  0.82810  Biso   1.000  C
  C7       1.0000 0.90900  0.50820  0.67190  Biso   1.000  C
  C8       1.0000 0.40900  0.00820  0.67190  Biso   1.000  C
  N1       1.0000 0.85650  0.57840  0.12150  Biso   1.000  N
  N2       1.0000 0.35650  0.07840  0.12150  Biso   1.000  N
  N3       1.0000 0.14350  0.57840  0.37850  Biso   1.000  N
  N4       1.0000 0.64350  0.07840  0.37850  Biso   1.000  N
  N5       1.0000 0.14350  0.42160  0.87850  Biso   1.000  N
  N6       1.0000 0.64350  0.92160  0.87850  Biso   1.000  N
  N7       1.0000 0.85650  0.42160  0.62150  Biso   1.000  N
  N8       1.0000 0.35650  0.92160  0.62150  Biso   1.000  N
  C9       1.0000 0.80630  0.02830  0.03560  Biso   1.000  C
  C10      1.0000 0.30630  0.52830  0.03560  Biso   1.000  C
  C11      1.0000 0.19370  0.02830  0.46440  Biso   1.000  C
  C12      1.0000 0.69370  0.52830  0.46440  Biso   1.000  C
  C13      1.0000 0.19370  0.97170  0.96440  Biso   1.000  C
  C14      1.0000 0.69370  0.47170  0.96440  Biso   1.000  C
  C15      1.0000 0.80630  0.97170  0.53560  Biso   1.000  C
  C16      1.0000 0.30630  0.47170  0.53560  Biso   1.000  C
  H1       1.0000 0.77390  0.14280  0.00100  Biso   1.000  H
  H2       1.0000 0.27390  0.64280  0.00100  Biso   1.000  H
  H3       1.0000 0.22610  0.14280  0.49900  Biso   1.000  H
  H4       1.0000 0.72610  0.64280  0.49900  Biso   1.000  H
  H5       1.0000 0.22610  0.85720  0.99900  Biso   1.000  H
  H6       1.0000 0.72610  0.35720  0.99900  Biso   1.000  H
  H7       1.0000 0.77390  0.85720  0.50100  Biso   1.000  H
  H8       1.0000 0.27390  0.35720  0.50100  Biso   1.000  H
  H9       1.0000 0.84080  0.02480  0.99500  Biso   1.000  H
  H10      1.0000 0.34080  0.52480  0.99500  Biso   1.000  H
  H11      1.0000 0.15920  0.02480  0.50500  Biso   1.000  H
  H12      1.0000 0.65920  0.52480  0.50500  Biso   1.000  H
  H13      1.0000 0.15920  0.97520  0.00500  Biso   1.000  H
  H14      1.0000 0.65920  0.47520  0.00500  Biso   1.000  H
  H15      1.0000 0.84080  0.97520  0.49500  Biso   1.000  H
  H16      1.0000 0.34080  0.47520  0.49500  Biso   1.000  H
  H17      1.0000 0.83040  0.04670  0.12770  Biso   1.000  H
  H18      1.0000 0.33040  0.54670  0.12770  Biso   1.000  H
  H19      1.0000 0.16960  0.04670  0.37230  Biso   1.000  H
  H20      1.0000 0.66960  0.54670  0.37230  Biso   1.000  H
  H21      1.0000 0.16960  0.95330  0.87230  Biso   1.000  H
  H22      1.0000 0.66960  0.45330  0.87230  Biso   1.000  H
  H23      1.0000 0.83040  0.95330  0.62770  Biso   1.000  H
  H24      1.0000 0.33040  0.45330  0.62770  Biso   1.000  H
  C17      1.0000 0.70390  0.62940  0.13320  Biso   1.000  C
  C18      1.0000 0.20390  0.12940  0.13320  Biso   1.000  C
  C19      1.0000 0.29610  0.62940  0.36680  Biso   1.000  C
  C20      1.0000 0.79610  0.12940  0.36680  Biso   1.000  C
  C21      1.0000 0.29610  0.37060  0.86680  Biso   1.000  C
  C22      1.0000 0.79610  0.87060  0.86680  Biso   1.000  C
  C23      1.0000 0.70390  0.37060  0.63320  Biso   1.000  C
  C24      1.0000 0.20390  0.87060  0.63320  Biso   1.000  C
  H25      1.0000 0.73910  0.63100  0.22000  Biso   1.000  H
  H26      1.0000 0.23910  0.13100  0.22000  Biso   1.000  H
  H27      1.0000 0.26090  0.63100  0.28000  Biso   1.000  H
  H28      1.0000 0.76090  0.13100  0.28000  Biso   1.000  H
  H29      1.0000 0.26090  0.36900  0.78000  Biso   1.000  H
  H30      1.0000 0.76090  0.86900  0.78000  Biso   1.000  H
  H31      1.0000 0.73910  0.36900  0.72000  Biso   1.000  H
  H32      1.0000 0.23910  0.86900  0.72000  Biso   1.000  H
  H33      1.0000 0.68780  0.48840  0.10930  Biso   1.000  H
  H34      1.0000 0.18780  0.98840  0.10930  Biso   1.000  H
  H35      1.0000 0.31220  0.48840  0.39070  Biso   1.000  H
  H36      1.0000 0.81220  0.98840  0.39070  Biso   1.000  H
  H37      1.0000 0.31220  0.51160  0.89070  Biso   1.000  H
  H38      1.0000 0.81220  0.01160  0.89070  Biso   1.000  H
  H39      1.0000 0.68780  0.51160  0.60930  Biso   1.000  H
  H40      1.0000 0.18780  0.01160  0.60930  Biso   1.000  H
  H41      1.0000 0.66420  0.71600  0.12970  Biso   1.000  H
  H42      1.0000 0.16420  0.21600  0.12970  Biso   1.000  H
  H43      1.0000 0.33580  0.71600  0.37030  Biso   1.000  H
  H44      1.0000 0.83580  0.21600  0.37030  Biso   1.000  H
  H45      1.0000 0.33580  0.28400  0.87030  Biso   1.000  H
  H46      1.0000 0.83580  0.78400  0.87030  Biso   1.000  H
  H47      1.0000 0.66420  0.28400  0.62970  Biso   1.000  H
  H48      1.0000 0.16420  0.78400  0.62970  Biso   1.000  H
  C25      1.0000 0.74190  0.55200  0.84130  Biso   1.000  C
  C26      1.0000 0.24190  0.05200  0.84130  Biso   1.000  C
  C27      1.0000 0.25810  0.55200  0.65870  Biso   1.000  C
  C28      1.0000 0.75810  0.05200  0.65870  Biso   1.000  C
  C29      1.0000 0.25810  0.44800  0.15870  Biso   1.000  C
  C30      1.0000 0.75810  0.94800  0.15870  Biso   1.000  C
  C31      1.0000 0.74190  0.44800  0.34130  Biso   1.000  C
  C32      1.0000 0.24190  0.94800  0.34130  Biso   1.000  C
  H49      1.0000 0.70860  0.61100  0.76230  Biso   1.000  H
  H50      1.0000 0.20860  0.11100  0.76230  Biso   1.000  H
  H51      1.0000 0.29140  0.61100  0.73770  Biso   1.000  H
  H52      1.0000 0.79140  0.11100  0.73770  Biso   1.000  H
  H53      1.0000 0.29140  0.38900  0.23770  Biso   1.000  H
  H54      1.0000 0.79140  0.88900  0.23770  Biso   1.000  H
  H55      1.0000 0.70860  0.38900  0.26230  Biso   1.000  H
  H56      1.0000 0.20860  0.88900  0.26230  Biso   1.000  H
  H57      1.0000 0.72560  0.41600  0.85500  Biso   1.000  H
  H58      1.0000 0.22560  0.91600  0.85500  Biso   1.000  H
  H59      1.0000 0.27440  0.41600  0.64500  Biso   1.000  H
  H60      1.0000 0.77440  0.91600  0.64500  Biso   1.000  H
  H61      1.0000 0.27440  0.58400  0.14500  Biso   1.000  H
  H62      1.0000 0.77440  0.08400  0.14500  Biso   1.000  H
  H63      1.0000 0.72560  0.58400  0.35500  Biso   1.000  H
  H64      1.0000 0.22560  0.08400  0.35500  Biso   1.000  H
  H65      1.0000 0.78790  0.53900  0.83470  Biso   1.000  H
  H66      1.0000 0.28790  0.03900  0.83470  Biso   1.000  H
  H67      1.0000 0.21210  0.53900  0.66530  Biso   1.000  H
  H68      1.0000 0.71210  0.03900  0.66530  Biso   1.000  H
  H69      1.0000 0.21210  0.46100  0.16530  Biso   1.000  H
  H70      1.0000 0.71210  0.96100  0.16530  Biso   1.000  H
  H71      1.0000 0.78790  0.46100  0.33470  Biso   1.000  H
  H72      1.0000 0.28790  0.96100  0.33470  Biso   1.000  H
  N9       1.0000 0.00040  0.13400  0.10110  Biso   1.000  N
  N10      1.0000 0.50040  0.63400  0.10110  Biso   1.000  N
  N11      1.0000 0.99960  0.13400  0.39890  Biso   1.000  N
  N12      1.0000 0.49960  0.63400  0.39890  Biso   1.000  N
  N13      1.0000 0.99960  0.86600  0.89890  Biso   1.000  N
  N14      1.0000 0.49960  0.36600  0.89890  Biso   1.000  N
  N15      1.0000 0.00040  0.86600  0.60110  Biso   1.000  N
  N16      1.0000 0.50040  0.36600  0.60110  Biso   1.000  N
  C33      1.0000 0.03210  0.94450  0.12370  Biso   1.000  C
  C34      1.0000 0.53210  0.44450  0.12370  Biso   1.000  C
  C35      1.0000 0.96790  0.94450  0.37630  Biso   1.000  C
  C36      1.0000 0.46790  0.44450  0.37630  Biso   1.000  C
  C37      1.0000 0.96790  0.05550  0.87630  Biso   1.000  C
  C38      1.0000 0.46790  0.55550  0.87630  Biso   1.000  C
  C39      1.0000 0.03210  0.05550  0.62370  Biso   1.000  C
  C40      1.0000 0.53210  0.55550  0.62370  Biso   1.000  C
  H73      1.0000 0.05510  0.90050  0.20920  Biso   1.000  H
  H74      1.0000 0.55510  0.40050  0.20920  Biso   1.000  H
  H75      1.0000 0.94490  0.90050  0.29080  Biso   1.000  H
  H76      1.0000 0.44490  0.40050  0.29080  Biso   1.000  H
  H77      1.0000 0.94490  0.09950  0.79080  Biso   1.000  H
  H78      1.0000 0.44490  0.59950  0.79080  Biso   1.000  H
  H79      1.0000 0.05510  0.09950  0.70920  Biso   1.000  H
  H80      1.0000 0.55510  0.59950  0.70920  Biso   1.000  H
  C41      1.0000 0.96860  0.18640  0.97600  Biso   1.000  C
  C42      1.0000 0.46860  0.68640  0.97600  Biso   1.000  C
  C43      1.0000 0.03140  0.18640  0.52400  Biso   1.000  C
  C44      1.0000 0.53140  0.68640  0.52400  Biso   1.000  C
  C45      1.0000 0.03140  0.81360  0.02400  Biso   1.000  C
  C46      1.0000 0.53140  0.31360  0.02400  Biso   1.000  C
  C47      1.0000 0.96860  0.81360  0.47600  Biso   1.000  C
  C48      1.0000 0.46860  0.31360  0.47600  Biso   1.000  C
  H81      1.0000 0.94600  0.31590  0.95520  Biso   1.000  H
  H82      1.0000 0.44600  0.81590  0.95520  Biso   1.000  H
  H83      1.0000 0.05400  0.31590  0.54480  Biso   1.000  H
  H84      1.0000 0.55400  0.81590  0.54480  Biso   1.000  H
  H85      1.0000 0.05400  0.68410  0.04480  Biso   1.000  H
  H86      1.0000 0.55400  0.18410  0.04480  Biso   1.000  H
  H87      1.0000 0.94600  0.68410  0.45520  Biso   1.000  H
  H88      1.0000 0.44600  0.18410  0.45520  Biso   1.000  H
