data_image0
_cell_length_a       11.4125
_cell_length_b       12.1127
_cell_length_c       12.514
_cell_angle_alpha    114.864
_cell_angle_beta     103.576
_cell_angle_gamma    93.308

_symmetry_space_group_name_H-M    "P 1"
_symmetry_int_tables_number       1

loop_
  _symmetry_equiv_pos_as_xyz
  'x, y, z'

loop_
  _atom_site_label
  _atom_site_occupancy
  _atom_site_fract_x
  _atom_site_fract_y
  _atom_site_fract_z
  _atom_site_thermal_displace_type
  _atom_site_B_iso_or_equiv
  _atom_site_type_symbol
  Mo1      1.0000 0.30460  0.52747  0.93854  Biso   1.000  Mo
  Mo2      1.0000 0.69540  0.47253  0.06146  Biso   1.000  Mo
  Mo3      1.0000 0.00795  0.37877  0.71861  Biso   1.000  Mo
  Mo4      1.0000 0.99205  0.62123  0.28139  Biso   1.000  Mo
  Mo5      1.0000 0.25587  0.61702  0.21862  Biso   1.000  Mo
  Mo6      1.0000 0.74413  0.38298  0.78138  Biso   1.000  Mo
  Mo7      1.0000 0.99923  0.65556  0.01344  Biso   1.000  Mo
  Mo8      1.0000 0.00077  0.34444  0.98656  Biso   1.000  Mo
  Cu1      1.0000 0.44522  0.82654  0.17017  Biso   1.000  Cu
  Cu2      1.0000 0.55478  0.17346  0.82983  Biso   1.000  Cu
  Cu3      1.0000 0.54224  0.14179  0.31673  Biso   1.000  Cu
  Cu4      1.0000 0.45776  0.85821  0.68327  Biso   1.000  Cu
  O1       1.0000 0.38650  0.67420  0.99010  Biso   1.000  O
  O2       1.0000 0.61350  0.32580  0.00990  Biso   1.000  O
  O3       1.0000 0.39040  0.42620  0.86670  Biso   1.000  O
  O4       1.0000 0.60960  0.57380  0.13330  Biso   1.000  O
  O5       1.0000 0.16090  0.49870  0.81980  Biso   1.000  O
  O6       1.0000 0.83910  0.50130  0.18020  Biso   1.000  O
  O7       1.0000 0.95190  0.46410  0.64580  Biso   1.000  O
  O8       1.0000 0.04810  0.53590  0.35420  Biso   1.000  O
  O9       1.0000 0.05820  0.26390  0.61390  Biso   1.000  O
  O10      1.0000 0.94180  0.73610  0.38610  Biso   1.000  O
  O11      1.0000 0.93150  0.50580  0.88040  Biso   1.000  O
  O12      1.0000 0.06850  0.49420  0.11960  Biso   1.000  O
  O13      1.0000 0.85150  0.28950  0.69980  Biso   1.000  O
  O14      1.0000 0.14850  0.71050  0.30020  Biso   1.000  O
  O15      1.0000 0.30460  0.54340  0.30520  Biso   1.000  O
  O16      1.0000 0.69540  0.45660  0.69480  Biso   1.000  O
  O17      1.0000 0.29350  0.49720  0.06840  Biso   1.000  O
  O18      1.0000 0.70650  0.50280  0.93160  Biso   1.000  O
  O19      1.0000 0.37600  0.73380  0.26110  Biso   1.000  O
  O20      1.0000 0.62400  0.26620  0.73890  Biso   1.000  O
  O21      1.0000 0.06620  0.32030  0.86520  Biso   1.000  O
  O22      1.0000 0.93380  0.67970  0.13480  Biso   1.000  O
  O23      1.0000 0.16040  0.66940  0.06490  Biso   1.000  O
  O24      1.0000 0.83960  0.33060  0.93510  Biso   1.000  O
  O25      1.0000 0.96980  0.77020  0.97110  Biso   1.000  O
  O26      1.0000 0.03020  0.22980  0.02890  Biso   1.000  O
  O27      1.0000 0.57620  0.68710  0.87360  Biso   1.000  O
  O28      1.0000 0.42380  0.31290  0.12640  Biso   1.000  O
  N1       1.0000 0.31390  0.93030  0.16950  Biso   1.000  N
  N2       1.0000 0.68610  0.06970  0.83050  Biso   1.000  N
  N3       1.0000 0.50830  0.05870  0.12340  Biso   1.000  N
  N4       1.0000 0.49170  0.94130  0.87660  Biso   1.000  N
  N5       1.0000 0.29590  0.80430  0.70160  Biso   1.000  N
  N6       1.0000 0.70410  0.19570  0.29840  Biso   1.000  N
  N7       1.0000 0.62620  0.87200  0.24090  Biso   1.000  N
  N8       1.0000 0.37380  0.12800  0.75910  Biso   1.000  N
  N9       1.0000 0.52820  0.05800  0.43360  Biso   1.000  N
  N10      1.0000 0.47180  0.94200  0.56640  Biso   1.000  N
  N11      1.0000 0.57210  0.76260  0.59310  Biso   1.000  N
  N12      1.0000 0.42790  0.23740  0.40690  Biso   1.000  N
  C1       1.0000 0.23500  0.94280  0.23740  Biso   1.000  C
  C2       1.0000 0.76500  0.05720  0.76260  Biso   1.000  C
  C3       1.0000 0.14680  0.01640  0.23850  Biso   1.000  C
  C4       1.0000 0.85320  0.98360  0.76150  Biso   1.000  C
  C5       1.0000 0.13550  0.07740  0.16540  Biso   1.000  C
  C6       1.0000 0.86450  0.92260  0.83460  Biso   1.000  C
  C7       1.0000 0.21630  0.06510  0.09580  Biso   1.000  C
  C8       1.0000 0.78370  0.93490  0.90420  Biso   1.000  C
  C9       1.0000 0.30350  0.99190  0.10060  Biso   1.000  C
  C10      1.0000 0.69650  0.00810  0.89940  Biso   1.000  C
  C11      1.0000 0.40340  0.98810  0.04120  Biso   1.000  C
  C12      1.0000 0.59660  0.01190  0.95880  Biso   1.000  C
  C13      1.0000 0.39350  0.92580  0.91540  Biso   1.000  C
  C14      1.0000 0.60650  0.07420  0.08460  Biso   1.000  C
  C15      1.0000 0.28540  0.84050  0.81680  Biso   1.000  C
  C16      1.0000 0.71460  0.15950  0.18320  Biso   1.000  C
  C17      1.0000 0.18210  0.79620  0.83790  Biso   1.000  C
  C18      1.0000 0.81790  0.20380  0.16210  Biso   1.000  C
  C19      1.0000 0.08570  0.71770  0.73900  Biso   1.000  C
  C20      1.0000 0.91430  0.28230  0.26100  Biso   1.000  C
  C21      1.0000 0.09410  0.68450  0.62210  Biso   1.000  C
  C22      1.0000 0.90590  0.31550  0.37790  Biso   1.000  C
  C23      1.0000 0.20060  0.72800  0.60690  Biso   1.000  C
  C24      1.0000 0.79940  0.27200  0.39310  Biso   1.000  C
  C25      1.0000 0.70700  0.85810  0.17370  Biso   1.000  C
  C26      1.0000 0.29300  0.14190  0.82630  Biso   1.000  C
  C27      1.0000 0.82910  0.91120  0.22650  Biso   1.000  C
  C28      1.0000 0.17090  0.08880  0.77350  Biso   1.000  C
  C29      1.0000 0.87400  0.97960  0.35260  Biso   1.000  C
  C30      1.0000 0.12600  0.02040  0.64740  Biso   1.000  C
  C31      1.0000 0.79320  0.99080  0.42240  Biso   1.000  C
  C32      1.0000 0.20680  0.00920  0.57760  Biso   1.000  C
  C33      1.0000 0.67270  0.93650  0.36380  Biso   1.000  C
  C34      1.0000 0.32730  0.06350  0.63620  Biso   1.000  C
  C35      1.0000 0.58040  0.96210  0.43440  Biso   1.000  C
  C36      1.0000 0.41960  0.03790  0.56560  Biso   1.000  C
  C37      1.0000 0.55170  0.90050  0.50090  Biso   1.000  C
  C38      1.0000 0.44830  0.09950  0.49910  Biso   1.000  C
  C39      1.0000 0.59910  0.79080  0.50590  Biso   1.000  C
  C40      1.0000 0.40090  0.20920  0.49410  Biso   1.000  C
  C41      1.0000 0.66280  0.71960  0.42850  Biso   1.000  C
  C42      1.0000 0.33720  0.28040  0.57150  Biso   1.000  C
  C43      1.0000 0.70550  0.62030  0.44300  Biso   1.000  C
  C44      1.0000 0.29450  0.37970  0.55700  Biso   1.000  C
  C45      1.0000 0.68150  0.59450  0.53410  Biso   1.000  C
  C46      1.0000 0.31850  0.40550  0.46590  Biso   1.000  C
  C47      1.0000 0.61370  0.66690  0.60660  Biso   1.000  C
  C48      1.0000 0.38630  0.33310  0.39340  Biso   1.000  C
  H1       1.0000 0.24000  0.89700  0.28300  Biso   1.000  H
  H2       1.0000 0.76000  0.10300  0.71700  Biso   1.000  H
  H3       1.0000 0.09700  0.02500  0.29100  Biso   1.000  H
  H4       1.0000 0.90300  0.97500  0.70900  Biso   1.000  H
  H5       1.0000 0.07700  0.12300  0.16700  Biso   1.000  H
  H6       1.0000 0.92300  0.87700  0.83300  Biso   1.000  H
  H7       1.0000 0.20900  0.10200  0.05100  Biso   1.000  H
  H8       1.0000 0.79100  0.89800  0.94900  Biso   1.000  H
  H9       1.0000 0.17500  0.81900  0.91900  Biso   1.000  H
  H10      1.0000 0.82500  0.18100  0.08100  Biso   1.000  H
  H11      1.0000 0.02100  0.69200  0.75100  Biso   1.000  H
  H12      1.0000 0.97900  0.30800  0.24900  Biso   1.000  H
  H13      1.0000 0.03600  0.63500  0.56000  Biso   1.000  H
  H14      1.0000 0.96400  0.36500  0.44000  Biso   1.000  H
  H15      1.0000 0.20800  0.70600  0.53100  Biso   1.000  H
  H16      1.0000 0.79200  0.29400  0.46900  Biso   1.000  H
  H17      1.0000 0.67500  0.81100  0.09700  Biso   1.000  H
  H18      1.0000 0.32500  0.18900  0.90300  Biso   1.000  H
  H19      1.0000 0.87500  0.89500  0.17900  Biso   1.000  H
  H20      1.0000 0.12500  0.10500  0.82100  Biso   1.000  H
  H21      1.0000 0.95500  0.02000  0.38700  Biso   1.000  H
  H22      1.0000 0.04500  0.98000  0.61300  Biso   1.000  H
  H23      1.0000 0.82400  0.03900  0.50500  Biso   1.000  H
  H24      1.0000 0.17600  0.96100  0.49500  Biso   1.000  H
  H25      1.0000 0.67600  0.73600  0.36900  Biso   1.000  H
  H26      1.0000 0.32400  0.26400  0.63100  Biso   1.000  H
  H27      1.0000 0.74600  0.56500  0.38900  Biso   1.000  H
  H28      1.0000 0.25400  0.43500  0.61100  Biso   1.000  H
  H29      1.0000 0.71100  0.53200  0.54500  Biso   1.000  H
  H30      1.0000 0.28900  0.46800  0.45500  Biso   1.000  H
  H31      1.0000 0.59300  0.65500  0.65900  Biso   1.000  H
  H32      1.0000 0.40700  0.34500  0.34100  Biso   1.000  H
  H33      1.0000 0.51200  0.68100  0.89600  Biso   1.000  H
  H34      1.0000 0.48800  0.31900  0.10400  Biso   1.000  H
  H35      1.0000 0.61300  0.61900  0.87800  Biso   1.000  H
  H36      1.0000 0.38700  0.38100  0.12200  Biso   1.000  H
