data_image0
_cell_length_a       11.768
_cell_length_b       12.179
_cell_length_c       12.6422
_cell_angle_alpha    77.886
_cell_angle_beta     65.213
_cell_angle_gamma    63.538

_symmetry_space_group_name_H-M    "P 1"
_symmetry_int_tables_number       1

loop_
  _symmetry_equiv_pos_as_xyz
  'x, y, z'

loop_
  _atom_site_label
  _atom_site_occupancy
  _atom_site_fract_x
  _atom_site_fract_y
  _atom_site_fract_z
  _atom_site_thermal_displace_type
  _atom_site_B_iso_or_equiv
  _atom_site_type_symbol
  Cu1      1.0000 0.02413  0.89505  0.18211  Biso   1.000  Cu
  Cu2      1.0000 0.97587  0.10495  0.81789  Biso   1.000  Cu
  Cu3      1.0000 0.02090  0.65724  0.43853  Biso   1.000  Cu
  Cu4      1.0000 0.97910  0.34276  0.56147  Biso   1.000  Cu
  P1       1.0000 0.23082  0.32987  0.89000  Biso   1.000  P
  P2       1.0000 0.76918  0.67013  0.11000  Biso   1.000  P
  P3       1.0000 0.92088  0.37677  0.30111  Biso   1.000  P
  P4       1.0000 0.07912  0.62323  0.69889  Biso   1.000  P
  N1       1.0000 0.14740  0.25270  0.11770  Biso   1.000  N
  N2       1.0000 0.85260  0.74730  0.88230  Biso   1.000  N
  N3       1.0000 0.20010  0.52940  0.37830  Biso   1.000  N
  N4       1.0000 0.79990  0.47060  0.62170  Biso   1.000  N
  N5       1.0000 0.84800  0.02420  0.22190  Biso   1.000  N
  N6       1.0000 0.15200  0.97580  0.77810  Biso   1.000  N
  N7       1.0000 0.18630  0.75350  0.12390  Biso   1.000  N
  N8       1.0000 0.81370  0.24650  0.87610  Biso   1.000  N
  N9       1.0000 0.83770  0.77700  0.46160  Biso   1.000  N
  N10      1.0000 0.16230  0.22300  0.53840  Biso   1.000  N
  C1       1.0000 0.21030  0.03210  0.20200  Biso   1.000  C
  C2       1.0000 0.78970  0.96790  0.79800  Biso   1.000  C
  C3       1.0000 0.35750  0.97290  0.18190  Biso   1.000  C
  C4       1.0000 0.64250  0.02710  0.81810  Biso   1.000  C
  C5       1.0000 0.37480  0.08480  0.11840  Biso   1.000  C
  C6       1.0000 0.62520  0.91520  0.88160  Biso   1.000  C
  C7       1.0000 0.22880  0.14120  0.14200  Biso   1.000  C
  C8       1.0000 0.77120  0.85880  0.85800  Biso   1.000  C
  C9       1.0000 0.20720  0.33670  0.03970  Biso   1.000  C
  C10      1.0000 0.79280  0.66330  0.96030  Biso   1.000  C
  H1       1.0000 0.29500  0.31640  0.04380  Biso   1.000  H
  H2       1.0000 0.70500  0.68360  0.95620  Biso   1.000  H
  H3       1.0000 0.14800  0.41990  0.06610  Biso   1.000  H
  H4       1.0000 0.85200  0.58010  0.93390  Biso   1.000  H
  C11      1.0000 0.99850  0.29320  0.16770  Biso   1.000  C
  C12      1.0000 0.00150  0.70680  0.83230  Biso   1.000  C
  H5       1.0000 0.97610  0.22220  0.18430  Biso   1.000  H
  H6       1.0000 0.02390  0.77780  0.81570  Biso   1.000  H
  H7       1.0000 0.96050  0.34560  0.11110  Biso   1.000  H
  H8       1.0000 0.03950  0.65440  0.88890  Biso   1.000  H
  C13      1.0000 0.30280  0.52450  0.40350  Biso   1.000  C
  C14      1.0000 0.69720  0.47550  0.59650  Biso   1.000  C
  H9       1.0000 0.28670  0.58800  0.44500  Biso   1.000  H
  H10      1.0000 0.71330  0.41200  0.55500  Biso   1.000  H
  C15      1.0000 0.43130  0.42920  0.37050  Biso   1.000  C
  C16      1.0000 0.56870  0.57080  0.62950  Biso   1.000  C
  H11      1.0000 0.49860  0.42980  0.39040  Biso   1.000  H
  H12      1.0000 0.50140  0.57020  0.60960  Biso   1.000  H
  C17      1.0000 0.46020  0.33270  0.30790  Biso   1.000  C
  C18      1.0000 0.53980  0.66730  0.69210  Biso   1.000  C
  C19      1.0000 0.35440  0.34150  0.27780  Biso   1.000  C
  C20      1.0000 0.64560  0.65850  0.72220  Biso   1.000  C
  H13      1.0000 0.36920  0.28130  0.23300  Biso   1.000  H
  H14      1.0000 0.63080  0.71870  0.76700  Biso   1.000  H
  C21      1.0000 0.22910  0.43850  0.31420  Biso   1.000  C
  C22      1.0000 0.77090  0.56150  0.68580  Biso   1.000  C
  H15      1.0000 0.16080  0.44150  0.29330  Biso   1.000  H
  H16      1.0000 0.83920  0.55850  0.70670  Biso   1.000  H
  C23      1.0000 0.59360  0.22580  0.27710  Biso   1.000  C
  C24      1.0000 0.40640  0.77420  0.72290  Biso   1.000  C
  C25      1.0000 0.67870  0.19920  0.33680  Biso   1.000  C
  C26      1.0000 0.32130  0.80080  0.66320  Biso   1.000  C
  H17      1.0000 0.65200  0.24850  0.39720  Biso   1.000  H
  H18      1.0000 0.34800  0.75150  0.60280  Biso   1.000  H
  C27      1.0000 0.80260  0.10010  0.30690  Biso   1.000  C
  C28      1.0000 0.19740  0.89990  0.69310  Biso   1.000  C
  H19      1.0000 0.85790  0.08480  0.34800  Biso   1.000  H
  H20      1.0000 0.14210  0.91520  0.65200  Biso   1.000  H
  C29      1.0000 0.76320  0.04800  0.16570  Biso   1.000  C
  C30      1.0000 0.23680  0.95200  0.83430  Biso   1.000  C
  H21      1.0000 0.79010  0.99490  0.10850  Biso   1.000  H
  H22      1.0000 0.20990  0.00510  0.89150  Biso   1.000  H
  C31      1.0000 0.63930  0.14720  0.18940  Biso   1.000  C
  C32      1.0000 0.36070  0.85280  0.81060  Biso   1.000  C
  H23      1.0000 0.58610  0.16150  0.14650  Biso   1.000  H
  H24      1.0000 0.41390  0.83850  0.85350  Biso   1.000  H
  C33      1.0000 0.29550  0.72600  0.15040  Biso   1.000  C
  C34      1.0000 0.70450  0.27400  0.84960  Biso   1.000  C
  H25      1.0000 0.28770  0.77500  0.20260  Biso   1.000  H
  H26      1.0000 0.71230  0.22500  0.79740  Biso   1.000  H
  C35      1.0000 0.41830  0.62890  0.10400  Biso   1.000  C
  C36      1.0000 0.58170  0.37110  0.89600  Biso   1.000  C
  H27      1.0000 0.49080  0.61370  0.12520  Biso   1.000  H
  H28      1.0000 0.50920  0.38630  0.87480  Biso   1.000  H
  C37      1.0000 0.43490  0.55320  0.02570  Biso   1.000  C
  C38      1.0000 0.56510  0.44680  0.97430  Biso   1.000  C
  C39      1.0000 0.32090  0.58250  0.99820  Biso   1.000  C
  C40      1.0000 0.67910  0.41750  0.00180  Biso   1.000  C
  H29      1.0000 0.32640  0.53550  0.94570  Biso   1.000  H
  H30      1.0000 0.67360  0.46450  0.05430  Biso   1.000  H
  C41      1.0000 0.20090  0.68050  0.04860  Biso   1.000  C
  C42      1.0000 0.79910  0.31950  0.95140  Biso   1.000  C
  H31      1.0000 0.12630  0.69710  0.02980  Biso   1.000  H
  H32      1.0000 0.87370  0.30290  0.97020  Biso   1.000  H
  C43      1.0000 0.76360  0.76940  0.40950  Biso   1.000  C
  C44      1.0000 0.23640  0.23060  0.59050  Biso   1.000  C
  H33      1.0000 0.80280  0.70400  0.36080  Biso   1.000  H
  H34      1.0000 0.19720  0.29600  0.63920  Biso   1.000  H
  C45      1.0000 0.63290  0.85270  0.42360  Biso   1.000  C
  C46      1.0000 0.36710  0.14730  0.57640  Biso   1.000  C
  H35      1.0000 0.58590  0.84130  0.38610  Biso   1.000  H
  H36      1.0000 0.41410  0.15870  0.61390  Biso   1.000  H
  C47      1.0000 0.57020  0.95270  0.49230  Biso   1.000  C
  C48      1.0000 0.42980  0.04730  0.50770  Biso   1.000  C
  C49      1.0000 0.64720  0.96050  0.54760  Biso   1.000  C
  C50      1.0000 0.35280  0.03950  0.45240  Biso   1.000  C
  H37      1.0000 0.61060  0.02580  0.59560  Biso   1.000  H
  H38      1.0000 0.38940  0.97420  0.40440  Biso   1.000  H
  C51      1.0000 0.77650  0.87240  0.53140  Biso   1.000  C
  C52      1.0000 0.22350  0.12760  0.46860  Biso   1.000  C
  H39      1.0000 0.82410  0.87920  0.57090  Biso   1.000  H
  H40      1.0000 0.17590  0.12080  0.42910  Biso   1.000  H
  O1       1.0000 0.11120  0.00080  0.25130  Biso   1.000  O
  O2       1.0000 0.88880  0.99920  0.74870  Biso   1.000  O
  O3       1.0000 0.43240  0.87210  0.21180  Biso   1.000  O
  O4       1.0000 0.56760  0.12790  0.78820  Biso   1.000  O
  O5       1.0000 0.46990  0.11830  0.06960  Biso   1.000  O
  O6       1.0000 0.53010  0.88170  0.93040  Biso   1.000  O
  O7       1.0000 0.08970  0.36910  0.88620  Biso   1.000  O
  O8       1.0000 0.91030  0.63090  0.11380  Biso   1.000  O
  O9       1.0000 0.31250  0.19220  0.85900  Biso   1.000  O
  O10      1.0000 0.68750  0.80780  0.14100  Biso   1.000  O
  H41      1.0000 0.39460  0.17500  0.83650  Biso   1.000  H
  H42      1.0000 0.60540  0.82500  0.16350  Biso   1.000  H
  O11      1.0000 0.30650  0.40870  0.81800  Biso   1.000  O
  O12      1.0000 0.69350  0.59130  0.18200  Biso   1.000  O
  O13      1.0000 0.96280  0.29500  0.39560  Biso   1.000  O
  O14      1.0000 0.03720  0.70500  0.60440  Biso   1.000  O
  O15      1.0000 0.96040  0.48690  0.27090  Biso   1.000  O
  O16      1.0000 0.03960  0.51310  0.72910  Biso   1.000  O
  O17      1.0000 0.76410  0.42180  0.33160  Biso   1.000  O
  O18      1.0000 0.23590  0.57820  0.66840  Biso   1.000  O
  H43      1.0000 0.74100  0.47570  0.28440  Biso   1.000  H
  H44      1.0000 0.25900  0.52430  0.71560  Biso   1.000  H
  O19      1.0000 0.16680  0.85780  0.45090  Biso   1.000  O
  O20      1.0000 0.83320  0.14220  0.54910  Biso   1.000  O
  O21      1.0000 0.45580  0.69170  0.40270  Biso   1.000  O
  O22      1.0000 0.54420  0.30830  0.59730  Biso   1.000  O
