data_image0
_cell_length_a       9.152
_cell_length_b       13.638
_cell_length_c       10.03
_cell_angle_alpha    90
_cell_angle_beta     101.286
_cell_angle_gamma    90

_symmetry_space_group_name_H-M    "P 1"
_symmetry_int_tables_number       1

loop_
  _symmetry_equiv_pos_as_xyz
  'x, y, z'

loop_
  _atom_site_label
  _atom_site_occupancy
  _atom_site_fract_x
  _atom_site_fract_y
  _atom_site_fract_z
  _atom_site_thermal_displace_type
  _atom_site_B_iso_or_equiv
  _atom_site_type_symbol
  I1       1.0000 0.35769  0.60906  0.58762  Biso   1.000  I
  I2       1.0000 0.64231  0.10906  0.91238  Biso   1.000  I
  I3       1.0000 0.64231  0.39094  0.41238  Biso   1.000  I
  I4       1.0000 0.35769  0.89094  0.08762  Biso   1.000  I
  Cu1      1.0000 0.50802  0.56186  0.40001  Biso   1.000  Cu
  Cu2      1.0000 0.49198  0.06186  0.09999  Biso   1.000  Cu
  Cu3      1.0000 0.49198  0.43814  0.59999  Biso   1.000  Cu
  Cu4      1.0000 0.50802  0.93814  0.90001  Biso   1.000  Cu
  S1       1.0000 0.04357  0.63437  0.81210  Biso   1.000  S
  S2       1.0000 0.95643  0.13437  0.68790  Biso   1.000  S
  S3       1.0000 0.95643  0.36563  0.18790  Biso   1.000  S
  S4       1.0000 0.04357  0.86563  0.31210  Biso   1.000  S
  N1       1.0000 0.35900  0.58110  0.21820  Biso   1.000  N
  N2       1.0000 0.64100  0.08110  0.28180  Biso   1.000  N
  N3       1.0000 0.64100  0.41890  0.78180  Biso   1.000  N
  N4       1.0000 0.35900  0.91890  0.71820  Biso   1.000  N
  C1       1.0000 0.40440  0.58270  0.09990  Biso   1.000  C
  C2       1.0000 0.59560  0.08270  0.40010  Biso   1.000  C
  C3       1.0000 0.59560  0.41730  0.90010  Biso   1.000  C
  C4       1.0000 0.40440  0.91730  0.59990  Biso   1.000  C
  H1       1.0000 0.50560  0.57070  0.10050  Biso   1.000  H
  H2       1.0000 0.49440  0.07070  0.39950  Biso   1.000  H
  H3       1.0000 0.49440  0.42930  0.89950  Biso   1.000  H
  H4       1.0000 0.50560  0.92930  0.60050  Biso   1.000  H
  C5       1.0000 0.31260  0.60090  0.97740  Biso   1.000  C
  C6       1.0000 0.68740  0.10090  0.52260  Biso   1.000  C
  C7       1.0000 0.68740  0.39910  0.02260  Biso   1.000  C
  C8       1.0000 0.31260  0.89910  0.47740  Biso   1.000  C
  H5       1.0000 0.35190  0.60290  0.89750  Biso   1.000  H
  H6       1.0000 0.64810  0.10290  0.60250  Biso   1.000  H
  H7       1.0000 0.64810  0.39710  0.10250  Biso   1.000  H
  H8       1.0000 0.35190  0.89710  0.39750  Biso   1.000  H
  C9       1.0000 0.16140  0.61630  0.97100  Biso   1.000  C
  C10      1.0000 0.83860  0.11630  0.52900  Biso   1.000  C
  C11      1.0000 0.83860  0.38370  0.02900  Biso   1.000  C
  C12      1.0000 0.16140  0.88370  0.47100  Biso   1.000  C
  C13      1.0000 0.11330  0.61360  0.09240  Biso   1.000  C
  C14      1.0000 0.88670  0.11360  0.40760  Biso   1.000  C
  C15      1.0000 0.88670  0.38640  0.90760  Biso   1.000  C
  C16      1.0000 0.11330  0.88640  0.59240  Biso   1.000  C
  H9       1.0000 0.01200  0.62300  0.09430  Biso   1.000  H
  H10      1.0000 0.98800  0.12300  0.40570  Biso   1.000  H
  H11      1.0000 0.98800  0.37700  0.90570  Biso   1.000  H
  H12      1.0000 0.01200  0.87700  0.59430  Biso   1.000  H
  C17      1.0000 0.21480  0.59710  0.21160  Biso   1.000  C
  C18      1.0000 0.78520  0.09710  0.28840  Biso   1.000  C
  C19      1.0000 0.78520  0.40290  0.78840  Biso   1.000  C
  C20      1.0000 0.21480  0.90290  0.71160  Biso   1.000  C
  H13      1.0000 0.17930  0.59720  0.29350  Biso   1.000  H
  H14      1.0000 0.82070  0.09720  0.20650  Biso   1.000  H
  H15      1.0000 0.82070  0.40280  0.70650  Biso   1.000  H
  H16      1.0000 0.17930  0.90280  0.79350  Biso   1.000  H
  N5       1.0000 0.67840  0.84050  0.89170  Biso   1.000  N
  N6       1.0000 0.32160  0.34050  0.60830  Biso   1.000  N
  N7       1.0000 0.32160  0.15950  0.10830  Biso   1.000  N
  N8       1.0000 0.67840  0.65950  0.39170  Biso   1.000  N
  C21      1.0000 0.82300  0.85710  0.94580  Biso   1.000  C
  C22      1.0000 0.17700  0.35710  0.55420  Biso   1.000  C
  C23      1.0000 0.17700  0.14290  0.05420  Biso   1.000  C
  C24      1.0000 0.82300  0.64290  0.44580  Biso   1.000  C
  H17      1.0000 0.84710  0.91430  0.99770  Biso   1.000  H
  H18      1.0000 0.15290  0.41430  0.50230  Biso   1.000  H
  H19      1.0000 0.15290  0.08570  0.00230  Biso   1.000  H
  H20      1.0000 0.84710  0.58570  0.49770  Biso   1.000  H
  C25      1.0000 0.93720  0.79580  0.93010  Biso   1.000  C
  C26      1.0000 0.06280  0.29580  0.56990  Biso   1.000  C
  C27      1.0000 0.06280  0.20420  0.06990  Biso   1.000  C
  C28      1.0000 0.93720  0.70420  0.43010  Biso   1.000  C
  H21      1.0000 0.03620  0.81060  0.97060  Biso   1.000  H
  H22      1.0000 0.96380  0.31060  0.52940  Biso   1.000  H
  H23      1.0000 0.96380  0.18940  0.02940  Biso   1.000  H
  H24      1.0000 0.03620  0.68940  0.47060  Biso   1.000  H
  C29      1.0000 0.90330  0.71170  0.85310  Biso   1.000  C
  C30      1.0000 0.09670  0.21170  0.64690  Biso   1.000  C
  C31      1.0000 0.09670  0.28830  0.14690  Biso   1.000  C
  C32      1.0000 0.90330  0.78830  0.35310  Biso   1.000  C
  C33      1.0000 0.75580  0.69240  0.79930  Biso   1.000  C
  C34      1.0000 0.24420  0.19240  0.70070  Biso   1.000  C
  C35      1.0000 0.24420  0.30760  0.20070  Biso   1.000  C
  C36      1.0000 0.75580  0.80760  0.29930  Biso   1.000  C
  H25      1.0000 0.72900  0.63500  0.74830  Biso   1.000  H
  H26      1.0000 0.27100  0.13500  0.75170  Biso   1.000  H
  H27      1.0000 0.27100  0.36500  0.25170  Biso   1.000  H
  H28      1.0000 0.72900  0.86500  0.24830  Biso   1.000  H
  C37      1.0000 0.64820  0.75740  0.82060  Biso   1.000  C
  C38      1.0000 0.35180  0.25740  0.67940  Biso   1.000  C
  C39      1.0000 0.35180  0.24260  0.17940  Biso   1.000  C
  C40      1.0000 0.64820  0.74260  0.32060  Biso   1.000  C
  H29      1.0000 0.54820  0.74280  0.78340  Biso   1.000  H
  H30      1.0000 0.45180  0.24280  0.71660  Biso   1.000  H
  H31      1.0000 0.45180  0.25720  0.21660  Biso   1.000  H
  H32      1.0000 0.54820  0.75720  0.28340  Biso   1.000  H
