data_image0
_cell_length_a       10.604
_cell_length_b       9.18
_cell_length_c       10.375
_cell_angle_alpha    90
_cell_angle_beta     99.265
_cell_angle_gamma    90

_symmetry_space_group_name_H-M    "P 1"
_symmetry_int_tables_number       1

loop_
  _symmetry_equiv_pos_as_xyz
  'x, y, z'

loop_
  _atom_site_label
  _atom_site_occupancy
  _atom_site_fract_x
  _atom_site_fract_y
  _atom_site_fract_z
  _atom_site_thermal_displace_type
  _atom_site_B_iso_or_equiv
  _atom_site_type_symbol
  N1       1.0000 0.57490  0.26450  0.16380  Biso   1.000  N
  N2       1.0000 0.42510  0.76450  0.33620  Biso   1.000  N
  N3       1.0000 0.42510  0.73550  0.83620  Biso   1.000  N
  N4       1.0000 0.57490  0.23550  0.66380  Biso   1.000  N
  N5       1.0000 0.61030  0.05900  0.40760  Biso   1.000  N
  N6       1.0000 0.38970  0.55900  0.09240  Biso   1.000  N
  N7       1.0000 0.38970  0.94100  0.59240  Biso   1.000  N
  N8       1.0000 0.61030  0.44100  0.90760  Biso   1.000  N
  C1       1.0000 0.70660  0.00680  0.43650  Biso   1.000  C
  C2       1.0000 0.29340  0.50680  0.06350  Biso   1.000  C
  C3       1.0000 0.29340  0.99320  0.56350  Biso   1.000  C
  C4       1.0000 0.70660  0.49320  0.93650  Biso   1.000  C
  C5       1.0000 0.83110  0.94380  0.47300  Biso   1.000  C
  C6       1.0000 0.16890  0.44380  0.02700  Biso   1.000  C
  C7       1.0000 0.16890  0.05620  0.52700  Biso   1.000  C
  C8       1.0000 0.83110  0.55620  0.97300  Biso   1.000  C
  H1       1.0000 0.89020  0.01790  0.50930  Biso   1.000  H
  H2       1.0000 0.10980  0.51790  0.99070  Biso   1.000  H
  H3       1.0000 0.10980  0.98210  0.49070  Biso   1.000  H
  H4       1.0000 0.89020  0.48210  0.00930  Biso   1.000  H
  H5       1.0000 0.85880  0.90250  0.39730  Biso   1.000  H
  H6       1.0000 0.14120  0.40250  0.10270  Biso   1.000  H
  H7       1.0000 0.14120  0.09750  0.60270  Biso   1.000  H
  H8       1.0000 0.85880  0.59750  0.89730  Biso   1.000  H
  H9       1.0000 0.82750  0.86890  0.53690  Biso   1.000  H
  H10      1.0000 0.17250  0.36890  0.96310  Biso   1.000  H
  H11      1.0000 0.17250  0.13110  0.46310  Biso   1.000  H
  H12      1.0000 0.82750  0.63110  0.03690  Biso   1.000  H
  Cu1      1.0000 0.46417  0.16082  0.30252  Biso   1.000  Cu
  Cu2      1.0000 0.53583  0.66082  0.19748  Biso   1.000  Cu
  Cu3      1.0000 0.53583  0.83918  0.69748  Biso   1.000  Cu
  Cu4      1.0000 0.46417  0.33918  0.80252  Biso   1.000  Cu
  Cl1      1.0000 0.34291  0.32936  0.37986  Biso   1.000  Cl
  Cl2      1.0000 0.65709  0.82936  0.12014  Biso   1.000  Cl
  Cl3      1.0000 0.65709  0.67064  0.62014  Biso   1.000  Cl
  Cl4      1.0000 0.34291  0.17064  0.87986  Biso   1.000  Cl
  N9       1.0000 0.62420  0.49990  0.33270  Biso   1.000  N
  N10      1.0000 0.37580  0.99990  0.16730  Biso   1.000  N
  N11      1.0000 0.37580  0.50010  0.66730  Biso   1.000  N
  N12      1.0000 0.62420  0.00010  0.83270  Biso   1.000  N
  C9       1.0000 0.72760  0.41800  0.30070  Biso   1.000  C
  C10      1.0000 0.27240  0.91800  0.19930  Biso   1.000  C
  C11      1.0000 0.27240  0.58200  0.69930  Biso   1.000  C
  C12      1.0000 0.72760  0.08200  0.80070  Biso   1.000  C
  C13      1.0000 0.70270  0.30140  0.21370  Biso   1.000  C
  C14      1.0000 0.29730  0.80140  0.28630  Biso   1.000  C
  C15      1.0000 0.29730  0.69860  0.78630  Biso   1.000  C
  C16      1.0000 0.70270  0.19860  0.71370  Biso   1.000  C
  C17      1.0000 0.80500  0.22120  0.18490  Biso   1.000  C
  C18      1.0000 0.19500  0.72120  0.31510  Biso   1.000  C
  C19      1.0000 0.19500  0.77880  0.81510  Biso   1.000  C
  C20      1.0000 0.80500  0.27880  0.68490  Biso   1.000  C
  H13      1.0000 0.78980  0.14150  0.12920  Biso   1.000  H
  H14      1.0000 0.21020  0.64150  0.37080  Biso   1.000  H
  H15      1.0000 0.21020  0.85850  0.87080  Biso   1.000  H
  H16      1.0000 0.78980  0.35850  0.62920  Biso   1.000  H
  C21      1.0000 0.95290  0.37290  0.32100  Biso   1.000  C
  C22      1.0000 0.04710  0.87290  0.17900  Biso   1.000  C
  C23      1.0000 0.04710  0.62710  0.67900  Biso   1.000  C
  C24      1.0000 0.95290  0.12710  0.82100  Biso   1.000  C
  H17      1.0000 0.03630  0.39780  0.35640  Biso   1.000  H
  H18      1.0000 0.96370  0.89780  0.14360  Biso   1.000  H
  H19      1.0000 0.96370  0.60220  0.64360  Biso   1.000  H
  H20      1.0000 0.03630  0.10220  0.85640  Biso   1.000  H
  C25      1.0000 0.85140  0.45190  0.35200  Biso   1.000  C
  C26      1.0000 0.14860  0.95190  0.14800  Biso   1.000  C
  C27      1.0000 0.14860  0.54810  0.64800  Biso   1.000  C
  C28      1.0000 0.85140  0.04810  0.85200  Biso   1.000  C
  H21      1.0000 0.86730  0.53020  0.40910  Biso   1.000  H
  H22      1.0000 0.13270  0.03020  0.09090  Biso   1.000  H
  H23      1.0000 0.13270  0.46980  0.59090  Biso   1.000  H
  H24      1.0000 0.86730  0.96980  0.90910  Biso   1.000  H
  C29      1.0000 0.92910  0.25700  0.23740  Biso   1.000  C
  C30      1.0000 0.07090  0.75700  0.26260  Biso   1.000  C
  C31      1.0000 0.07090  0.74300  0.76260  Biso   1.000  C
  C32      1.0000 0.92910  0.24300  0.73740  Biso   1.000  C
  H25      1.0000 0.99660  0.20250  0.21590  Biso   1.000  H
  H26      1.0000 0.00340  0.70250  0.28410  Biso   1.000  H
  H27      1.0000 0.00340  0.79750  0.78410  Biso   1.000  H
  H28      1.0000 0.99660  0.29750  0.71590  Biso   1.000  H
  H29      1.0000 0.54900  0.33300  0.14800  Biso   1.000  H
  H30      1.0000 0.45100  0.83300  0.35200  Biso   1.000  H
  H31      1.0000 0.45100  0.66700  0.85200  Biso   1.000  H
  H32      1.0000 0.54900  0.16700  0.64800  Biso   1.000  H
  H33      1.0000 0.58300  0.20800  0.11800  Biso   1.000  H
  H34      1.0000 0.41700  0.70800  0.38200  Biso   1.000  H
  H35      1.0000 0.41700  0.79200  0.88200  Biso   1.000  H
  H36      1.0000 0.58300  0.29200  0.61800  Biso   1.000  H
  H37      1.0000 0.65300  0.55900  0.41900  Biso   1.000  H
  H38      1.0000 0.34700  0.05900  0.08100  Biso   1.000  H
  H39      1.0000 0.34700  0.44100  0.58100  Biso   1.000  H
  H40      1.0000 0.65300  0.94100  0.91900  Biso   1.000  H
  H41      1.0000 0.54700  0.46400  0.32400  Biso   1.000  H
  H42      1.0000 0.45300  0.96400  0.17600  Biso   1.000  H
  H43      1.0000 0.45300  0.53600  0.67600  Biso   1.000  H
  H44      1.0000 0.54700  0.03600  0.82400  Biso   1.000  H
