data_image0
_cell_length_a       10.758
_cell_length_b       9.284
_cell_length_c       10.598
_cell_angle_alpha    90
_cell_angle_beta     99.67
_cell_angle_gamma    90

_symmetry_space_group_name_H-M    "P 1"
_symmetry_int_tables_number       1

loop_
  _symmetry_equiv_pos_as_xyz
  'x, y, z'

loop_
  _atom_site_label
  _atom_site_occupancy
  _atom_site_fract_x
  _atom_site_fract_y
  _atom_site_fract_z
  _atom_site_thermal_displace_type
  _atom_site_B_iso_or_equiv
  _atom_site_type_symbol
  Br1      1.0000 0.33092  0.32628  0.37476  Biso   1.000  Br
  Br2      1.0000 0.66908  0.82628  0.12524  Biso   1.000  Br
  Br3      1.0000 0.66908  0.67372  0.62524  Biso   1.000  Br
  Br4      1.0000 0.33092  0.17372  0.87476  Biso   1.000  Br
  Cu1      1.0000 0.46689  0.15556  0.29919  Biso   1.000  Cu
  Cu2      1.0000 0.53311  0.65556  0.20081  Biso   1.000  Cu
  Cu3      1.0000 0.53311  0.84444  0.70081  Biso   1.000  Cu
  Cu4      1.0000 0.46689  0.34444  0.79919  Biso   1.000  Cu
  N1       1.0000 0.37830  0.99650  0.16930  Biso   1.000  N
  N2       1.0000 0.62170  0.49650  0.33070  Biso   1.000  N
  N3       1.0000 0.62170  0.00350  0.83070  Biso   1.000  N
  N4       1.0000 0.37830  0.50350  0.66930  Biso   1.000  N
  N5       1.0000 0.61100  0.06200  0.40810  Biso   1.000  N
  N6       1.0000 0.38900  0.56200  0.09190  Biso   1.000  N
  N7       1.0000 0.38900  0.93800  0.59190  Biso   1.000  N
  N8       1.0000 0.61100  0.43800  0.90810  Biso   1.000  N
  C1       1.0000 0.29740  0.80180  0.28620  Biso   1.000  C
  C2       1.0000 0.70260  0.30180  0.21380  Biso   1.000  C
  C3       1.0000 0.70260  0.19820  0.71380  Biso   1.000  C
  C4       1.0000 0.29740  0.69820  0.78620  Biso   1.000  C
  C5       1.0000 0.27460  0.91570  0.20000  Biso   1.000  C
  C6       1.0000 0.72540  0.41570  0.30000  Biso   1.000  C
  C7       1.0000 0.72540  0.08430  0.80000  Biso   1.000  C
  C8       1.0000 0.27460  0.58430  0.70000  Biso   1.000  C
  C9       1.0000 0.19520  0.72300  0.31500  Biso   1.000  C
  C10      1.0000 0.80480  0.22300  0.18500  Biso   1.000  C
  C11      1.0000 0.80480  0.27700  0.68500  Biso   1.000  C
  C12      1.0000 0.19520  0.77700  0.81500  Biso   1.000  C
  H1       1.0000 0.20940  0.64450  0.37010  Biso   1.000  H
  H2       1.0000 0.79060  0.14450  0.12990  Biso   1.000  H
  H3       1.0000 0.79060  0.35550  0.62990  Biso   1.000  H
  H4       1.0000 0.20940  0.85550  0.87010  Biso   1.000  H
  C13      1.0000 0.70890  0.01660  0.43850  Biso   1.000  C
  C14      1.0000 0.29110  0.51660  0.06150  Biso   1.000  C
  C15      1.0000 0.29110  0.98340  0.56150  Biso   1.000  C
  C16      1.0000 0.70890  0.48340  0.93850  Biso   1.000  C
  C17      1.0000 0.15150  0.95280  0.14920  Biso   1.000  C
  C18      1.0000 0.84850  0.45280  0.35080  Biso   1.000  C
  C19      1.0000 0.84850  0.04720  0.85080  Biso   1.000  C
  C20      1.0000 0.15150  0.54720  0.64920  Biso   1.000  C
  H5       1.0000 0.13640  0.03090  0.09370  Biso   1.000  H
  H6       1.0000 0.86360  0.53090  0.40630  Biso   1.000  H
  H7       1.0000 0.86360  0.96910  0.90630  Biso   1.000  H
  H8       1.0000 0.13640  0.46910  0.59370  Biso   1.000  H
  C21      1.0000 0.05080  0.87530  0.18010  Biso   1.000  C
  C22      1.0000 0.94920  0.37530  0.31990  Biso   1.000  C
  C23      1.0000 0.94920  0.12470  0.81990  Biso   1.000  C
  C24      1.0000 0.05080  0.62470  0.68010  Biso   1.000  C
  H9       1.0000 0.96860  0.90090  0.14530  Biso   1.000  H
  H10      1.0000 0.03140  0.40090  0.35470  Biso   1.000  H
  H11      1.0000 0.03140  0.09910  0.85470  Biso   1.000  H
  H12      1.0000 0.96860  0.59910  0.64530  Biso   1.000  H
  C25      1.0000 0.07300  0.76050  0.26230  Biso   1.000  C
  C26      1.0000 0.92700  0.26050  0.23770  Biso   1.000  C
  C27      1.0000 0.92700  0.23950  0.73770  Biso   1.000  C
  C28      1.0000 0.07300  0.73950  0.76230  Biso   1.000  C
  H13      1.0000 0.00560  0.70770  0.28270  Biso   1.000  H
  H14      1.0000 0.99440  0.20770  0.21730  Biso   1.000  H
  H15      1.0000 0.99440  0.29230  0.71730  Biso   1.000  H
  H16      1.0000 0.00560  0.79230  0.78270  Biso   1.000  H
  C29      1.0000 0.83490  0.96040  0.47460  Biso   1.000  C
  C30      1.0000 0.16510  0.46040  0.02540  Biso   1.000  C
  C31      1.0000 0.16510  0.03960  0.52540  Biso   1.000  C
  C32      1.0000 0.83490  0.53960  0.97460  Biso   1.000  C
  H17      1.0000 0.85960  0.91160  0.40280  Biso   1.000  H
  H18      1.0000 0.14040  0.41160  0.09720  Biso   1.000  H
  H19      1.0000 0.14040  0.08840  0.59720  Biso   1.000  H
  H20      1.0000 0.85960  0.58840  0.90280  Biso   1.000  H
  H21      1.0000 0.83680  0.89390  0.54420  Biso   1.000  H
  H22      1.0000 0.16320  0.39390  0.95580  Biso   1.000  H
  H23      1.0000 0.16320  0.10610  0.45580  Biso   1.000  H
  H24      1.0000 0.83680  0.60610  0.04420  Biso   1.000  H
  H25      1.0000 0.89220  0.03830  0.50060  Biso   1.000  H
  H26      1.0000 0.10780  0.53830  0.99940  Biso   1.000  H
  H27      1.0000 0.10780  0.96170  0.49940  Biso   1.000  H
  H28      1.0000 0.89220  0.46170  0.00060  Biso   1.000  H
  N9       1.0000 0.42430  0.76340  0.33470  Biso   1.000  N
  N10      1.0000 0.57570  0.26340  0.16530  Biso   1.000  N
  N11      1.0000 0.57570  0.23660  0.66530  Biso   1.000  N
  N12      1.0000 0.42430  0.73660  0.83470  Biso   1.000  N
  H29      1.0000 0.34900  0.04000  0.09200  Biso   1.000  H
  H30      1.0000 0.65100  0.54000  0.40800  Biso   1.000  H
  H31      1.0000 0.65100  0.96000  0.90800  Biso   1.000  H
  H32      1.0000 0.34900  0.46000  0.59200  Biso   1.000  H
  H33      1.0000 0.44000  0.94200  0.15600  Biso   1.000  H
  H34      1.0000 0.56000  0.44200  0.34400  Biso   1.000  H
  H35      1.0000 0.56000  0.05800  0.84400  Biso   1.000  H
  H36      1.0000 0.44000  0.55800  0.65600  Biso   1.000  H
  H37      1.0000 0.46100  0.84800  0.36300  Biso   1.000  H
  H38      1.0000 0.53900  0.34800  0.13700  Biso   1.000  H
  H39      1.0000 0.53900  0.15200  0.63700  Biso   1.000  H
  H40      1.0000 0.46100  0.65200  0.86300  Biso   1.000  H
  H41      1.0000 0.42000  0.71700  0.38400  Biso   1.000  H
  H42      1.0000 0.58000  0.21700  0.11600  Biso   1.000  H
  H43      1.0000 0.58000  0.28300  0.61600  Biso   1.000  H
  H44      1.0000 0.42000  0.78300  0.88400  Biso   1.000  H
