data_image0
_cell_length_a       8.4858
_cell_length_b       20.1903
_cell_length_c       25.1908
_cell_angle_alpha    90
_cell_angle_beta     90
_cell_angle_gamma    90

_symmetry_space_group_name_H-M    "P 1"
_symmetry_int_tables_number       1

loop_
  _symmetry_equiv_pos_as_xyz
  'x, y, z'

loop_
  _atom_site_label
  _atom_site_occupancy
  _atom_site_fract_x
  _atom_site_fract_y
  _atom_site_fract_z
  _atom_site_thermal_displace_type
  _atom_site_B_iso_or_equiv
  _atom_site_type_symbol
  Eu1      1.0000 0.69365  0.64042  0.26886  Biso   1.000  Eu
  Eu2      1.0000 0.80635  0.35958  0.76886  Biso   1.000  Eu
  Eu3      1.0000 0.19365  0.85958  0.23114  Biso   1.000  Eu
  Eu4      1.0000 0.30635  0.14042  0.73114  Biso   1.000  Eu
  Eu5      1.0000 0.30635  0.35958  0.73114  Biso   1.000  Eu
  Eu6      1.0000 0.19365  0.64042  0.23114  Biso   1.000  Eu
  Eu7      1.0000 0.80635  0.14042  0.76886  Biso   1.000  Eu
  Eu8      1.0000 0.69365  0.85958  0.26886  Biso   1.000  Eu
  Cu1      1.0000 0.07530  0.75000  0.59356  Biso   1.000  Cu
  Cu2      1.0000 0.42470  0.25000  0.09356  Biso   1.000  Cu
  Cu3      1.0000 0.57530  0.75000  0.90644  Biso   1.000  Cu
  Cu4      1.0000 0.92470  0.25000  0.40644  Biso   1.000  Cu
  O1       1.0000 0.70050  0.69420  0.34950  Biso   1.000  O
  O2       1.0000 0.79950  0.30580  0.84950  Biso   1.000  O
  O3       1.0000 0.20050  0.80580  0.15050  Biso   1.000  O
  O4       1.0000 0.29950  0.19420  0.65050  Biso   1.000  O
  O5       1.0000 0.29950  0.30580  0.65050  Biso   1.000  O
  O6       1.0000 0.20050  0.69420  0.15050  Biso   1.000  O
  O7       1.0000 0.79950  0.19420  0.84950  Biso   1.000  O
  O8       1.0000 0.70050  0.80580  0.34950  Biso   1.000  O
  O9       1.0000 0.78490  0.63290  0.18260  Biso   1.000  O
  O10      1.0000 0.71510  0.36710  0.68260  Biso   1.000  O
  O11      1.0000 0.28490  0.86710  0.31740  Biso   1.000  O
  O12      1.0000 0.21510  0.13290  0.81740  Biso   1.000  O
  O13      1.0000 0.21510  0.36710  0.81740  Biso   1.000  O
  O14      1.0000 0.28490  0.63290  0.31740  Biso   1.000  O
  O15      1.0000 0.71510  0.13290  0.68260  Biso   1.000  O
  O16      1.0000 0.78490  0.86710  0.18260  Biso   1.000  O
  C1       1.0000 0.97010  0.45910  0.31920  Biso   1.000  C
  C2       1.0000 0.52990  0.54090  0.81920  Biso   1.000  C
  C3       1.0000 0.47010  0.04090  0.18080  Biso   1.000  C
  C4       1.0000 0.02990  0.95910  0.68080  Biso   1.000  C
  C5       1.0000 0.02990  0.54090  0.68080  Biso   1.000  C
  C6       1.0000 0.47010  0.45910  0.18080  Biso   1.000  C
  C7       1.0000 0.52990  0.95910  0.81920  Biso   1.000  C
  C8       1.0000 0.97010  0.04090  0.31920  Biso   1.000  C
  C9       1.0000 0.82270  0.55600  0.11280  Biso   1.000  C
  C10      1.0000 0.67730  0.44400  0.61280  Biso   1.000  C
  C11      1.0000 0.32270  0.94400  0.38720  Biso   1.000  C
  C12      1.0000 0.17730  0.05600  0.88720  Biso   1.000  C
  C13      1.0000 0.17730  0.44400  0.88720  Biso   1.000  C
  C14      1.0000 0.32270  0.55600  0.38720  Biso   1.000  C
  C15      1.0000 0.67730  0.05600  0.61280  Biso   1.000  C
  C16      1.0000 0.82270  0.94400  0.11280  Biso   1.000  C
  C17      1.0000 0.66970  0.56440  0.09480  Biso   1.000  C
  C18      1.0000 0.83030  0.43560  0.59480  Biso   1.000  C
  C19      1.0000 0.16970  0.93560  0.40520  Biso   1.000  C
  C20      1.0000 0.33030  0.06440  0.90520  Biso   1.000  C
  C21      1.0000 0.33030  0.43560  0.90520  Biso   1.000  C
  C22      1.0000 0.16970  0.56440  0.40520  Biso   1.000  C
  C23      1.0000 0.83030  0.06440  0.59480  Biso   1.000  C
  C24      1.0000 0.66970  0.93560  0.09480  Biso   1.000  C
  H1       1.0000 0.60400  0.59560  0.11050  Biso   1.000  H
  H2       1.0000 0.89600  0.40440  0.61050  Biso   1.000  H
  H3       1.0000 0.10400  0.90440  0.38950  Biso   1.000  H
  H4       1.0000 0.39600  0.09560  0.88950  Biso   1.000  H
  H5       1.0000 0.39600  0.40440  0.88950  Biso   1.000  H
  H6       1.0000 0.10400  0.59560  0.38950  Biso   1.000  H
  H7       1.0000 0.89600  0.09560  0.61050  Biso   1.000  H
  H8       1.0000 0.60400  0.90440  0.11050  Biso   1.000  H
  N1       1.0000 0.96200  0.75000  0.52300  Biso   1.000  N
  N2       1.0000 0.53800  0.25000  0.02300  Biso   1.000  N
  N3       1.0000 0.46200  0.75000  0.97700  Biso   1.000  N
  N4       1.0000 0.03800  0.25000  0.47700  Biso   1.000  N
  C25      1.0000 0.97710  0.52610  0.29450  Biso   1.000  C
  C26      1.0000 0.52290  0.47390  0.79450  Biso   1.000  C
  C27      1.0000 0.47710  0.97390  0.20550  Biso   1.000  C
  C28      1.0000 0.02290  0.02610  0.70550  Biso   1.000  C
  C29      1.0000 0.02290  0.47390  0.70550  Biso   1.000  C
  C30      1.0000 0.47710  0.52610  0.20550  Biso   1.000  C
  C31      1.0000 0.52290  0.02610  0.79450  Biso   1.000  C
  C32      1.0000 0.97710  0.97390  0.29450  Biso   1.000  C
  C33      1.0000 0.72900  0.75000  0.36980  Biso   1.000  C
  C34      1.0000 0.77100  0.25000  0.86980  Biso   1.000  C
  C35      1.0000 0.22900  0.75000  0.13020  Biso   1.000  C
  C36      1.0000 0.27100  0.25000  0.63020  Biso   1.000  C
  N5       1.0000 0.94860  0.33770  0.37040  Biso   1.000  N
  N6       1.0000 0.55140  0.66230  0.87040  Biso   1.000  N
  N7       1.0000 0.44860  0.16230  0.12960  Biso   1.000  N
  N8       1.0000 0.05140  0.83770  0.62960  Biso   1.000  N
  N9       1.0000 0.05140  0.66230  0.62960  Biso   1.000  N
  N10      1.0000 0.44860  0.33770  0.12960  Biso   1.000  N
  N11      1.0000 0.55140  0.83770  0.87040  Biso   1.000  N
  N12      1.0000 0.94860  0.16230  0.37040  Biso   1.000  N
  C37      1.0000 0.08200  0.35660  0.34770  Biso   1.000  C
  C38      1.0000 0.41800  0.64340  0.84770  Biso   1.000  C
  C39      1.0000 0.58200  0.14340  0.15230  Biso   1.000  C
  C40      1.0000 0.91800  0.85660  0.65230  Biso   1.000  C
  C41      1.0000 0.91800  0.64340  0.65230  Biso   1.000  C
  C42      1.0000 0.58200  0.35660  0.15230  Biso   1.000  C
  C43      1.0000 0.41800  0.85660  0.84770  Biso   1.000  C
  C44      1.0000 0.08200  0.14340  0.34770  Biso   1.000  C
  H9       1.0000 0.16850  0.32870  0.34940  Biso   1.000  H
  H10      1.0000 0.33150  0.67130  0.84940  Biso   1.000  H
  H11      1.0000 0.66850  0.17130  0.15060  Biso   1.000  H
  H12      1.0000 0.83150  0.82870  0.65060  Biso   1.000  H
  H13      1.0000 0.83150  0.67130  0.65060  Biso   1.000  H
  H14      1.0000 0.66850  0.32870  0.15060  Biso   1.000  H
  H15      1.0000 0.33150  0.82870  0.84940  Biso   1.000  H
  H16      1.0000 0.16850  0.17130  0.34940  Biso   1.000  H
  N13      1.0000 0.69900  0.47780  0.03080  Biso   1.000  N
  N14      1.0000 0.80100  0.52220  0.53080  Biso   1.000  N
  N15      1.0000 0.19900  0.02220  0.46920  Biso   1.000  N
  N16      1.0000 0.30100  0.97780  0.96920  Biso   1.000  N
  N17      1.0000 0.30100  0.52220  0.96920  Biso   1.000  N
  N18      1.0000 0.19900  0.47780  0.46920  Biso   1.000  N
  N19      1.0000 0.80100  0.97780  0.53080  Biso   1.000  N
  N20      1.0000 0.69900  0.02220  0.03080  Biso   1.000  N
  C45      1.0000 0.83700  0.43750  0.34320  Biso   1.000  C
  C46      1.0000 0.66300  0.56250  0.84320  Biso   1.000  C
  C47      1.0000 0.33700  0.06250  0.15680  Biso   1.000  C
  C48      1.0000 0.16300  0.93750  0.65680  Biso   1.000  C
  C49      1.0000 0.16300  0.56250  0.65680  Biso   1.000  C
  C50      1.0000 0.33700  0.43750  0.15680  Biso   1.000  C
  C51      1.0000 0.66300  0.93750  0.84320  Biso   1.000  C
  C52      1.0000 0.83700  0.06250  0.34320  Biso   1.000  C
  H17      1.0000 0.74730  0.46410  0.34230  Biso   1.000  H
  H18      1.0000 0.75270  0.53590  0.84230  Biso   1.000  H
  H19      1.0000 0.24730  0.03590  0.15770  Biso   1.000  H
  H20      1.0000 0.25270  0.96410  0.65770  Biso   1.000  H
  H21      1.0000 0.25270  0.53590  0.65770  Biso   1.000  H
  H22      1.0000 0.24730  0.46410  0.15770  Biso   1.000  H
  H23      1.0000 0.75270  0.96410  0.84230  Biso   1.000  H
  H24      1.0000 0.74730  0.03590  0.34230  Biso   1.000  H
  O17      1.0000 0.44850  0.80660  0.23040  Biso   1.000  O
  O18      1.0000 0.05150  0.19340  0.73040  Biso   1.000  O
  O19      1.0000 0.94850  0.69340  0.26960  Biso   1.000  O
  O20      1.0000 0.55150  0.30660  0.76960  Biso   1.000  O
  O21      1.0000 0.55150  0.19340  0.76960  Biso   1.000  O
  O22      1.0000 0.94850  0.80660  0.26960  Biso   1.000  O
  O23      1.0000 0.05150  0.30660  0.73040  Biso   1.000  O
  O24      1.0000 0.44850  0.69340  0.23040  Biso   1.000  O
  C53      1.0000 0.50990  0.75000  0.23440  Biso   1.000  C
  C54      1.0000 0.99010  0.25000  0.73440  Biso   1.000  C
  C55      1.0000 0.00990  0.75000  0.26560  Biso   1.000  C
  C56      1.0000 0.49010  0.25000  0.76560  Biso   1.000  C
  O25      1.0000 0.02010  0.58790  0.17130  Biso   1.000  O
  O26      1.0000 0.47990  0.41210  0.67130  Biso   1.000  O
  O27      1.0000 0.52010  0.91210  0.32870  Biso   1.000  O
  O28      1.0000 0.97990  0.08790  0.82870  Biso   1.000  O
  O29      1.0000 0.97990  0.41210  0.82870  Biso   1.000  O
  O30      1.0000 0.52010  0.58790  0.32870  Biso   1.000  O
  O31      1.0000 0.47990  0.08790  0.67130  Biso   1.000  O
  O32      1.0000 0.02010  0.91210  0.17130  Biso   1.000  O
  O33      1.0000 0.86140  0.56200  0.29970  Biso   1.000  O
  O34      1.0000 0.63860  0.43800  0.79970  Biso   1.000  O
  O35      1.0000 0.36140  0.93800  0.20030  Biso   1.000  O
  O36      1.0000 0.13860  0.06200  0.70030  Biso   1.000  O
  O37      1.0000 0.13860  0.43800  0.70030  Biso   1.000  O
  O38      1.0000 0.36140  0.56200  0.20030  Biso   1.000  O
  O39      1.0000 0.63860  0.06200  0.79970  Biso   1.000  O
  O40      1.0000 0.86140  0.93800  0.29970  Biso   1.000  O
  O41      1.0000 0.10000  0.54060  0.27030  Biso   1.000  O
  O42      1.0000 0.40000  0.45940  0.77030  Biso   1.000  O
  O43      1.0000 0.60000  0.95940  0.22970  Biso   1.000  O
  O44      1.0000 0.90000  0.04060  0.72970  Biso   1.000  O
  O45      1.0000 0.90000  0.45940  0.72970  Biso   1.000  O
  O46      1.0000 0.60000  0.54060  0.22970  Biso   1.000  O
  O47      1.0000 0.40000  0.04060  0.77030  Biso   1.000  O
  O48      1.0000 0.10000  0.95940  0.27030  Biso   1.000  O
  C57      1.0000 0.88040  0.59540  0.15920  Biso   1.000  C
  C58      1.0000 0.61960  0.40460  0.65920  Biso   1.000  C
  C59      1.0000 0.38040  0.90460  0.34080  Biso   1.000  C
  C60      1.0000 0.11960  0.09540  0.84080  Biso   1.000  C
  C61      1.0000 0.11960  0.40460  0.84080  Biso   1.000  C
  C62      1.0000 0.38040  0.59540  0.34080  Biso   1.000  C
  C63      1.0000 0.61960  0.09540  0.65920  Biso   1.000  C
  C64      1.0000 0.88040  0.90460  0.15920  Biso   1.000  C
  C65      1.0000 0.79400  0.75000  0.42350  Biso   1.000  C
  C66      1.0000 0.70600  0.25000  0.92350  Biso   1.000  C
  C67      1.0000 0.29400  0.75000  0.07650  Biso   1.000  C
  C68      1.0000 0.20600  0.25000  0.57650  Biso   1.000  C
  C69      1.0000 0.09600  0.41830  0.32080  Biso   1.000  C
  C70      1.0000 0.40400  0.58170  0.82080  Biso   1.000  C
  C71      1.0000 0.59600  0.08170  0.17920  Biso   1.000  C
  C72      1.0000 0.90400  0.91830  0.67920  Biso   1.000  C
  C73      1.0000 0.90400  0.58170  0.67920  Biso   1.000  C
  C74      1.0000 0.59600  0.41830  0.17920  Biso   1.000  C
  C75      1.0000 0.40400  0.91830  0.82080  Biso   1.000  C
  C76      1.0000 0.09600  0.08170  0.32080  Biso   1.000  C
  H25      1.0000 0.19080  0.43030  0.30470  Biso   1.000  H
  H26      1.0000 0.30920  0.56970  0.80470  Biso   1.000  H
  H27      1.0000 0.69080  0.06970  0.19530  Biso   1.000  H
  H28      1.0000 0.80920  0.93030  0.69530  Biso   1.000  H
  H29      1.0000 0.80920  0.56970  0.69530  Biso   1.000  H
  H30      1.0000 0.69080  0.43030  0.19530  Biso   1.000  H
  H31      1.0000 0.30920  0.93030  0.80470  Biso   1.000  H
  H32      1.0000 0.19080  0.06970  0.30470  Biso   1.000  H
  C77      1.0000 0.61500  0.52550  0.05280  Biso   1.000  C
  C78      1.0000 0.88500  0.47450  0.55280  Biso   1.000  C
  C79      1.0000 0.11500  0.97450  0.44720  Biso   1.000  C
  C80      1.0000 0.38500  0.02550  0.94720  Biso   1.000  C
  C81      1.0000 0.38500  0.47450  0.94720  Biso   1.000  C
  C82      1.0000 0.11500  0.52550  0.44720  Biso   1.000  C
  C83      1.0000 0.88500  0.02550  0.55280  Biso   1.000  C
  C84      1.0000 0.61500  0.97450  0.05280  Biso   1.000  C
  H33      1.0000 0.51480  0.53370  0.03970  Biso   1.000  H
  H34      1.0000 0.98520  0.46630  0.53970  Biso   1.000  H
  H35      1.0000 0.01480  0.96630  0.46030  Biso   1.000  H
  H36      1.0000 0.48520  0.03370  0.96030  Biso   1.000  H
  H37      1.0000 0.48520  0.46630  0.96030  Biso   1.000  H
  H38      1.0000 0.01480  0.53370  0.46030  Biso   1.000  H
  H39      1.0000 0.98520  0.03370  0.53970  Biso   1.000  H
  H40      1.0000 0.51480  0.96630  0.03970  Biso   1.000  H
  C85      1.0000 0.91580  0.50830  0.08910  Biso   1.000  C
  C86      1.0000 0.58420  0.49170  0.58910  Biso   1.000  C
  C87      1.0000 0.41580  0.99170  0.41090  Biso   1.000  C
  C88      1.0000 0.08420  0.00830  0.91090  Biso   1.000  C
  C89      1.0000 0.08420  0.49170  0.91090  Biso   1.000  C
  C90      1.0000 0.41580  0.50830  0.41090  Biso   1.000  C
  C91      1.0000 0.58420  0.00830  0.58910  Biso   1.000  C
  C92      1.0000 0.91580  0.99170  0.08910  Biso   1.000  C
  H41      1.0000 0.01940  0.50110  0.09980  Biso   1.000  H
  H42      1.0000 0.48060  0.49890  0.59980  Biso   1.000  H
  H43      1.0000 0.51940  0.99890  0.40020  Biso   1.000  H
  H44      1.0000 0.98060  0.00110  0.90020  Biso   1.000  H
  H45      1.0000 0.98060  0.49890  0.90020  Biso   1.000  H
  H46      1.0000 0.51940  0.50110  0.40020  Biso   1.000  H
  H47      1.0000 0.48060  0.00110  0.59980  Biso   1.000  H
  H48      1.0000 0.01940  0.99890  0.09980  Biso   1.000  H
  C93      1.0000 0.83000  0.37910  0.36830  Biso   1.000  C
  C94      1.0000 0.67000  0.62090  0.86830  Biso   1.000  C
  C95      1.0000 0.33000  0.12090  0.13170  Biso   1.000  C
  C96      1.0000 0.17000  0.87910  0.63170  Biso   1.000  C
  C97      1.0000 0.17000  0.62090  0.63170  Biso   1.000  C
  C98      1.0000 0.33000  0.37910  0.13170  Biso   1.000  C
  C99      1.0000 0.67000  0.87910  0.86830  Biso   1.000  C
  C100     1.0000 0.83000  0.12090  0.36830  Biso   1.000  C
  H49      1.0000 0.73640  0.36730  0.38500  Biso   1.000  H
  H50      1.0000 0.76360  0.63270  0.88500  Biso   1.000  H
  H51      1.0000 0.23640  0.13270  0.11500  Biso   1.000  H
  H52      1.0000 0.26360  0.86730  0.61500  Biso   1.000  H
  H53      1.0000 0.26360  0.63270  0.61500  Biso   1.000  H
  H54      1.0000 0.23640  0.36730  0.11500  Biso   1.000  H
  H55      1.0000 0.76360  0.86730  0.88500  Biso   1.000  H
  H56      1.0000 0.73640  0.13270  0.38500  Biso   1.000  H
  C101     1.0000 0.84600  0.47060  0.04770  Biso   1.000  C
  C102     1.0000 0.65400  0.52940  0.54770  Biso   1.000  C
  C103     1.0000 0.34600  0.02940  0.45230  Biso   1.000  C
  C104     1.0000 0.15400  0.97060  0.95230  Biso   1.000  C
  C105     1.0000 0.15400  0.52940  0.95230  Biso   1.000  C
  C106     1.0000 0.34600  0.47060  0.45230  Biso   1.000  C
  C107     1.0000 0.65400  0.97060  0.54770  Biso   1.000  C
  C108     1.0000 0.84600  0.02940  0.04770  Biso   1.000  C
  H57      1.0000 0.90750  0.43860  0.03130  Biso   1.000  H
  H58      1.0000 0.59250  0.56140  0.53130  Biso   1.000  H
  H59      1.0000 0.40750  0.06140  0.46870  Biso   1.000  H
  H60      1.0000 0.09250  0.93860  0.96870  Biso   1.000  H
  H61      1.0000 0.09250  0.56140  0.96870  Biso   1.000  H
  H62      1.0000 0.40750  0.43860  0.46870  Biso   1.000  H
  H63      1.0000 0.59250  0.93860  0.53130  Biso   1.000  H
  H64      1.0000 0.90750  0.06140  0.03130  Biso   1.000  H
  O49      1.0000 0.66290  0.75000  0.24220  Biso   1.000  O
  O50      1.0000 0.83710  0.25000  0.74220  Biso   1.000  O
  O51      1.0000 0.16290  0.75000  0.25780  Biso   1.000  O
  O52      1.0000 0.33710  0.25000  0.75780  Biso   1.000  O
  C109     1.0000 0.93200  0.80750  0.49810  Biso   1.000  C
  C110     1.0000 0.56800  0.19250  0.99810  Biso   1.000  C
  C111     1.0000 0.43200  0.69250  0.00190  Biso   1.000  C
  C112     1.0000 0.06800  0.30750  0.50190  Biso   1.000  C
  C113     1.0000 0.06800  0.19250  0.50190  Biso   1.000  C
  C114     1.0000 0.43200  0.80750  0.00190  Biso   1.000  C
  C115     1.0000 0.56800  0.30750  0.99810  Biso   1.000  C
  C116     1.0000 0.93200  0.69250  0.49810  Biso   1.000  C
  H65      1.0000 0.96050  0.84720  0.51420  Biso   1.000  H
  H66      1.0000 0.53950  0.15280  0.01420  Biso   1.000  H
  H67      1.0000 0.46050  0.65280  0.98580  Biso   1.000  H
  H68      1.0000 0.03950  0.34720  0.48580  Biso   1.000  H
  H69      1.0000 0.03950  0.15280  0.48580  Biso   1.000  H
  H70      1.0000 0.46050  0.84720  0.98580  Biso   1.000  H
  H71      1.0000 0.53950  0.34720  0.01420  Biso   1.000  H
  H72      1.0000 0.96050  0.65280  0.51420  Biso   1.000  H
  C117     1.0000 0.86100  0.80860  0.45020  Biso   1.000  C
  C118     1.0000 0.63900  0.19140  0.95020  Biso   1.000  C
  C119     1.0000 0.36100  0.69140  0.04980  Biso   1.000  C
  C120     1.0000 0.13900  0.30860  0.54980  Biso   1.000  C
  C121     1.0000 0.13900  0.19140  0.54980  Biso   1.000  C
  C122     1.0000 0.36100  0.80860  0.04980  Biso   1.000  C
  C123     1.0000 0.63900  0.30860  0.95020  Biso   1.000  C
  C124     1.0000 0.86100  0.69140  0.45020  Biso   1.000  C
  H73      1.0000 0.85350  0.84920  0.43280  Biso   1.000  H
  H74      1.0000 0.64650  0.15080  0.93280  Biso   1.000  H
  H75      1.0000 0.35350  0.65080  0.06720  Biso   1.000  H
  H76      1.0000 0.14650  0.34920  0.56720  Biso   1.000  H
  H77      1.0000 0.14650  0.15080  0.56720  Biso   1.000  H
  H78      1.0000 0.35350  0.84920  0.06720  Biso   1.000  H
  H79      1.0000 0.64650  0.34920  0.93280  Biso   1.000  H
  H80      1.0000 0.85350  0.65080  0.43280  Biso   1.000  H
  O53      1.0000 0.80700  0.75000  0.62660  Biso   1.000  O
  O54      1.0000 0.69300  0.25000  0.12660  Biso   1.000  O
  O55      1.0000 0.30700  0.75000  0.87340  Biso   1.000  O
  O56      1.0000 0.19300  0.25000  0.37340  Biso   1.000  O
  C125     1.0000 0.78400  0.80990  0.45250  Biso   1.000  C
  C126     1.0000 0.71600  0.19010  0.95250  Biso   1.000  C
  C127     1.0000 0.28400  0.69010  0.04750  Biso   1.000  C
  C128     1.0000 0.21600  0.30990  0.54750  Biso   1.000  C
  C129     1.0000 0.21600  0.19010  0.54750  Biso   1.000  C
  C130     1.0000 0.28400  0.80990  0.04750  Biso   1.000  C
  C131     1.0000 0.71600  0.30990  0.95250  Biso   1.000  C
  C132     1.0000 0.78400  0.69010  0.45250  Biso   1.000  C
  H81      1.0000 0.74630  0.84890  0.43740  Biso   1.000  H
  H82      1.0000 0.75370  0.15110  0.93740  Biso   1.000  H
  H83      1.0000 0.24630  0.65110  0.06260  Biso   1.000  H
  H84      1.0000 0.25370  0.34890  0.56260  Biso   1.000  H
  H85      1.0000 0.25370  0.15110  0.56260  Biso   1.000  H
  H86      1.0000 0.24630  0.84890  0.06260  Biso   1.000  H
  H87      1.0000 0.75370  0.34890  0.93740  Biso   1.000  H
  H88      1.0000 0.74630  0.65110  0.43740  Biso   1.000  H
  C133     1.0000 0.83200  0.80630  0.50410  Biso   1.000  C
  C134     1.0000 0.66800  0.19370  0.00410  Biso   1.000  C
  C135     1.0000 0.33200  0.69370  0.99590  Biso   1.000  C
  C136     1.0000 0.16800  0.30630  0.49590  Biso   1.000  C
  C137     1.0000 0.16800  0.19370  0.49590  Biso   1.000  C
  C138     1.0000 0.33200  0.80630  0.99590  Biso   1.000  C
  C139     1.0000 0.66800  0.30630  0.00410  Biso   1.000  C
  C140     1.0000 0.83200  0.69370  0.50410  Biso   1.000  C
  H89      1.0000 0.85750  0.84590  0.52090  Biso   1.000  H
  H90      1.0000 0.64250  0.15410  0.02090  Biso   1.000  H
  H91      1.0000 0.35750  0.65410  0.97910  Biso   1.000  H
  H92      1.0000 0.14250  0.34590  0.47910  Biso   1.000  H
  H93      1.0000 0.14250  0.15410  0.47910  Biso   1.000  H
  H94      1.0000 0.35750  0.84590  0.97910  Biso   1.000  H
  H95      1.0000 0.64250  0.34590  0.02090  Biso   1.000  H
  H96      1.0000 0.85750  0.65410  0.52090  Biso   1.000  H
  Cu5      1.0000 0.98950  0.75000  0.59740  Biso   1.000  Cu
  Cu6      1.0000 0.51050  0.25000  0.09740  Biso   1.000  Cu
  Cu7      1.0000 0.48950  0.75000  0.90260  Biso   1.000  Cu
  Cu8      1.0000 0.01050  0.25000  0.40260  Biso   1.000  Cu
  N21      1.0000 0.84700  0.75000  0.53290  Biso   1.000  N
  N22      1.0000 0.65300  0.25000  0.03290  Biso   1.000  N
  N23      1.0000 0.34700  0.75000  0.96710  Biso   1.000  N
  N24      1.0000 0.15300  0.25000  0.46710  Biso   1.000  N
  O57      1.0000 0.24300  0.75000  0.55150  Biso   1.000  O
  O58      1.0000 0.25700  0.25000  0.05150  Biso   1.000  O
  O59      1.0000 0.74300  0.75000  0.94850  Biso   1.000  O
  O60      1.0000 0.75700  0.25000  0.44850  Biso   1.000  O
