data_image0
_cell_length_a       11.4303
_cell_length_b       11.4954
_cell_length_c       14.0444
_cell_angle_alpha    90
_cell_angle_beta     99.948
_cell_angle_gamma    90

_symmetry_space_group_name_H-M    "P 1"
_symmetry_int_tables_number       1

loop_
  _symmetry_equiv_pos_as_xyz
  'x, y, z'

loop_
  _atom_site_label
  _atom_site_occupancy
  _atom_site_fract_x
  _atom_site_fract_y
  _atom_site_fract_z
  _atom_site_thermal_displace_type
  _atom_site_B_iso_or_equiv
  _atom_site_type_symbol
  Cu1      1.0000 0.27878  0.64193  0.18675  Biso   1.000  Cu
  Cu2      1.0000 0.72122  0.14193  0.31325  Biso   1.000  Cu
  Cu3      1.0000 0.72122  0.35807  0.81325  Biso   1.000  Cu
  Cu4      1.0000 0.27878  0.85807  0.68675  Biso   1.000  Cu
  N1       1.0000 0.39441  0.68888  0.09841  Biso   1.000  N
  N2       1.0000 0.60559  0.18888  0.40159  Biso   1.000  N
  N3       1.0000 0.60559  0.31112  0.90159  Biso   1.000  N
  N4       1.0000 0.39441  0.81112  0.59841  Biso   1.000  N
  N5       1.0000 0.68198  0.08061  0.17396  Biso   1.000  N
  N6       1.0000 0.31802  0.58061  0.32604  Biso   1.000  N
  N7       1.0000 0.31802  0.91939  0.82604  Biso   1.000  N
  N8       1.0000 0.68198  0.41939  0.67396  Biso   1.000  N
  N9       1.0000 0.18690  0.50020  0.11980  Biso   1.000  N
  N10      1.0000 0.81310  0.00020  0.38020  Biso   1.000  N
  N11      1.0000 0.81310  0.49980  0.88020  Biso   1.000  N
  N12      1.0000 0.18690  0.99980  0.61980  Biso   1.000  N
  N13      1.0000 0.15055  0.76165  0.18367  Biso   1.000  N
  N14      1.0000 0.84945  0.26165  0.31633  Biso   1.000  N
  N15      1.0000 0.84945  0.23835  0.81633  Biso   1.000  N
  N16      1.0000 0.15055  0.73835  0.68367  Biso   1.000  N
  C1       1.0000 0.46500  0.85420  0.19587  Biso   1.000  C
  C2       1.0000 0.53500  0.35420  0.30413  Biso   1.000  C
  C3       1.0000 0.53500  0.14580  0.80413  Biso   1.000  C
  C4       1.0000 0.46500  0.64580  0.69587  Biso   1.000  C
  H1       1.0000 0.41340  0.83350  0.23935  Biso   1.000  H
  H2       1.0000 0.58660  0.33350  0.26065  Biso   1.000  H
  H3       1.0000 0.58660  0.16650  0.76065  Biso   1.000  H
  H4       1.0000 0.41340  0.66650  0.73935  Biso   1.000  H
  C5       1.0000 0.46696  0.78470  0.11160  Biso   1.000  C
  C6       1.0000 0.53304  0.28470  0.38840  Biso   1.000  C
  C7       1.0000 0.53304  0.21530  0.88840  Biso   1.000  C
  C8       1.0000 0.46696  0.71530  0.61160  Biso   1.000  C
  C9       1.0000 0.54030  0.81730  0.04478  Biso   1.000  C
  C10      1.0000 0.45970  0.31730  0.45522  Biso   1.000  C
  C11      1.0000 0.45970  0.18270  0.95522  Biso   1.000  C
  C12      1.0000 0.54030  0.68270  0.54478  Biso   1.000  C
  C13      1.0000 0.53870  0.74640  0.96270  Biso   1.000  C
  C14      1.0000 0.46130  0.24640  0.53730  Biso   1.000  C
  C15      1.0000 0.46130  0.25360  0.03730  Biso   1.000  C
  C16      1.0000 0.53870  0.75360  0.46270  Biso   1.000  C
  H5       1.0000 0.58710  0.76500  0.91619  Biso   1.000  H
  H6       1.0000 0.41290  0.26500  0.58381  Biso   1.000  H
  H7       1.0000 0.41290  0.23500  0.08381  Biso   1.000  H
  H8       1.0000 0.58710  0.73500  0.41619  Biso   1.000  H
  C17      1.0000 0.46670  0.65050  0.95085  Biso   1.000  C
  C18      1.0000 0.53330  0.15050  0.54915  Biso   1.000  C
  C19      1.0000 0.53330  0.34950  0.04915  Biso   1.000  C
  C20      1.0000 0.46670  0.84950  0.45085  Biso   1.000  C
  H9       1.0000 0.46490  0.60180  0.89598  Biso   1.000  H
  H10      1.0000 0.53510  0.10180  0.60402  Biso   1.000  H
  H11      1.0000 0.53510  0.39820  0.10402  Biso   1.000  H
  H12      1.0000 0.46490  0.89820  0.39598  Biso   1.000  H
  C21      1.0000 0.39590  0.62460  0.01957  Biso   1.000  C
  C22      1.0000 0.60410  0.12460  0.48043  Biso   1.000  C
  C23      1.0000 0.60410  0.37540  0.98043  Biso   1.000  C
  C24      1.0000 0.39590  0.87540  0.51957  Biso   1.000  C
  H13      1.0000 0.34630  0.55780  0.00975  Biso   1.000  H
  H14      1.0000 0.65370  0.05780  0.49025  Biso   1.000  H
  H15      1.0000 0.65370  0.44220  0.99025  Biso   1.000  H
  H16      1.0000 0.34630  0.94220  0.50975  Biso   1.000  H
  C25      1.0000 0.53530  0.94890  0.21470  Biso   1.000  C
  C26      1.0000 0.46470  0.44890  0.28530  Biso   1.000  C
  C27      1.0000 0.46470  0.05110  0.78530  Biso   1.000  C
  C28      1.0000 0.53530  0.55110  0.71470  Biso   1.000  C
  H17      1.0000 0.53320  0.99280  0.27171  Biso   1.000  H
  H18      1.0000 0.46680  0.49280  0.22829  Biso   1.000  H
  H19      1.0000 0.46680  0.00720  0.72829  Biso   1.000  H
  H20      1.0000 0.53320  0.50720  0.77171  Biso   1.000  H
  C29      1.0000 0.61270  0.98410  0.15000  Biso   1.000  C
  C30      1.0000 0.38730  0.48410  0.35000  Biso   1.000  C
  C31      1.0000 0.38730  0.01590  0.85000  Biso   1.000  C
  C32      1.0000 0.61270  0.51590  0.65000  Biso   1.000  C
  C33      1.0000 0.61320  0.92120  0.06366  Biso   1.000  C
  C34      1.0000 0.38680  0.42120  0.43634  Biso   1.000  C
  C35      1.0000 0.38680  0.07880  0.93634  Biso   1.000  C
  C36      1.0000 0.61320  0.57880  0.56366  Biso   1.000  C
  C37      1.0000 0.68340  0.96450  0.99824  Biso   1.000  C
  C38      1.0000 0.31660  0.46450  0.50176  Biso   1.000  C
  C39      1.0000 0.31660  0.03550  0.00176  Biso   1.000  C
  C40      1.0000 0.68340  0.53550  0.49824  Biso   1.000  C
  H21      1.0000 0.68600  0.92500  0.93920  Biso   1.000  H
  H22      1.0000 0.31400  0.42500  0.56080  Biso   1.000  H
  H23      1.0000 0.31400  0.07500  0.06080  Biso   1.000  H
  H24      1.0000 0.68600  0.57500  0.43920  Biso   1.000  H
  C41      1.0000 0.74790  0.06440  0.02104  Biso   1.000  C
  C42      1.0000 0.25210  0.56440  0.47896  Biso   1.000  C
  C43      1.0000 0.25210  0.93560  0.97896  Biso   1.000  C
  C44      1.0000 0.74790  0.43560  0.52104  Biso   1.000  C
  H25      1.0000 0.79340  0.09630  0.97675  Biso   1.000  H
  H26      1.0000 0.20660  0.59630  0.52325  Biso   1.000  H
  H27      1.0000 0.20660  0.90370  0.02325  Biso   1.000  H
  H28      1.0000 0.79340  0.40370  0.47675  Biso   1.000  H
  C45      1.0000 0.74640  0.11890  0.10972  Biso   1.000  C
  C46      1.0000 0.25360  0.61890  0.39028  Biso   1.000  C
  C47      1.0000 0.25360  0.88110  0.89028  Biso   1.000  C
  C48      1.0000 0.74640  0.38110  0.60972  Biso   1.000  C
  H29      1.0000 0.79360  0.18660  0.12505  Biso   1.000  H
  H30      1.0000 0.20640  0.68660  0.37495  Biso   1.000  H
  H31      1.0000 0.20640  0.81340  0.87495  Biso   1.000  H
  H32      1.0000 0.79360  0.31340  0.62505  Biso   1.000  H
  C49      1.0000 0.12590  0.42550  0.09220  Biso   1.000  C
  C50      1.0000 0.87410  0.92550  0.40780  Biso   1.000  C
  C51      1.0000 0.87410  0.57450  0.90780  Biso   1.000  C
  C52      1.0000 0.12590  0.07450  0.59220  Biso   1.000  C
  C53      1.0000 0.04500  0.33080  0.05780  Biso   1.000  C
  C54      1.0000 0.95500  0.83080  0.44220  Biso   1.000  C
  C55      1.0000 0.95500  0.66920  0.94220  Biso   1.000  C
  C56      1.0000 0.04500  0.16920  0.55780  Biso   1.000  C
  H33      1.0000 0.08000  0.25680  0.08320  Biso   1.000  H
  H34      1.0000 0.92000  0.75680  0.41680  Biso   1.000  H
  H35      1.0000 0.92000  0.74320  0.91680  Biso   1.000  H
  H36      1.0000 0.08000  0.24320  0.58320  Biso   1.000  H
  H37      1.0000 0.03140  0.32890  0.98700  Biso   1.000  H
  H38      1.0000 0.96860  0.82890  0.51300  Biso   1.000  H
  H39      1.0000 0.96860  0.67110  0.01300  Biso   1.000  H
  H40      1.0000 0.03140  0.17110  0.48700  Biso   1.000  H
  H41      1.0000 0.96930  0.34280  0.08020  Biso   1.000  H
  H42      1.0000 0.03070  0.84280  0.41980  Biso   1.000  H
  H43      1.0000 0.03070  0.65720  0.91980  Biso   1.000  H
  H44      1.0000 0.96930  0.15720  0.58020  Biso   1.000  H
  C57      1.0000 0.07240  0.82370  0.17565  Biso   1.000  C
  C58      1.0000 0.92760  0.32370  0.32435  Biso   1.000  C
  C59      1.0000 0.92760  0.17630  0.82435  Biso   1.000  C
  C60      1.0000 0.07240  0.67630  0.67565  Biso   1.000  C
  C61      1.0000 0.97130  0.90300  0.16290  Biso   1.000  C
  C62      1.0000 0.02870  0.40300  0.33710  Biso   1.000  C
  C63      1.0000 0.02870  0.09700  0.83710  Biso   1.000  C
  C64      1.0000 0.97130  0.59700  0.66290  Biso   1.000  C
  H45      1.0000 0.97270  0.94850  0.22210  Biso   1.000  H
  H46      1.0000 0.02730  0.44850  0.27790  Biso   1.000  H
  H47      1.0000 0.02730  0.05150  0.77790  Biso   1.000  H
  H48      1.0000 0.97270  0.55150  0.72210  Biso   1.000  H
  H49      1.0000 0.89740  0.85820  0.14920  Biso   1.000  H
  H50      1.0000 0.10260  0.35820  0.35080  Biso   1.000  H
  H51      1.0000 0.10260  0.14180  0.85080  Biso   1.000  H
  H52      1.0000 0.89740  0.64180  0.64920  Biso   1.000  H
  H53      1.0000 0.97610  0.95570  0.10880  Biso   1.000  H
  H54      1.0000 0.02390  0.45570  0.39120  Biso   1.000  H
  H55      1.0000 0.02390  0.04430  0.89120  Biso   1.000  H
  H56      1.0000 0.97610  0.54430  0.60880  Biso   1.000  H
  P1       1.0000 0.21504  0.38819  0.79684  Biso   1.000  P
  P2       1.0000 0.78496  0.88819  0.70316  Biso   1.000  P
  P3       1.0000 0.78496  0.61181  0.20316  Biso   1.000  P
  P4       1.0000 0.21504  0.11181  0.29684  Biso   1.000  P
  F1       1.0000 0.21565  0.45694  0.69877  Biso   1.000  F
  F2       1.0000 0.78435  0.95694  0.80123  Biso   1.000  F
  F3       1.0000 0.78435  0.54306  0.30123  Biso   1.000  F
  F4       1.0000 0.21565  0.04306  0.19877  Biso   1.000  F
  F5       1.0000 0.16960  0.50258  0.84284  Biso   1.000  F
  F6       1.0000 0.83040  0.00258  0.65716  Biso   1.000  F
  F7       1.0000 0.83040  0.49742  0.15716  Biso   1.000  F
  F8       1.0000 0.16960  0.99742  0.34284  Biso   1.000  F
  F9       1.0000 0.07953  0.35307  0.75808  Biso   1.000  F
  F10      1.0000 0.92047  0.85307  0.74192  Biso   1.000  F
  F11      1.0000 0.92047  0.64693  0.24192  Biso   1.000  F
  F12      1.0000 0.07953  0.14693  0.25808  Biso   1.000  F
  F13      1.0000 0.21157  0.31970  0.89515  Biso   1.000  F
  F14      1.0000 0.78843  0.81970  0.60485  Biso   1.000  F
  F15      1.0000 0.78843  0.68030  0.10485  Biso   1.000  F
  F16      1.0000 0.21157  0.18030  0.39515  Biso   1.000  F
  F17      1.0000 0.25740  0.27273  0.75217  Biso   1.000  F
  F18      1.0000 0.74260  0.77273  0.74783  Biso   1.000  F
  F19      1.0000 0.74260  0.72727  0.24783  Biso   1.000  F
  F20      1.0000 0.25740  0.22727  0.25217  Biso   1.000  F
  F21      1.0000 0.34863  0.42375  0.83620  Biso   1.000  F
  F22      1.0000 0.65137  0.92375  0.66380  Biso   1.000  F
  F23      1.0000 0.65137  0.57625  0.16380  Biso   1.000  F
  F24      1.0000 0.34863  0.07625  0.33620  Biso   1.000  F
