data_image0
_cell_length_a       8.7677
_cell_length_b       11.514
_cell_length_c       14.8858
_cell_angle_alpha    90
_cell_angle_beta     96.548
_cell_angle_gamma    90

_symmetry_space_group_name_H-M    "P 1"
_symmetry_int_tables_number       1

loop_
  _symmetry_equiv_pos_as_xyz
  'x, y, z'

loop_
  _atom_site_label
  _atom_site_occupancy
  _atom_site_fract_x
  _atom_site_fract_y
  _atom_site_fract_z
  _atom_site_thermal_displace_type
  _atom_site_B_iso_or_equiv
  _atom_site_type_symbol
  Cu1      1.0000 0.93913  0.16893  0.16378  Biso   1.000  Cu
  Cu2      1.0000 0.06087  0.66893  0.33622  Biso   1.000  Cu
  Cu3      1.0000 0.06087  0.83107  0.83622  Biso   1.000  Cu
  Cu4      1.0000 0.93913  0.33107  0.66378  Biso   1.000  Cu
  N1       1.0000 0.06390  0.07610  0.26220  Biso   1.000  N
  N2       1.0000 0.93610  0.57610  0.23780  Biso   1.000  N
  N3       1.0000 0.93610  0.92390  0.73780  Biso   1.000  N
  N4       1.0000 0.06390  0.42390  0.76220  Biso   1.000  N
  N5       1.0000 0.07840  0.20980  0.62250  Biso   1.000  N
  N6       1.0000 0.92160  0.70980  0.87750  Biso   1.000  N
  N7       1.0000 0.92160  0.79020  0.37750  Biso   1.000  N
  N8       1.0000 0.07840  0.29020  0.12250  Biso   1.000  N
  N9       1.0000 0.72880  0.13850  0.12920  Biso   1.000  N
  N10      1.0000 0.27120  0.63850  0.37080  Biso   1.000  N
  N11      1.0000 0.27120  0.86150  0.87080  Biso   1.000  N
  N12      1.0000 0.72880  0.36150  0.62920  Biso   1.000  N
  C1       1.0000 0.15600  0.99270  0.23840  Biso   1.000  C
  C2       1.0000 0.84400  0.49270  0.26160  Biso   1.000  C
  C3       1.0000 0.84400  0.00730  0.76160  Biso   1.000  C
  C4       1.0000 0.15600  0.50730  0.73840  Biso   1.000  C
  H1       1.0000 0.15150  0.97380  0.17750  Biso   1.000  H
  H2       1.0000 0.84850  0.47380  0.32250  Biso   1.000  H
  H3       1.0000 0.84850  0.02620  0.82250  Biso   1.000  H
  H4       1.0000 0.15150  0.52620  0.67750  Biso   1.000  H
  C5       1.0000 0.25810  0.93230  0.29900  Biso   1.000  C
  C6       1.0000 0.74190  0.43230  0.20100  Biso   1.000  C
  C7       1.0000 0.74190  0.06770  0.70100  Biso   1.000  C
  C8       1.0000 0.25810  0.56770  0.79900  Biso   1.000  C
  H5       1.0000 0.31860  0.87350  0.27890  Biso   1.000  H
  H6       1.0000 0.68140  0.37350  0.22110  Biso   1.000  H
  H7       1.0000 0.68140  0.12650  0.72110  Biso   1.000  H
  H8       1.0000 0.31860  0.62650  0.77890  Biso   1.000  H
  C9       1.0000 0.26890  0.96030  0.38910  Biso   1.000  C
  C10      1.0000 0.73110  0.46030  0.11090  Biso   1.000  C
  C11      1.0000 0.73110  0.03970  0.61090  Biso   1.000  C
  C12      1.0000 0.26890  0.53970  0.88910  Biso   1.000  C
  H9       1.0000 0.33800  0.92140  0.43060  Biso   1.000  H
  H10      1.0000 0.66200  0.42140  0.06940  Biso   1.000  H
  H11      1.0000 0.66200  0.07860  0.56940  Biso   1.000  H
  H12      1.0000 0.33800  0.57860  0.93060  Biso   1.000  H
  C13      1.0000 0.17510  0.04780  0.41801  Biso   1.000  C
  C14      1.0000 0.82490  0.54780  0.08199  Biso   1.000  C
  C15      1.0000 0.82490  0.95220  0.58199  Biso   1.000  C
  C16      1.0000 0.17510  0.45220  0.91801  Biso   1.000  C
  C17      1.0000 0.17950  0.08400  0.51190  Biso   1.000  C
  C18      1.0000 0.82050  0.58400  0.98810  Biso   1.000  C
  C19      1.0000 0.82050  0.91600  0.48810  Biso   1.000  C
  C20      1.0000 0.17950  0.41600  0.01190  Biso   1.000  C
  C21      1.0000 0.28050  0.03470  0.58170  Biso   1.000  C
  C22      1.0000 0.71950  0.53470  0.91830  Biso   1.000  C
  C23      1.0000 0.71950  0.96530  0.41830  Biso   1.000  C
  C24      1.0000 0.28050  0.46530  0.08170  Biso   1.000  C
  H13      1.0000 0.34800  0.97620  0.56890  Biso   1.000  H
  H14      1.0000 0.65200  0.47620  0.93110  Biso   1.000  H
  H15      1.0000 0.65200  0.02380  0.43110  Biso   1.000  H
  H16      1.0000 0.34800  0.52380  0.06890  Biso   1.000  H
  C25      1.0000 0.27880  0.07320  0.66850  Biso   1.000  C
  C26      1.0000 0.72120  0.57320  0.83150  Biso   1.000  C
  C27      1.0000 0.72120  0.92680  0.33150  Biso   1.000  C
  C28      1.0000 0.27880  0.42680  0.16850  Biso   1.000  C
  H17      1.0000 0.34510  0.04130  0.71530  Biso   1.000  H
  H18      1.0000 0.65490  0.54130  0.78470  Biso   1.000  H
  H19      1.0000 0.65490  0.95870  0.28470  Biso   1.000  H
  H20      1.0000 0.34510  0.45870  0.21530  Biso   1.000  H
  C29      1.0000 0.17710  0.16040  0.68600  Biso   1.000  C
  C30      1.0000 0.82290  0.66040  0.81400  Biso   1.000  C
  C31      1.0000 0.82290  0.83960  0.31400  Biso   1.000  C
  C32      1.0000 0.17710  0.33960  0.18600  Biso   1.000  C
  H21      1.0000 0.17770  0.18580  0.74530  Biso   1.000  H
  H22      1.0000 0.82230  0.68580  0.75470  Biso   1.000  H
  H23      1.0000 0.82230  0.81420  0.25470  Biso   1.000  H
  H24      1.0000 0.17770  0.31420  0.24530  Biso   1.000  H
  C33      1.0000 0.07900  0.17130  0.53490  Biso   1.000  C
  C34      1.0000 0.92100  0.67130  0.96510  Biso   1.000  C
  C35      1.0000 0.92100  0.82870  0.46510  Biso   1.000  C
  C36      1.0000 0.07900  0.32870  0.03490  Biso   1.000  C
  C37      1.0000 0.97180  0.22240  0.46640  Biso   1.000  C
  C38      1.0000 0.02820  0.72240  0.03360  Biso   1.000  C
  C39      1.0000 0.02820  0.77760  0.53360  Biso   1.000  C
  C40      1.0000 0.97180  0.27760  0.96640  Biso   1.000  C
  H25      1.0000 0.90360  0.27870  0.48210  Biso   1.000  H
  H26      1.0000 0.09640  0.77870  0.01790  Biso   1.000  H
  H27      1.0000 0.09640  0.72130  0.51790  Biso   1.000  H
  H28      1.0000 0.90360  0.22130  0.98210  Biso   1.000  H
  C41      1.0000 0.96880  0.18960  0.37920  Biso   1.000  C
  C42      1.0000 0.03120  0.68960  0.12080  Biso   1.000  C
  C43      1.0000 0.03120  0.81040  0.62080  Biso   1.000  C
  C44      1.0000 0.96880  0.31040  0.87920  Biso   1.000  C
  H29      1.0000 0.89840  0.22380  0.33570  Biso   1.000  H
  H30      1.0000 0.10160  0.72380  0.16430  Biso   1.000  H
  H31      1.0000 0.10160  0.77620  0.66430  Biso   1.000  H
  H32      1.0000 0.89840  0.27620  0.83570  Biso   1.000  H
  C45      1.0000 0.07130  0.10350  0.35248  Biso   1.000  C
  C46      1.0000 0.92870  0.60350  0.14752  Biso   1.000  C
  C47      1.0000 0.92870  0.89650  0.64752  Biso   1.000  C
  C48      1.0000 0.07130  0.39650  0.85248  Biso   1.000  C
  C49      1.0000 0.60020  0.12680  0.11470  Biso   1.000  C
  C50      1.0000 0.39980  0.62680  0.38530  Biso   1.000  C
  C51      1.0000 0.39980  0.87320  0.88530  Biso   1.000  C
  C52      1.0000 0.60020  0.37320  0.61470  Biso   1.000  C
  C53      1.0000 0.43560  0.11200  0.09910  Biso   1.000  C
  C54      1.0000 0.56440  0.61200  0.40090  Biso   1.000  C
  C55      1.0000 0.56440  0.88800  0.90090  Biso   1.000  C
  C56      1.0000 0.43560  0.38800  0.59910  Biso   1.000  C
  H33      1.0000 0.41130  0.03070  0.09820  Biso   1.000  H
  H34      1.0000 0.58870  0.53070  0.40180  Biso   1.000  H
  H35      1.0000 0.58870  0.96930  0.90180  Biso   1.000  H
  H36      1.0000 0.41130  0.46930  0.59820  Biso   1.000  H
  H37      1.0000 0.39770  0.14620  0.04210  Biso   1.000  H
  H38      1.0000 0.60230  0.64620  0.45790  Biso   1.000  H
  H39      1.0000 0.60230  0.85380  0.95790  Biso   1.000  H
  H40      1.0000 0.39770  0.35380  0.54210  Biso   1.000  H
  H41      1.0000 0.38860  0.14940  0.14660  Biso   1.000  H
  H42      1.0000 0.61140  0.64940  0.35340  Biso   1.000  H
  H43      1.0000 0.61140  0.85060  0.85340  Biso   1.000  H
  H44      1.0000 0.38860  0.35060  0.64660  Biso   1.000  H
  F1       1.0000 0.61870  0.83510  0.12410  Biso   1.000  F
  F2       1.0000 0.38130  0.33510  0.37590  Biso   1.000  F
  F3       1.0000 0.38130  0.16490  0.87590  Biso   1.000  F
  F4       1.0000 0.61870  0.66490  0.62410  Biso   1.000  F
  F5       1.0000 0.36270  0.83040  0.11140  Biso   1.000  F
  F6       1.0000 0.63730  0.33040  0.38860  Biso   1.000  F
  F7       1.0000 0.63730  0.16960  0.88860  Biso   1.000  F
  F8       1.0000 0.36270  0.66960  0.61140  Biso   1.000  F
  F9       1.0000 0.48970  0.69274  0.04522  Biso   1.000  F
  F10      1.0000 0.51030  0.19274  0.45478  Biso   1.000  F
  F11      1.0000 0.51030  0.30726  0.95478  Biso   1.000  F
  F12      1.0000 0.48970  0.80726  0.54522  Biso   1.000  F
  F13      1.0000 0.49760  0.69750  0.19660  Biso   1.000  F
  F14      1.0000 0.50240  0.19750  0.30340  Biso   1.000  F
  F15      1.0000 0.50240  0.30250  0.80340  Biso   1.000  F
  F16      1.0000 0.49760  0.80250  0.69660  Biso   1.000  F
  B1       1.0000 0.49460  0.76280  0.12020  Biso   1.000  B
  B2       1.0000 0.50540  0.26280  0.37980  Biso   1.000  B
  B3       1.0000 0.50540  0.23720  0.87980  Biso   1.000  B
  B4       1.0000 0.49460  0.73720  0.62020  Biso   1.000  B
