data_image0
_cell_length_a       11.748
_cell_length_b       12.575
_cell_length_c       14.139
_cell_angle_alpha    115.7
_cell_angle_beta     98.81
_cell_angle_gamma    96.02

_symmetry_space_group_name_H-M    "P 1"
_symmetry_int_tables_number       1

loop_
  _symmetry_equiv_pos_as_xyz
  'x, y, z'

loop_
  _atom_site_label
  _atom_site_occupancy
  _atom_site_fract_x
  _atom_site_fract_y
  _atom_site_fract_z
  _atom_site_thermal_displace_type
  _atom_site_B_iso_or_equiv
  _atom_site_type_symbol
  Cu1      1.0000 0.84358  0.25581  0.45498  Biso   1.000  Cu
  Cu2      1.0000 0.15642  0.74419  0.54502  Biso   1.000  Cu
  Cu3      1.0000 0.79205  0.58991  0.12194  Biso   1.000  Cu
  Cu4      1.0000 0.20795  0.41009  0.87806  Biso   1.000  Cu
  N1       1.0000 0.65430  0.54550  0.18490  Biso   1.000  N
  N2       1.0000 0.34570  0.45450  0.81510  Biso   1.000  N
  N3       1.0000 0.98080  0.19240  0.46030  Biso   1.000  N
  N4       1.0000 0.01920  0.80760  0.53970  Biso   1.000  N
  N5       1.0000 0.70200  0.30410  0.43200  Biso   1.000  N
  N6       1.0000 0.29800  0.69590  0.56800  Biso   1.000  N
  N7       1.0000 0.94770  0.69990  0.22800  Biso   1.000  N
  N8       1.0000 0.05230  0.30010  0.77200  Biso   1.000  N
  N9       1.0000 0.71610  0.66940  0.03970  Biso   1.000  N
  N10      1.0000 0.28390  0.33060  0.96030  Biso   1.000  N
  N11      1.0000 0.83410  0.43320  0.02940  Biso   1.000  N
  N12      1.0000 0.16590  0.56680  0.97060  Biso   1.000  N
  C1       1.0000 0.89350  0.22200  0.94670  Biso   1.000  C
  C2       1.0000 0.10650  0.77800  0.05330  Biso   1.000  C
  C3       1.0000 0.80940  0.12290  0.87470  Biso   1.000  C
  C4       1.0000 0.19060  0.87710  0.12530  Biso   1.000  C
  H1       1.0000 0.73100  0.13110  0.85540  Biso   1.000  H
  H2       1.0000 0.26900  0.86890  0.14460  Biso   1.000  H
  C5       1.0000 0.84060  0.01170  0.83130  Biso   1.000  C
  C6       1.0000 0.15940  0.98830  0.16870  Biso   1.000  C
  H3       1.0000 0.78400  0.94270  0.78050  Biso   1.000  H
  H4       1.0000 0.21600  0.05730  0.21950  Biso   1.000  H
  C7       1.0000 0.95480  0.00110  0.86190  Biso   1.000  C
  C8       1.0000 0.04520  0.99890  0.13810  Biso   1.000  C
  H5       1.0000 0.97570  0.92400  0.83270  Biso   1.000  H
  H6       1.0000 0.02430  0.07600  0.16730  Biso   1.000  H
  C9       1.0000 0.03810  0.09940  0.93330  Biso   1.000  C
  C10      1.0000 0.96190  0.90060  0.06670  Biso   1.000  C
  H7       1.0000 0.11650  0.09090  0.95240  Biso   1.000  H
  H8       1.0000 0.88350  0.90910  0.04760  Biso   1.000  H
  C11      1.0000 0.00780  0.21130  0.97770  Biso   1.000  C
  C12      1.0000 0.99220  0.78870  0.02230  Biso   1.000  C
  H9       1.0000 0.06450  0.28000  0.02870  Biso   1.000  H
  H10      1.0000 0.93550  0.72000  0.97130  Biso   1.000  H
  C13      1.0000 0.86130  0.34080  0.99430  Biso   1.000  C
  C14      1.0000 0.13870  0.65920  0.00570  Biso   1.000  C
  C15      1.0000 0.66000  0.71880  0.00360  Biso   1.000  C
  C16      1.0000 0.34000  0.28120  0.99640  Biso   1.000  C
  C17      1.0000 0.58490  0.77790  0.96050  Biso   1.000  C
  C18      1.0000 0.41510  0.22210  0.03950  Biso   1.000  C
  C19      1.0000 0.46930  0.77840  0.97520  Biso   1.000  C
  C20      1.0000 0.53070  0.22160  0.02480  Biso   1.000  C
  H11      1.0000 0.44150  0.74270  0.01640  Biso   1.000  H
  H12      1.0000 0.55850  0.25730  0.98360  Biso   1.000  H
  C21      1.0000 0.39770  0.82980  0.93040  Biso   1.000  C
  C22      1.0000 0.60230  0.17020  0.06960  Biso   1.000  C
  H13      1.0000 0.32000  0.83100  0.94160  Biso   1.000  H
  H14      1.0000 0.68000  0.16900  0.05840  Biso   1.000  H
  C23      1.0000 0.43490  0.87960  0.86990  Biso   1.000  C
  C24      1.0000 0.56510  0.12040  0.13010  Biso   1.000  C
  H15      1.0000 0.38270  0.91380  0.83810  Biso   1.000  H
  H16      1.0000 0.61730  0.08620  0.16190  Biso   1.000  H
  C25      1.0000 0.54710  0.88100  0.85430  Biso   1.000  C
  C26      1.0000 0.45290  0.11900  0.14570  Biso   1.000  C
  H17      1.0000 0.57320  0.91700  0.81270  Biso   1.000  H
  H18      1.0000 0.42680  0.08300  0.18730  Biso   1.000  H
  C27      1.0000 0.62230  0.82930  0.89970  Biso   1.000  C
  C28      1.0000 0.37770  0.17070  0.10030  Biso   1.000  C
  H19      1.0000 0.70000  0.82940  0.88880  Biso   1.000  H
  H20      1.0000 0.30000  0.17060  0.11120  Biso   1.000  H
  C29      1.0000 0.55230  0.57690  0.16320  Biso   1.000  C
  C30      1.0000 0.44770  0.42310  0.83680  Biso   1.000  C
  H21      1.0000 0.54760  0.61920  0.12150  Biso   1.000  H
  H22      1.0000 0.45240  0.38080  0.87850  Biso   1.000  H
  C31      1.0000 0.45240  0.55230  0.19730  Biso   1.000  C
  C32      1.0000 0.54760  0.44770  0.80270  Biso   1.000  C
  H23      1.0000 0.38060  0.57260  0.17580  Biso   1.000  H
  H24      1.0000 0.61940  0.42740  0.82420  Biso   1.000  H
  C33      1.0000 0.46090  0.49850  0.26200  Biso   1.000  C
  C34      1.0000 0.53910  0.50150  0.73800  Biso   1.000  C
  H25      1.0000 0.39490  0.48320  0.28870  Biso   1.000  H
  H26      1.0000 0.60510  0.51680  0.71130  Biso   1.000  H
  C35      1.0000 0.56630  0.46480  0.29020  Biso   1.000  C
  C36      1.0000 0.43370  0.53520  0.70980  Biso   1.000  C
  C37      1.0000 0.66210  0.48840  0.24860  Biso   1.000  C
  C38      1.0000 0.33790  0.51160  0.75140  Biso   1.000  C
  C39      1.0000 0.76920  0.45550  0.27220  Biso   1.000  C
  C40      1.0000 0.23080  0.54450  0.72780  Biso   1.000  C
  H27      1.0000 0.83360  0.47440  0.24530  Biso   1.000  H
  H28      1.0000 0.16640  0.52560  0.75470  Biso   1.000  H
  C41      1.0000 0.78160  0.39660  0.33330  Biso   1.000  C
  C42      1.0000 0.21840  0.60340  0.66670  Biso   1.000  C
  H29      1.0000 0.85470  0.37530  0.34920  Biso   1.000  H
  H30      1.0000 0.14530  0.62470  0.65080  Biso   1.000  H
  C43      1.0000 0.04310  0.65380  0.23140  Biso   1.000  C
  C44      1.0000 0.95690  0.34620  0.76860  Biso   1.000  C
  H31      1.0000 0.03470  0.56910  0.19110  Biso   1.000  H
  H32      1.0000 0.96530  0.43090  0.80890  Biso   1.000  H
  C45      1.0000 0.15490  0.71880  0.28910  Biso   1.000  C
  C46      1.0000 0.84510  0.28120  0.71090  Biso   1.000  C
  H33      1.0000 0.22000  0.68000  0.28870  Biso   1.000  H
  H34      1.0000 0.78000  0.32000  0.71130  Biso   1.000  H
  C47      1.0000 0.16750  0.83850  0.34540  Biso   1.000  C
  C48      1.0000 0.83250  0.16150  0.65460  Biso   1.000  C
  H35      1.0000 0.24340  0.88540  0.38430  Biso   1.000  H
  H36      1.0000 0.75660  0.11460  0.61570  Biso   1.000  H
  C49      1.0000 0.07150  0.89520  0.34780  Biso   1.000  C
  C50      1.0000 0.92850  0.10480  0.65220  Biso   1.000  C
  C51      1.0000 0.96170  0.82100  0.28750  Biso   1.000  C
  C52      1.0000 0.03830  0.17900  0.71250  Biso   1.000  C
  C53      1.0000 0.86150  0.87630  0.28880  Biso   1.000  C
  C54      1.0000 0.13850  0.12370  0.71120  Biso   1.000  C
  H37      1.0000 0.78700  0.82690  0.24840  Biso   1.000  H
  H38      1.0000 0.21300  0.17310  0.75160  Biso   1.000  H
  C55      1.0000 0.86860  0.99640  0.34540  Biso   1.000  C
  C56      1.0000 0.13140  0.00360  0.65460  Biso   1.000  C
  H39      1.0000 0.79980  0.03010  0.34540  Biso   1.000  H
  H40      1.0000 0.20020  0.96990  0.65460  Biso   1.000  H
  C57      1.0000 0.97940  0.07160  0.40460  Biso   1.000  C
  C58      1.0000 0.02060  0.92840  0.59540  Biso   1.000  C
  C59      1.0000 0.08240  0.02410  0.40650  Biso   1.000  C
  C60      1.0000 0.91760  0.97590  0.59350  Biso   1.000  C
  C61      1.0000 0.18630  0.10520  0.46710  Biso   1.000  C
  C62      1.0000 0.81370  0.89480  0.53290  Biso   1.000  C
  H41      1.0000 0.25710  0.07570  0.47200  Biso   1.000  H
  H42      1.0000 0.74290  0.92430  0.52800  Biso   1.000  H
  C63      1.0000 0.18970  0.22590  0.51990  Biso   1.000  C
  C64      1.0000 0.81030  0.77410  0.48010  Biso   1.000  C
  H43      1.0000 0.26190  0.28110  0.55760  Biso   1.000  H
  H44      1.0000 0.73810  0.71890  0.44240  Biso   1.000  H
  C65      1.0000 0.08350  0.26510  0.51630  Biso   1.000  C
  C66      1.0000 0.91650  0.73490  0.48370  Biso   1.000  C
  H45      1.0000 0.08440  0.34860  0.55620  Biso   1.000  H
  H46      1.0000 0.91560  0.65140  0.44380  Biso   1.000  H
  C67      1.0000 0.68540  0.36670  0.37380  Biso   1.000  C
  C68      1.0000 0.31460  0.63330  0.62620  Biso   1.000  C
  C69      1.0000 0.57720  0.40100  0.35350  Biso   1.000  C
  C70      1.0000 0.42280  0.59900  0.64650  Biso   1.000  C
  C71      1.0000 0.48620  0.36770  0.39440  Biso   1.000  C
  C72      1.0000 0.51380  0.63230  0.60560  Biso   1.000  C
  H47      1.0000 0.41230  0.38960  0.38280  Biso   1.000  H
  H48      1.0000 0.58770  0.61040  0.61720  Biso   1.000  H
  C73      1.0000 0.50280  0.30500  0.45000  Biso   1.000  C
  C74      1.0000 0.49720  0.69500  0.55000  Biso   1.000  C
  H49      1.0000 0.44090  0.28260  0.47770  Biso   1.000  H
  H50      1.0000 0.55910  0.71740  0.52230  Biso   1.000  H
  C75      1.0000 0.60900  0.27340  0.46650  Biso   1.000  C
  C76      1.0000 0.39100  0.72660  0.53350  Biso   1.000  C
  H51      1.0000 0.61780  0.22730  0.50450  Biso   1.000  H
  H52      1.0000 0.38220  0.77270  0.49550  Biso   1.000  H
  P1       1.0000 0.51600  0.90610  0.32030  Biso   1.000  P
  P2       1.0000 0.48400  0.09390  0.67970  Biso   1.000  P
  F1       1.0000 0.58130  0.93770  0.24580  Biso   1.000  F
  F2       1.0000 0.41870  0.06230  0.75420  Biso   1.000  F
  F3       1.0000 0.61100  0.00450  0.42030  Biso   1.000  F
  F4       1.0000 0.38900  0.99550  0.57970  Biso   1.000  F
  F5       1.0000 0.42800  0.99510  0.33360  Biso   1.000  F
  F6       1.0000 0.57200  0.00490  0.66640  Biso   1.000  F
  F7       1.0000 0.60650  0.81690  0.31200  Biso   1.000  F
  F8       1.0000 0.39350  0.18310  0.68800  Biso   1.000  F
  F9       1.0000 0.42700  0.80500  0.21490  Biso   1.000  F
  F10      1.0000 0.57300  0.19500  0.78510  Biso   1.000  F
  F11      1.0000 0.46490  0.84810  0.38280  Biso   1.000  F
  F12      1.0000 0.53510  0.15190  0.61720  Biso   1.000  F
  P3       1.0000 0.12190  0.39510  0.31140  Biso   1.000  P
  P4       1.0000 0.87810  0.60490  0.68860  Biso   1.000  P
  F13      1.0000 0.19620  0.47770  0.28540  Biso   1.000  F
  F14      1.0000 0.80380  0.52230  0.71460  Biso   1.000  F
  F15      1.0000 0.21820  0.40150  0.40120  Biso   1.000  F
  F16      1.0000 0.78180  0.59850  0.59880  Biso   1.000  F
  F17      1.0000 0.06760  0.49540  0.39080  Biso   1.000  F
  F18      1.0000 0.93240  0.50460  0.60920  Biso   1.000  F
  F19      1.0000 0.17910  0.29540  0.22710  Biso   1.000  F
  F20      1.0000 0.82090  0.70460  0.77290  Biso   1.000  F
  F21      1.0000 0.02440  0.38530  0.21730  Biso   1.000  F
  F22      1.0000 0.97560  0.61470  0.78270  Biso   1.000  F
  F23      1.0000 0.03630  0.29160  0.30660  Biso   1.000  F
  F24      1.0000 0.96370  0.70840  0.69340  Biso   1.000  F
