data_image0
_cell_length_a       11.3378
_cell_length_b       12.4612
_cell_length_c       13.9045
_cell_angle_alpha    115.909
_cell_angle_beta     100.87
_cell_angle_gamma    92.052

_symmetry_space_group_name_H-M    "P 1"
_symmetry_int_tables_number       1

loop_
  _symmetry_equiv_pos_as_xyz
  'x, y, z'

loop_
  _atom_site_label
  _atom_site_occupancy
  _atom_site_fract_x
  _atom_site_fract_y
  _atom_site_fract_z
  _atom_site_thermal_displace_type
  _atom_site_B_iso_or_equiv
  _atom_site_type_symbol
  Cu1      1.0000 0.33008  0.76569  0.95802  Biso   1.000  Cu
  Cu2      1.0000 0.66992  0.23431  0.04198  Biso   1.000  Cu
  Cu3      1.0000 0.28785  0.09655  0.62038  Biso   1.000  Cu
  Cu4      1.0000 0.71215  0.90345  0.37962  Biso   1.000  Cu
  N1       1.0000 0.44520  0.19890  0.72970  Biso   1.000  N
  N2       1.0000 0.55480  0.80110  0.27030  Biso   1.000  N
  N3       1.0000 0.47520  0.69710  0.95790  Biso   1.000  N
  N4       1.0000 0.52480  0.30290  0.04210  Biso   1.000  N
  N5       1.0000 0.17820  0.81690  0.93140  Biso   1.000  N
  N6       1.0000 0.82180  0.18310  0.06860  Biso   1.000  N
  N7       1.0000 0.14270  0.06740  0.68200  Biso   1.000  N
  N8       1.0000 0.85730  0.93260  0.31800  Biso   1.000  N
  N9       1.0000 0.33390  0.93410  0.53420  Biso   1.000  N
  N10      1.0000 0.66610  0.06590  0.46580  Biso   1.000  N
  N11      1.0000 0.21300  0.17880  0.53170  Biso   1.000  N
  N12      1.0000 0.78700  0.82120  0.46830  Biso   1.000  N
  C1       1.0000 0.54250  0.14550  0.73680  Biso   1.000  C
  C2       1.0000 0.45750  0.85450  0.26320  Biso   1.000  C
  H1       1.0000 0.53390  0.06010  0.69840  Biso   1.000  H
  H2       1.0000 0.46610  0.93990  0.30160  Biso   1.000  H
  C3       1.0000 0.65710  0.20740  0.79740  Biso   1.000  C
  C4       1.0000 0.34290  0.79260  0.20260  Biso   1.000  C
  H3       1.0000 0.72400  0.16410  0.79940  Biso   1.000  H
  H4       1.0000 0.27600  0.83590  0.20060  Biso   1.000  H
  C5       1.0000 0.67380  0.33110  0.85460  Biso   1.000  C
  C6       1.0000 0.32620  0.66890  0.14540  Biso   1.000  C
  H5       1.0000 0.75170  0.37400  0.89600  Biso   1.000  H
  H6       1.0000 0.24830  0.62600  0.10400  Biso   1.000  H
  C7       1.0000 0.57270  0.39210  0.85010  Biso   1.000  C
  C8       1.0000 0.42730  0.60790  0.14990  Biso   1.000  C
  C9       1.0000 0.45930  0.32220  0.78870  Biso   1.000  C
  C10      1.0000 0.54070  0.67780  0.21130  Biso   1.000  C
  C11      1.0000 0.35400  0.38050  0.78760  Biso   1.000  C
  C12      1.0000 0.64600  0.61950  0.21240  Biso   1.000  C
  H7       1.0000 0.27740  0.33370  0.74740  Biso   1.000  H
  H8       1.0000 0.72260  0.66630  0.25260  Biso   1.000  H
  C13      1.0000 0.36110  0.50130  0.84260  Biso   1.000  C
  C14      1.0000 0.63890  0.49870  0.15740  Biso   1.000  C
  H9       1.0000 0.28910  0.53790  0.84080  Biso   1.000  H
  H10      1.0000 0.71090  0.46210  0.15920  Biso   1.000  H
  C15      1.0000 0.47310  0.57470  0.90300  Biso   1.000  C
  C16      1.0000 0.52690  0.42530  0.09700  Biso   1.000  C
  C17      1.0000 0.58100  0.52040  0.90650  Biso   1.000  C
  C18      1.0000 0.41900  0.47960  0.09350  Biso   1.000  C
  C19      1.0000 0.69010  0.59680  0.96890  Biso   1.000  C
  C20      1.0000 0.30990  0.40320  0.03110  Biso   1.000  C
  H11      1.0000 0.76380  0.56400  0.97540  Biso   1.000  H
  H12      1.0000 0.23620  0.43600  0.02460  Biso   1.000  H
  C21      1.0000 0.68930  0.72030  0.02080  Biso   1.000  C
  C22      1.0000 0.31070  0.27970  0.97920  Biso   1.000  C
  H13      1.0000 0.76270  0.77320  0.06110  Biso   1.000  H
  H14      1.0000 0.23730  0.22680  0.93890  Biso   1.000  H
  C23      1.0000 0.58030  0.76490  0.01280  Biso   1.000  C
  C24      1.0000 0.41970  0.23510  0.98720  Biso   1.000  C
  H15      1.0000 0.58090  0.84970  0.04900  Biso   1.000  H
  H16      1.0000 0.41910  0.15030  0.95100  Biso   1.000  H
  C25      1.0000 0.08090  0.78430  0.95900  Biso   1.000  C
  C26      1.0000 0.91910  0.21570  0.04100  Biso   1.000  C
  H17      1.0000 0.09000  0.73940  0.99970  Biso   1.000  H
  H18      1.0000 0.91000  0.26060  0.00030  Biso   1.000  H
  C27      1.0000 0.96760  0.81360  0.93020  Biso   1.000  C
  C28      1.0000 0.03240  0.18640  0.06980  Biso   1.000  C
  H19      1.0000 0.90010  0.78750  0.94970  Biso   1.000  H
  H20      1.0000 0.09990  0.21250  0.05030  Biso   1.000  H
  C29      1.0000 0.95290  0.87980  0.87420  Biso   1.000  C
  C30      1.0000 0.04710  0.12020  0.12580  Biso   1.000  C
  H21      1.0000 0.87540  0.90170  0.85620  Biso   1.000  H
  H22      1.0000 0.12460  0.09830  0.14380  Biso   1.000  H
  C31      1.0000 0.05140  0.91640  0.84260  Biso   1.000  C
  C32      1.0000 0.94860  0.08360  0.15740  Biso   1.000  C
  C33      1.0000 0.16490  0.88300  0.87370  Biso   1.000  C
  C34      1.0000 0.83510  0.11700  0.12630  Biso   1.000  C
  C35      1.0000 0.26700  0.91200  0.83970  Biso   1.000  C
  C36      1.0000 0.73300  0.08800  0.16030  Biso   1.000  C
  H23      1.0000 0.34290  0.88930  0.86110  Biso   1.000  H
  H24      1.0000 0.65710  0.11070  0.13890  Biso   1.000  H
  C37      1.0000 0.25860  0.97120  0.77770  Biso   1.000  C
  C38      1.0000 0.74140  0.02880  0.22230  Biso   1.000  C
  H25      1.0000 0.32840  0.98950  0.75630  Biso   1.000  H
  H26      1.0000 0.67160  0.01050  0.24370  Biso   1.000  H
  C39      1.0000 0.14530  0.00650  0.74400  Biso   1.000  C
  C40      1.0000 0.85470  0.99350  0.25600  Biso   1.000  C
  C41      1.0000 0.04370  0.98260  0.77900  Biso   1.000  C
  C42      1.0000 0.95630  0.01740  0.22100  Biso   1.000  C
  C43      1.0000 0.93510  0.02230  0.74650  Biso   1.000  C
  C44      1.0000 0.06490  0.97770  0.25350  Biso   1.000  C
  H27      1.0000 0.86400  0.00810  0.76830  Biso   1.000  H
  H28      1.0000 0.13600  0.99190  0.23170  Biso   1.000  H
  C45      1.0000 0.93310  0.08110  0.68370  Biso   1.000  C
  C46      1.0000 0.06690  0.91890  0.31630  Biso   1.000  C
  H29      1.0000 0.86010  0.10690  0.66030  Biso   1.000  H
  H30      1.0000 0.13990  0.89310  0.33970  Biso   1.000  H
  C47      1.0000 0.03830  0.10320  0.65390  Biso   1.000  C
  C48      1.0000 0.96170  0.89680  0.34610  Biso   1.000  C
  H31      1.0000 0.03550  0.14600  0.61140  Biso   1.000  H
  H32      1.0000 0.96450  0.85400  0.38860  Biso   1.000  H
  C49      1.0000 0.36090  0.83970  0.49720  Biso   1.000  C
  C50      1.0000 0.63910  0.16030  0.50280  Biso   1.000  C
  C51      1.0000 0.39380  0.71810  0.44820  Biso   1.000  C
  C52      1.0000 0.60620  0.28190  0.55180  Biso   1.000  C
  C53      1.0000 0.51170  0.70020  0.47840  Biso   1.000  C
  C54      1.0000 0.48830  0.29980  0.52160  Biso   1.000  C
  H33      1.0000 0.57090  0.76550  0.53090  Biso   1.000  H
  H34      1.0000 0.42910  0.23450  0.46910  Biso   1.000  H
  C55      1.0000 0.54130  0.58400  0.42990  Biso   1.000  C
  C56      1.0000 0.45870  0.41600  0.57010  Biso   1.000  C
  H35      1.0000 0.62160  0.56980  0.45070  Biso   1.000  H
  H36      1.0000 0.37840  0.43020  0.54930  Biso   1.000  H
  C57      1.0000 0.45680  0.48900  0.35230  Biso   1.000  C
  C58      1.0000 0.54320  0.51100  0.64770  Biso   1.000  C
  H37      1.0000 0.47900  0.41030  0.31990  Biso   1.000  H
  H38      1.0000 0.52100  0.58970  0.68010  Biso   1.000  H
  C59      1.0000 0.33920  0.50880  0.32190  Biso   1.000  C
  C60      1.0000 0.66080  0.49120  0.67810  Biso   1.000  C
  H39      1.0000 0.28070  0.44390  0.26760  Biso   1.000  H
  H40      1.0000 0.71930  0.55610  0.73240  Biso   1.000  H
  C61      1.0000 0.30710  0.62380  0.37080  Biso   1.000  C
  C62      1.0000 0.69290  0.37620  0.62920  Biso   1.000  C
  H41      1.0000 0.22620  0.63780  0.35130  Biso   1.000  H
  H42      1.0000 0.77380  0.36220  0.64870  Biso   1.000  H
  C63      1.0000 0.15220  0.22800  0.49320  Biso   1.000  C
  C64      1.0000 0.84780  0.77200  0.50680  Biso   1.000  C
  C65      1.0000 0.07370  0.28810  0.44530  Biso   1.000  C
  C66      1.0000 0.92630  0.71190  0.55470  Biso   1.000  C
  C67      1.0000 0.95580  0.28920  0.45650  Biso   1.000  C
  C68      1.0000 0.04420  0.71080  0.54350  Biso   1.000  C
  H43      1.0000 0.92800  0.25290  0.49700  Biso   1.000  H
  H44      1.0000 0.07200  0.74710  0.50300  Biso   1.000  H
  C69      1.0000 0.87750  0.34430  0.40770  Biso   1.000  C
  C70      1.0000 0.12250  0.65570  0.59230  Biso   1.000  C
  H45      1.0000 0.79530  0.34370  0.41340  Biso   1.000  H
  H46      1.0000 0.20470  0.65630  0.58660  Biso   1.000  H
  C71      1.0000 0.91860  0.39940  0.35160  Biso   1.000  C
  C72      1.0000 0.08140  0.60060  0.64840  Biso   1.000  C
  H47      1.0000 0.86530  0.43830  0.31980  Biso   1.000  H
  H48      1.0000 0.13470  0.56170  0.68020  Biso   1.000  H
  C73      1.0000 0.03810  0.39830  0.34110  Biso   1.000  C
  C74      1.0000 0.96190  0.60170  0.65890  Biso   1.000  C
  H49      1.0000 0.06650  0.43690  0.30260  Biso   1.000  H
  H50      1.0000 0.93350  0.56310  0.69740  Biso   1.000  H
  C75      1.0000 0.11650  0.34060  0.38710  Biso   1.000  C
  C76      1.0000 0.88350  0.65940  0.61290  Biso   1.000  C
  H51      1.0000 0.19760  0.33750  0.37850  Biso   1.000  H
  H52      1.0000 0.80240  0.66250  0.62150  Biso   1.000  H
  F1       1.0000 0.42710  0.00690  0.11500  Biso   1.000  F
  F2       1.0000 0.57290  0.99310  0.88500  Biso   1.000  F
  F3       1.0000 0.33380  0.08070  0.25680  Biso   1.000  F
  F4       1.0000 0.66620  0.91930  0.74320  Biso   1.000  F
  F5       1.0000 0.50420  0.17970  0.26090  Biso   1.000  F
  F6       1.0000 0.49580  0.82030  0.73910  Biso   1.000  F
  F7       1.0000 0.33220  0.17020  0.14960  Biso   1.000  F
  F8       1.0000 0.66780  0.82980  0.85040  Biso   1.000  F
  B1       1.0000 0.39770  0.11000  0.19460  Biso   1.000  B
  B2       1.0000 0.60230  0.89000  0.80540  Biso   1.000  B
  F9       1.0000 0.97530  0.62530  0.27140  Biso   1.000  F
  F10      1.0000 0.02470  0.37470  0.72860  Biso   1.000  F
  F11      1.0000 0.99870  0.65510  0.12700  Biso   1.000  F
  F12      1.0000 0.00130  0.34490  0.87300  Biso   1.000  F
  F13      1.0000 0.88810  0.48750  0.09840  Biso   1.000  F
  F14      1.0000 0.11190  0.51250  0.90160  Biso   1.000  F
  F15      1.0000 0.08970  0.51110  0.15810  Biso   1.000  F
  F16      1.0000 0.91030  0.48890  0.84190  Biso   1.000  F
  B3       1.0000 0.98880  0.57170  0.16230  Biso   1.000  B
  B4       1.0000 0.01120  0.42830  0.83770  Biso   1.000  B
