data_image0
_cell_length_a       14.145
_cell_length_b       8.911
_cell_length_c       13.211
_cell_angle_alpha    104.29
_cell_angle_beta     90
_cell_angle_gamma    90

_symmetry_space_group_name_H-M    "P 1"
_symmetry_int_tables_number       1

loop_
  _symmetry_equiv_pos_as_xyz
  'x, y, z'

loop_
  _atom_site_label
  _atom_site_occupancy
  _atom_site_fract_x
  _atom_site_fract_y
  _atom_site_fract_z
  _atom_site_thermal_displace_type
  _atom_site_B_iso_or_equiv
  _atom_site_type_symbol
  Br1      1.0000 0.56340  0.42180  0.41720  Biso   1.000  Br
  Br2      1.0000 0.06340  0.57820  0.08280  Biso   1.000  Br
  Br3      1.0000 0.43660  0.57820  0.58280  Biso   1.000  Br
  Br4      1.0000 0.93660  0.42180  0.91720  Biso   1.000  Br
  Cu1      1.0000 0.51940  0.32830  0.57340  Biso   1.000  Cu
  Cu2      1.0000 0.01940  0.67170  0.92660  Biso   1.000  Cu
  Cu3      1.0000 0.48060  0.67170  0.42660  Biso   1.000  Cu
  Cu4      1.0000 0.98060  0.32830  0.07340  Biso   1.000  Cu
  P1       1.0000 0.45280  0.09260  0.53757  Biso   1.000  P
  P2       1.0000 0.95280  0.90740  0.96243  Biso   1.000  P
  P3       1.0000 0.54720  0.90740  0.46243  Biso   1.000  P
  P4       1.0000 0.04720  0.09260  0.03757  Biso   1.000  P
  N1       1.0000 0.60990  0.36700  0.80930  Biso   1.000  N
  N2       1.0000 0.10990  0.63300  0.69070  Biso   1.000  N
  N3       1.0000 0.39010  0.63300  0.19070  Biso   1.000  N
  N4       1.0000 0.89010  0.36700  0.30930  Biso   1.000  N
  N5       1.0000 0.70810  0.51350  0.23260  Biso   1.000  N
  N6       1.0000 0.20810  0.48650  0.26740  Biso   1.000  N
  N7       1.0000 0.29190  0.48650  0.76740  Biso   1.000  N
  N8       1.0000 0.79190  0.51350  0.73260  Biso   1.000  N
  C1       1.0000 0.26430  0.12710  0.49720  Biso   1.000  C
  C2       1.0000 0.76430  0.87290  0.00280  Biso   1.000  C
  C3       1.0000 0.73570  0.87290  0.50280  Biso   1.000  C
  C4       1.0000 0.23570  0.12710  0.99720  Biso   1.000  C
  C5       1.0000 0.26780  0.91960  0.30080  Biso   1.000  C
  C6       1.0000 0.76780  0.08040  0.19920  Biso   1.000  C
  C7       1.0000 0.73220  0.08040  0.69920  Biso   1.000  C
  C8       1.0000 0.23220  0.91960  0.80080  Biso   1.000  C
  C9       1.0000 0.18200  0.09790  0.43750  Biso   1.000  C
  C10      1.0000 0.68200  0.90210  0.06250  Biso   1.000  C
  C11      1.0000 0.81800  0.90210  0.56250  Biso   1.000  C
  C12      1.0000 0.31800  0.09790  0.93750  Biso   1.000  C
  C13      1.0000 0.18370  0.99420  0.33930  Biso   1.000  C
  C14      1.0000 0.68370  0.00580  0.16070  Biso   1.000  C
  C15      1.0000 0.81630  0.00580  0.66070  Biso   1.000  C
  C16      1.0000 0.31630  0.99420  0.83930  Biso   1.000  C
  C17      1.0000 0.47840  0.06220  0.66430  Biso   1.000  C
  C18      1.0000 0.97840  0.93780  0.83570  Biso   1.000  C
  C19      1.0000 0.52160  0.93780  0.33570  Biso   1.000  C
  C20      1.0000 0.02160  0.06220  0.16430  Biso   1.000  C
  C21      1.0000 0.47920  0.18600  0.75270  Biso   1.000  C
  C22      1.0000 0.97920  0.81400  0.74730  Biso   1.000  C
  C23      1.0000 0.52080  0.81400  0.24730  Biso   1.000  C
  C24      1.0000 0.02080  0.18600  0.25270  Biso   1.000  C
  C25      1.0000 0.49730  0.91250  0.67370  Biso   1.000  C
  C26      1.0000 0.99730  0.08750  0.82630  Biso   1.000  C
  C27      1.0000 0.50270  0.08750  0.32630  Biso   1.000  C
  C28      1.0000 0.00270  0.91250  0.17370  Biso   1.000  C
  C29      1.0000 0.49910  0.16040  0.85050  Biso   1.000  C
  C30      1.0000 0.99910  0.83960  0.64950  Biso   1.000  C
  C31      1.0000 0.50090  0.83960  0.14950  Biso   1.000  C
  C32      1.0000 0.00090  0.16040  0.35050  Biso   1.000  C
  C33      1.0000 0.51730  0.88690  0.77150  Biso   1.000  C
  C34      1.0000 0.01730  0.11310  0.72850  Biso   1.000  C
  C35      1.0000 0.48270  0.11310  0.22850  Biso   1.000  C
  C36      1.0000 0.98270  0.88690  0.27150  Biso   1.000  C
  C37      1.0000 0.51810  0.01080  0.85990  Biso   1.000  C
  C38      1.0000 0.01810  0.98920  0.64010  Biso   1.000  C
  C39      1.0000 0.48190  0.98920  0.14010  Biso   1.000  C
  C40      1.0000 0.98190  0.01080  0.35990  Biso   1.000  C
  C41      1.0000 0.58650  0.35310  0.72390  Biso   1.000  C
  C42      1.0000 0.08650  0.64690  0.77610  Biso   1.000  C
  C43      1.0000 0.41350  0.64690  0.27610  Biso   1.000  C
  C44      1.0000 0.91350  0.35310  0.22390  Biso   1.000  C
  C45      1.0000 0.63570  0.39600  0.91490  Biso   1.000  C
  C46      1.0000 0.13570  0.60400  0.58510  Biso   1.000  C
  C47      1.0000 0.36430  0.60400  0.08510  Biso   1.000  C
  C48      1.0000 0.86430  0.39600  0.41490  Biso   1.000  C
  C49      1.0000 0.67190  0.28160  0.95960  Biso   1.000  C
  C50      1.0000 0.17190  0.71840  0.54040  Biso   1.000  C
  C51      1.0000 0.32810  0.71840  0.04040  Biso   1.000  C
  C52      1.0000 0.82810  0.28160  0.45960  Biso   1.000  C
  C53      1.0000 0.69640  0.31820  0.06520  Biso   1.000  C
  C54      1.0000 0.19640  0.68180  0.43480  Biso   1.000  C
  C55      1.0000 0.30360  0.68180  0.93480  Biso   1.000  C
  C56      1.0000 0.80360  0.31820  0.56520  Biso   1.000  C
  C57      1.0000 0.68480  0.46900  0.12600  Biso   1.000  C
  C58      1.0000 0.18480  0.53100  0.37400  Biso   1.000  C
  C59      1.0000 0.31520  0.53100  0.87400  Biso   1.000  C
  C60      1.0000 0.81520  0.46900  0.62600  Biso   1.000  C
  C61      1.0000 0.64860  0.58330  0.08120  Biso   1.000  C
  C62      1.0000 0.14860  0.41670  0.41880  Biso   1.000  C
  C63      1.0000 0.35140  0.41670  0.91880  Biso   1.000  C
  C64      1.0000 0.85140  0.58330  0.58120  Biso   1.000  C
  C65      1.0000 0.62400  0.54680  0.97570  Biso   1.000  C
  C66      1.0000 0.12400  0.45320  0.52430  Biso   1.000  C
  C67      1.0000 0.37600  0.45320  0.02430  Biso   1.000  C
  C68      1.0000 0.87600  0.54680  0.47570  Biso   1.000  C
  C69      1.0000 0.34830  0.05260  0.45880  Biso   1.000  C
  C70      1.0000 0.84830  0.94740  0.04120  Biso   1.000  C
  C71      1.0000 0.65170  0.94740  0.54120  Biso   1.000  C
  C72      1.0000 0.15170  0.05260  0.95880  Biso   1.000  C
  C73      1.0000 0.35010  0.94880  0.36060  Biso   1.000  C
  C74      1.0000 0.85010  0.05120  0.13940  Biso   1.000  C
  C75      1.0000 0.64990  0.05120  0.63940  Biso   1.000  C
  C76      1.0000 0.14990  0.94880  0.86060  Biso   1.000  C
  C77      1.0000 0.72440  0.56240  0.31960  Biso   1.000  C
  C78      1.0000 0.22440  0.43760  0.18040  Biso   1.000  C
  C79      1.0000 0.27560  0.43760  0.68040  Biso   1.000  C
  C80      1.0000 0.77560  0.56240  0.81960  Biso   1.000  C
  H1       1.0000 0.40820  0.89710  0.33410  Biso   1.000  H
  H2       1.0000 0.90820  0.10290  0.16590  Biso   1.000  H
  H3       1.0000 0.59180  0.10290  0.66590  Biso   1.000  H
  H4       1.0000 0.09180  0.89710  0.83410  Biso   1.000  H
  H5       1.0000 0.49680  0.82680  0.61260  Biso   1.000  H
  H6       1.0000 0.99680  0.17320  0.88740  Biso   1.000  H
  H7       1.0000 0.50320  0.17320  0.38740  Biso   1.000  H
  H8       1.0000 0.00320  0.82680  0.11260  Biso   1.000  H
  H9       1.0000 0.26310  0.19890  0.56510  Biso   1.000  H
  H10      1.0000 0.76310  0.80110  0.93490  Biso   1.000  H
  H11      1.0000 0.73690  0.80110  0.43490  Biso   1.000  H
  H12      1.0000 0.23690  0.19890  0.06510  Biso   1.000  H
  H13      1.0000 0.46580  0.28940  0.74620  Biso   1.000  H
  H14      1.0000 0.96580  0.71060  0.75380  Biso   1.000  H
  H15      1.0000 0.53420  0.71060  0.25380  Biso   1.000  H
  H16      1.0000 0.03420  0.28940  0.24620  Biso   1.000  H
  H17      1.0000 0.59900  0.62580  0.94480  Biso   1.000  H
  H18      1.0000 0.09900  0.37420  0.55520  Biso   1.000  H
  H19      1.0000 0.40100  0.37420  0.05520  Biso   1.000  H
  H20      1.0000 0.90100  0.62580  0.44480  Biso   1.000  H
  H21      1.0000 0.64050  0.68760  0.12330  Biso   1.000  H
  H22      1.0000 0.14050  0.31240  0.37670  Biso   1.000  H
  H23      1.0000 0.35950  0.31240  0.87670  Biso   1.000  H
  H24      1.0000 0.85950  0.68760  0.62330  Biso   1.000  H
  H25      1.0000 0.49960  0.24610  0.91160  Biso   1.000  H
  H26      1.0000 0.99960  0.75390  0.58840  Biso   1.000  H
  H27      1.0000 0.50040  0.75390  0.08840  Biso   1.000  H
  H28      1.0000 0.00040  0.24610  0.41160  Biso   1.000  H
  H29      1.0000 0.53050  0.78350  0.77800  Biso   1.000  H
  H30      1.0000 0.03050  0.21650  0.72200  Biso   1.000  H
  H31      1.0000 0.46950  0.21650  0.22200  Biso   1.000  H
  H32      1.0000 0.96950  0.78350  0.27800  Biso   1.000  H
  H33      1.0000 0.68000  0.17730  0.91750  Biso   1.000  H
  H34      1.0000 0.18000  0.82270  0.58250  Biso   1.000  H
  H35      1.0000 0.32000  0.82270  0.08250  Biso   1.000  H
  H36      1.0000 0.82000  0.17730  0.41750  Biso   1.000  H
  H37      1.0000 0.12390  0.14950  0.46400  Biso   1.000  H
  H38      1.0000 0.62390  0.85050  0.03600  Biso   1.000  H
  H39      1.0000 0.87610  0.85050  0.53600  Biso   1.000  H
  H40      1.0000 0.37610  0.14950  0.96400  Biso   1.000  H
  H41      1.0000 0.12670  0.97400  0.29790  Biso   1.000  H
  H42      1.0000 0.62670  0.02600  0.20210  Biso   1.000  H
  H43      1.0000 0.87330  0.02600  0.70210  Biso   1.000  H
  H44      1.0000 0.37330  0.97400  0.79790  Biso   1.000  H
  H45      1.0000 0.72150  0.23910  0.09610  Biso   1.000  H
  H46      1.0000 0.22150  0.76090  0.40390  Biso   1.000  H
  H47      1.0000 0.27850  0.76090  0.90390  Biso   1.000  H
  H48      1.0000 0.77850  0.23910  0.59610  Biso   1.000  H
  H49      1.0000 0.26900  0.84780  0.23290  Biso   1.000  H
  H50      1.0000 0.76900  0.15220  0.26710  Biso   1.000  H
  H51      1.0000 0.73100  0.15220  0.76710  Biso   1.000  H
  H52      1.0000 0.23100  0.84780  0.73290  Biso   1.000  H
  H53      1.0000 0.53190  0.99310  0.92750  Biso   1.000  H
  H54      1.0000 0.03190  0.00690  0.57250  Biso   1.000  H
  H55      1.0000 0.46810  0.00690  0.07250  Biso   1.000  H
  H56      1.0000 0.96810  0.99310  0.42750  Biso   1.000  H
