data_image0
_cell_length_a       7.3922
_cell_length_b       20.8097
_cell_length_c       25.4127
_cell_angle_alpha    90
_cell_angle_beta     92.068
_cell_angle_gamma    90

_symmetry_space_group_name_H-M    "P 1"
_symmetry_int_tables_number       1

loop_
  _symmetry_equiv_pos_as_xyz
  'x, y, z'

loop_
  _atom_site_label
  _atom_site_occupancy
  _atom_site_fract_x
  _atom_site_fract_y
  _atom_site_fract_z
  _atom_site_thermal_displace_type
  _atom_site_B_iso_or_equiv
  _atom_site_type_symbol
  N1       1.0000 0.54970  0.84660  0.03810  Biso   1.000  N
  N2       1.0000 0.95030  0.34660  0.46190  Biso   1.000  N
  N3       1.0000 0.45030  0.15340  0.96190  Biso   1.000  N
  N4       1.0000 0.04970  0.65340  0.53810  Biso   1.000  N
  N5       1.0000 0.49520  0.20860  0.48290  Biso   1.000  N
  N6       1.0000 0.00480  0.70860  0.01710  Biso   1.000  N
  N7       1.0000 0.50480  0.79140  0.51710  Biso   1.000  N
  N8       1.0000 0.99520  0.29140  0.98290  Biso   1.000  N
  N9       1.0000 0.55330  0.55510  0.17850  Biso   1.000  N
  N10      1.0000 0.94670  0.05510  0.32150  Biso   1.000  N
  N11      1.0000 0.44670  0.44490  0.82150  Biso   1.000  N
  N12      1.0000 0.05330  0.94490  0.67850  Biso   1.000  N
  N13      1.0000 0.41480  0.45040  0.29000  Biso   1.000  N
  N14      1.0000 0.08520  0.95040  0.21000  Biso   1.000  N
  N15      1.0000 0.58520  0.54960  0.71000  Biso   1.000  N
  N16      1.0000 0.91480  0.04960  0.79000  Biso   1.000  N
  C1       1.0000 0.47250  0.61320  0.10210  Biso   1.000  C
  C2       1.0000 0.02750  0.11320  0.39790  Biso   1.000  C
  C3       1.0000 0.52750  0.38680  0.89790  Biso   1.000  C
  C4       1.0000 0.97250  0.88680  0.60210  Biso   1.000  C
  H1       1.0000 0.41640  0.61430  0.06870  Biso   1.000  H
  H2       1.0000 0.08360  0.11430  0.43130  Biso   1.000  H
  H3       1.0000 0.58360  0.38570  0.93130  Biso   1.000  H
  H4       1.0000 0.91640  0.88570  0.56870  Biso   1.000  H
  C5       1.0000 0.47490  0.55730  0.13010  Biso   1.000  C
  C6       1.0000 0.02510  0.05730  0.36990  Biso   1.000  C
  C7       1.0000 0.52510  0.44270  0.86990  Biso   1.000  C
  C8       1.0000 0.97490  0.94270  0.63010  Biso   1.000  C
  H5       1.0000 0.42180  0.52060  0.11560  Biso   1.000  H
  H6       1.0000 0.07820  0.02060  0.38440  Biso   1.000  H
  H7       1.0000 0.57820  0.47940  0.88440  Biso   1.000  H
  H8       1.0000 0.92180  0.97940  0.61560  Biso   1.000  H
  C9       1.0000 0.55410  0.84530  0.08990  Biso   1.000  C
  C10      1.0000 0.94590  0.34530  0.41010  Biso   1.000  C
  C11      1.0000 0.44590  0.15470  0.91010  Biso   1.000  C
  C12      1.0000 0.05410  0.65470  0.58990  Biso   1.000  C
  H9       1.0000 0.55580  0.88430  0.10780  Biso   1.000  H
  H10      1.0000 0.94420  0.38430  0.39220  Biso   1.000  H
  H11      1.0000 0.44420  0.11570  0.89220  Biso   1.000  H
  H12      1.0000 0.05580  0.61570  0.60780  Biso   1.000  H
  C13      1.0000 0.55290  0.66900  0.12270  Biso   1.000  C
  C14      1.0000 0.94710  0.16900  0.37730  Biso   1.000  C
  C15      1.0000 0.44710  0.33100  0.87730  Biso   1.000  C
  C16      1.0000 0.05290  0.83100  0.62270  Biso   1.000  C
  C17      1.0000 0.54340  0.49480  0.20970  Biso   1.000  C
  C18      1.0000 0.95660  0.99480  0.29030  Biso   1.000  C
  C19      1.0000 0.45660  0.50520  0.79030  Biso   1.000  C
  C20      1.0000 0.04340  0.00520  0.70970  Biso   1.000  C
  H13      1.0000 0.66090  0.48530  0.22610  Biso   1.000  H
  H14      1.0000 0.83910  0.98530  0.27390  Biso   1.000  H
  H15      1.0000 0.33910  0.51470  0.77390  Biso   1.000  H
  H16      1.0000 0.16090  0.01470  0.72610  Biso   1.000  H
  H17      1.0000 0.50890  0.45920  0.18680  Biso   1.000  H
  H18      1.0000 0.99110  0.95920  0.31320  Biso   1.000  H
  H19      1.0000 0.49110  0.54080  0.81320  Biso   1.000  H
  H20      1.0000 0.00890  0.04080  0.68680  Biso   1.000  H
  C21      1.0000 0.54900  0.73010  0.09340  Biso   1.000  C
  C22      1.0000 0.95100  0.23010  0.40660  Biso   1.000  C
  C23      1.0000 0.45100  0.26990  0.90660  Biso   1.000  C
  C24      1.0000 0.04900  0.76990  0.59340  Biso   1.000  C
  C25      1.0000 0.55630  0.78950  0.11900  Biso   1.000  C
  C26      1.0000 0.94370  0.28950  0.38100  Biso   1.000  C
  C27      1.0000 0.44370  0.21050  0.88100  Biso   1.000  C
  C28      1.0000 0.05630  0.71050  0.61900  Biso   1.000  C
  H21      1.0000 0.56270  0.79130  0.15560  Biso   1.000  H
  H22      1.0000 0.93730  0.29130  0.34440  Biso   1.000  H
  H23      1.0000 0.43730  0.20870  0.84440  Biso   1.000  H
  H24      1.0000 0.06270  0.70870  0.65560  Biso   1.000  H
  C29      1.0000 0.48380  0.19360  0.43200  Biso   1.000  C
  C30      1.0000 0.01620  0.69360  0.06800  Biso   1.000  C
  C31      1.0000 0.51620  0.80640  0.56800  Biso   1.000  C
  C32      1.0000 0.98380  0.30640  0.93200  Biso   1.000  C
  H25      1.0000 0.49500  0.15070  0.42260  Biso   1.000  H
  H26      1.0000 0.00500  0.65070  0.07740  Biso   1.000  H
  H27      1.0000 0.50500  0.84930  0.57740  Biso   1.000  H
  H28      1.0000 0.99500  0.34930  0.92260  Biso   1.000  H
  C33      1.0000 0.40640  0.50320  0.25110  Biso   1.000  C
  C34      1.0000 0.09360  0.00320  0.24890  Biso   1.000  C
  C35      1.0000 0.59360  0.49680  0.74890  Biso   1.000  C
  C36      1.0000 0.90640  0.99680  0.75110  Biso   1.000  C
  H29      1.0000 0.42760  0.54380  0.26910  Biso   1.000  H
  H30      1.0000 0.07240  0.04380  0.23090  Biso   1.000  H
  H31      1.0000 0.57240  0.45620  0.73090  Biso   1.000  H
  H32      1.0000 0.92760  0.95620  0.76910  Biso   1.000  H
  H33      1.0000 0.28630  0.50460  0.23450  Biso   1.000  H
  H34      1.0000 0.21370  0.00460  0.26550  Biso   1.000  H
  H35      1.0000 0.71370  0.49540  0.76550  Biso   1.000  H
  H36      1.0000 0.78630  0.99540  0.73450  Biso   1.000  H
  C37      1.0000 0.64110  0.66330  0.17230  Biso   1.000  C
  C38      1.0000 0.85890  0.16330  0.32770  Biso   1.000  C
  C39      1.0000 0.35890  0.33670  0.82770  Biso   1.000  C
  C40      1.0000 0.14110  0.83670  0.67230  Biso   1.000  C
  H37      1.0000 0.70310  0.69820  0.18700  Biso   1.000  H
  H38      1.0000 0.79690  0.19820  0.31300  Biso   1.000  H
  H39      1.0000 0.29690  0.30180  0.81300  Biso   1.000  H
  H40      1.0000 0.20310  0.80180  0.68700  Biso   1.000  H
  C41      1.0000 0.47280  0.27080  0.49580  Biso   1.000  C
  C42      1.0000 0.02720  0.77080  0.00420  Biso   1.000  C
  C43      1.0000 0.52720  0.72920  0.50420  Biso   1.000  C
  C44      1.0000 0.97280  0.22920  0.99580  Biso   1.000  C
  H41      1.0000 0.47230  0.28200  0.53120  Biso   1.000  H
  H42      1.0000 0.02770  0.78200  0.96880  Biso   1.000  H
  H43      1.0000 0.52770  0.71800  0.46880  Biso   1.000  H
  H44      1.0000 0.97230  0.21800  0.03120  Biso   1.000  H
  C45      1.0000 0.63560  0.60600  0.19910  Biso   1.000  C
  C46      1.0000 0.86440  0.10600  0.30090  Biso   1.000  C
  C47      1.0000 0.36440  0.39400  0.80090  Biso   1.000  C
  C48      1.0000 0.13560  0.89400  0.69910  Biso   1.000  C
  H45      1.0000 0.69110  0.60310  0.23250  Biso   1.000  H
  H46      1.0000 0.80890  0.10310  0.26750  Biso   1.000  H
  H47      1.0000 0.30890  0.39690  0.76750  Biso   1.000  H
  H48      1.0000 0.19110  0.89690  0.73250  Biso   1.000  H
  C49      1.0000 0.54240  0.78940  0.01350  Biso   1.000  C
  C50      1.0000 0.95760  0.28940  0.48650  Biso   1.000  C
  C51      1.0000 0.45760  0.21060  0.98650  Biso   1.000  C
  C52      1.0000 0.04240  0.71060  0.51350  Biso   1.000  C
  H49      1.0000 0.53780  0.78920  0.97690  Biso   1.000  H
  H50      1.0000 0.96220  0.28920  0.52310  Biso   1.000  H
  H51      1.0000 0.46220  0.21080  0.02310  Biso   1.000  H
  H52      1.0000 0.03780  0.71080  0.47690  Biso   1.000  H
  C53      1.0000 0.45650  0.23780  0.39260  Biso   1.000  C
  C54      1.0000 0.04350  0.73780  0.10740  Biso   1.000  C
  C55      1.0000 0.54350  0.76220  0.60740  Biso   1.000  C
  C56      1.0000 0.95650  0.26220  0.89260  Biso   1.000  C
  H53      1.0000 0.44740  0.22470  0.35760  Biso   1.000  H
  H54      1.0000 0.05260  0.72470  0.14240  Biso   1.000  H
  H55      1.0000 0.55260  0.77530  0.64240  Biso   1.000  H
  H56      1.0000 0.94740  0.27530  0.85760  Biso   1.000  H
  C57      1.0000 0.54140  0.73110  0.03890  Biso   1.000  C
  C58      1.0000 0.95860  0.23110  0.46110  Biso   1.000  C
  C59      1.0000 0.45860  0.26890  0.96110  Biso   1.000  C
  C60      1.0000 0.04140  0.76890  0.53890  Biso   1.000  C
  H57      1.0000 0.53570  0.69300  0.01980  Biso   1.000  H
  H58      1.0000 0.96430  0.19300  0.48020  Biso   1.000  H
  H59      1.0000 0.46430  0.30700  0.98020  Biso   1.000  H
  H60      1.0000 0.03570  0.80700  0.51980  Biso   1.000  H
  C61      1.0000 0.45070  0.31760  0.45890  Biso   1.000  C
  C62      1.0000 0.04930  0.81760  0.04110  Biso   1.000  C
  C63      1.0000 0.54930  0.68240  0.54110  Biso   1.000  C
  C64      1.0000 0.95070  0.18240  0.95890  Biso   1.000  C
  H61      1.0000 0.44110  0.36020  0.46960  Biso   1.000  H
  H62      1.0000 0.05890  0.86020  0.03040  Biso   1.000  H
  H63      1.0000 0.55890  0.63980  0.53040  Biso   1.000  H
  H64      1.0000 0.94110  0.13980  0.96960  Biso   1.000  H
  C65      1.0000 0.44240  0.30320  0.40570  Biso   1.000  C
  C66      1.0000 0.05760  0.80320  0.09430  Biso   1.000  C
  C67      1.0000 0.55760  0.69680  0.59430  Biso   1.000  C
  C68      1.0000 0.94240  0.19680  0.90570  Biso   1.000  C
  C69      1.0000 0.47840  0.46210  0.33840  Biso   1.000  C
  C70      1.0000 0.02160  0.96210  0.16160  Biso   1.000  C
  C71      1.0000 0.52160  0.53790  0.66160  Biso   1.000  C
  C72      1.0000 0.97840  0.03790  0.83840  Biso   1.000  C
  H65      1.0000 0.51940  0.50330  0.34680  Biso   1.000  H
  H66      1.0000 0.98060  0.00330  0.15320  Biso   1.000  H
  H67      1.0000 0.48060  0.49670  0.65320  Biso   1.000  H
  H68      1.0000 0.01940  0.99670  0.84680  Biso   1.000  H
  C73      1.0000 0.35240  0.39240  0.27730  Biso   1.000  C
  C74      1.0000 0.14760  0.89240  0.22270  Biso   1.000  C
  C75      1.0000 0.64760  0.60760  0.72270  Biso   1.000  C
  C76      1.0000 0.85240  0.10760  0.77730  Biso   1.000  C
  H69      1.0000 0.30410  0.38470  0.24360  Biso   1.000  H
  H70      1.0000 0.19590  0.88470  0.25640  Biso   1.000  H
  H71      1.0000 0.69590  0.61530  0.75640  Biso   1.000  H
  H72      1.0000 0.80410  0.11530  0.74360  Biso   1.000  H
  C77      1.0000 0.42610  0.35420  0.36460  Biso   1.000  C
  C78      1.0000 0.07390  0.85420  0.13540  Biso   1.000  C
  C79      1.0000 0.57390  0.64580  0.63540  Biso   1.000  C
  C80      1.0000 0.92610  0.14580  0.86460  Biso   1.000  C
  C81      1.0000 0.35930  0.34360  0.31410  Biso   1.000  C
  C82      1.0000 0.14070  0.84360  0.18590  Biso   1.000  C
  C83      1.0000 0.64070  0.65640  0.68590  Biso   1.000  C
  C84      1.0000 0.85930  0.15640  0.81410  Biso   1.000  C
  H73      1.0000 0.31800  0.30280  0.30460  Biso   1.000  H
  H74      1.0000 0.18200  0.80280  0.19540  Biso   1.000  H
  H75      1.0000 0.68200  0.69720  0.69540  Biso   1.000  H
  H76      1.0000 0.81800  0.19720  0.80460  Biso   1.000  H
  C85      1.0000 0.48560  0.41570  0.37630  Biso   1.000  C
  C86      1.0000 0.01440  0.91570  0.12370  Biso   1.000  C
  C87      1.0000 0.51440  0.58430  0.62370  Biso   1.000  C
  C88      1.0000 0.98560  0.08430  0.87630  Biso   1.000  C
  H77      1.0000 0.53050  0.42540  0.41010  Biso   1.000  H
  H78      1.0000 0.96950  0.92540  0.08990  Biso   1.000  H
  H79      1.0000 0.46950  0.57460  0.58990  Biso   1.000  H
  H80      1.0000 0.03050  0.07460  0.91010  Biso   1.000  H
  I1       1.0000 0.24045  0.97415  0.97034  Biso   1.000  I
  I2       1.0000 0.25955  0.47415  0.52966  Biso   1.000  I
  I3       1.0000 0.75955  0.02585  0.02966  Biso   1.000  I
  I4       1.0000 0.74045  0.52585  0.47034  Biso   1.000  I
  I5       1.0000 0.29951  0.62283  0.92967  Biso   1.000  I
  I6       1.0000 0.20049  0.12283  0.57033  Biso   1.000  I
  I7       1.0000 0.70049  0.37717  0.07033  Biso   1.000  I
  I8       1.0000 0.79951  0.87717  0.42967  Biso   1.000  I
  I9       1.0000 0.76343  0.68726  0.87446  Biso   1.000  I
  I10      1.0000 0.73657  0.18726  0.62554  Biso   1.000  I
  I11      1.0000 0.23657  0.31274  0.12554  Biso   1.000  I
  I12      1.0000 0.26343  0.81274  0.37446  Biso   1.000  I
  I13      1.0000 0.23612  0.82226  0.85717  Biso   1.000  I
  I14      1.0000 0.26388  0.32226  0.64283  Biso   1.000  I
  I15      1.0000 0.76388  0.17774  0.14283  Biso   1.000  I
  I16      1.0000 0.73612  0.67774  0.35717  Biso   1.000  I
  I17      1.0000 0.76709  0.89119  0.91180  Biso   1.000  I
  I18      1.0000 0.73291  0.39119  0.58820  Biso   1.000  I
  I19      1.0000 0.23291  0.10881  0.08820  Biso   1.000  I
  I20      1.0000 0.26709  0.60881  0.41180  Biso   1.000  I
  I21      1.0000 0.75504  0.55046  0.99371  Biso   1.000  I
  I22      1.0000 0.74496  0.05046  0.50629  Biso   1.000  I
  I23      1.0000 0.24496  0.44954  0.00629  Biso   1.000  I
  I24      1.0000 0.25504  0.94954  0.49371  Biso   1.000  I
  I25      1.0000 0.72169  0.82353  0.75063  Biso   1.000  I
  I26      1.0000 0.77831  0.32353  0.74937  Biso   1.000  I
  I27      1.0000 0.27831  0.17647  0.24937  Biso   1.000  I
  I28      1.0000 0.22169  0.67647  0.25063  Biso   1.000  I
  I29      1.0000 0.98698  0.48328  0.84924  Biso   1.000  I
  I30      1.0000 0.51302  0.98328  0.65076  Biso   1.000  I
  I31      1.0000 0.01302  0.51672  0.15076  Biso   1.000  I
  I32      1.0000 0.48698  0.01672  0.34924  Biso   1.000  I
  I33      1.0000 0.44551  0.99611  0.81095  Biso   1.000  I
  I34      1.0000 0.05449  0.49611  0.68905  Biso   1.000  I
  I35      1.0000 0.55449  0.00389  0.18905  Biso   1.000  I
  I36      1.0000 0.94551  0.50389  0.31095  Biso   1.000  I
  I37      1.0000 0.17065  0.65676  0.76395  Biso   1.000  I
  I38      1.0000 0.32935  0.15676  0.73605  Biso   1.000  I
  I39      1.0000 0.82935  0.34324  0.23605  Biso   1.000  I
  I40      1.0000 0.67065  0.84324  0.26395  Biso   1.000  I
  Cu1      1.0000 0.05220  0.52224  0.94249  Biso   1.000  Cu
  Cu2      1.0000 0.44780  0.02224  0.55751  Biso   1.000  Cu
  Cu3      1.0000 0.94780  0.47776  0.05751  Biso   1.000  Cu
  Cu4      1.0000 0.55220  0.97776  0.44249  Biso   1.000  Cu
  Cu5      1.0000 0.96044  0.64290  0.95864  Biso   1.000  Cu
  Cu6      1.0000 0.53956  0.14290  0.54136  Biso   1.000  Cu
  Cu7      1.0000 0.03956  0.35710  0.04136  Biso   1.000  Cu
  Cu8      1.0000 0.46044  0.85710  0.45864  Biso   1.000  Cu
  Cu9      1.0000 0.02340  0.60425  0.85047  Biso   1.000  Cu
  Cu10     1.0000 0.47660  0.10425  0.64953  Biso   1.000  Cu
  Cu11     1.0000 0.97660  0.39575  0.14953  Biso   1.000  Cu
  Cu12     1.0000 0.52340  0.89575  0.35047  Biso   1.000  Cu
  Cu13     1.0000 0.56900  0.92790  0.99548  Biso   1.000  Cu
  Cu14     1.0000 0.93100  0.42790  0.50452  Biso   1.000  Cu
  Cu15     1.0000 0.43100  0.07210  0.00452  Biso   1.000  Cu
  Cu16     1.0000 0.06900  0.57210  0.49548  Biso   1.000  Cu
  Cu17     1.0000 0.44750  0.94303  0.89846  Biso   1.000  Cu
  Cu18     1.0000 0.05250  0.44303  0.60154  Biso   1.000  Cu
  Cu19     1.0000 0.55250  0.05697  0.10154  Biso   1.000  Cu
  Cu20     1.0000 0.94750  0.55697  0.39846  Biso   1.000  Cu
  Cu21     1.0000 0.54950  0.87689  0.82146  Biso   1.000  Cu
  Cu22     1.0000 0.95050  0.37689  0.67854  Biso   1.000  Cu
  Cu23     1.0000 0.45050  0.12311  0.17854  Biso   1.000  Cu
  Cu24     1.0000 0.04950  0.62311  0.32146  Biso   1.000  Cu
  Cu25     1.0000 0.87080  0.79925  0.83941  Biso   1.000  Cu
  Cu26     1.0000 0.62920  0.29925  0.66059  Biso   1.000  Cu
  Cu27     1.0000 0.12920  0.20075  0.16059  Biso   1.000  Cu
  Cu28     1.0000 0.37080  0.70075  0.33941  Biso   1.000  Cu
  Cu29     1.0000 0.25500  0.70090  0.85340  Biso   1.000  Cu
  Cu30     1.0000 0.24500  0.20090  0.64660  Biso   1.000  Cu
  Cu31     1.0000 0.74500  0.29910  0.14660  Biso   1.000  Cu
  Cu32     1.0000 0.75500  0.79910  0.35340  Biso   1.000  Cu
  Cu33     1.0000 0.95590  0.75670  0.81130  Biso   1.000  Cu
  Cu34     1.0000 0.54410  0.25670  0.68870  Biso   1.000  Cu
  Cu35     1.0000 0.04410  0.24330  0.18870  Biso   1.000  Cu
  Cu36     1.0000 0.45590  0.74330  0.31130  Biso   1.000  Cu
  Cu37     1.0000 0.20200  0.70520  0.85970  Biso   1.000  Cu
  Cu38     1.0000 0.29800  0.20520  0.64030  Biso   1.000  Cu
  Cu39     1.0000 0.79800  0.29480  0.14030  Biso   1.000  Cu
  Cu40     1.0000 0.70200  0.79480  0.35970  Biso   1.000  Cu
  Cu41     1.0000 0.12800  0.70920  0.85450  Biso   1.000  Cu
  Cu42     1.0000 0.37200  0.20920  0.64550  Biso   1.000  Cu
  Cu43     1.0000 0.87200  0.29080  0.14550  Biso   1.000  Cu
  Cu44     1.0000 0.62800  0.79080  0.35450  Biso   1.000  Cu
  Cu45     1.0000 0.37700  0.69730  0.85440  Biso   1.000  Cu
  Cu46     1.0000 0.12300  0.19730  0.64560  Biso   1.000  Cu
  Cu47     1.0000 0.62300  0.30270  0.14560  Biso   1.000  Cu
  Cu48     1.0000 0.87700  0.80270  0.35440  Biso   1.000  Cu
