data_image0
_cell_length_a       24.658
_cell_length_b       6.719
_cell_length_c       17.369
_cell_angle_alpha    90
_cell_angle_beta     98.274
_cell_angle_gamma    90

_symmetry_space_group_name_H-M    "P 1"
_symmetry_int_tables_number       1

loop_
  _symmetry_equiv_pos_as_xyz
  'x, y, z'

loop_
  _atom_site_label
  _atom_site_occupancy
  _atom_site_fract_x
  _atom_site_fract_y
  _atom_site_fract_z
  _atom_site_thermal_displace_type
  _atom_site_B_iso_or_equiv
  _atom_site_type_symbol
  Br1      1.0000 0.66170  0.35166  0.59527  Biso   1.000  Br
  Br2      1.0000 0.33830  0.35166  0.90473  Biso   1.000  Br
  Br3      1.0000 0.16170  0.85166  0.59527  Biso   1.000  Br
  Br4      1.0000 0.83830  0.85166  0.90473  Biso   1.000  Br
  Br5      1.0000 0.33830  0.64834  0.40473  Biso   1.000  Br
  Br6      1.0000 0.66170  0.64834  0.09527  Biso   1.000  Br
  Br7      1.0000 0.83830  0.14834  0.40473  Biso   1.000  Br
  Br8      1.0000 0.16170  0.14834  0.09527  Biso   1.000  Br
  Br9      1.0000 0.70872  0.85356  0.72721  Biso   1.000  Br
  Br10     1.0000 0.29128  0.85356  0.77279  Biso   1.000  Br
  Br11     1.0000 0.20872  0.35356  0.72721  Biso   1.000  Br
  Br12     1.0000 0.79128  0.35356  0.77279  Biso   1.000  Br
  Br13     1.0000 0.29128  0.14644  0.27279  Biso   1.000  Br
  Br14     1.0000 0.70872  0.14644  0.22721  Biso   1.000  Br
  Br15     1.0000 0.79128  0.64644  0.27279  Biso   1.000  Br
  Br16     1.0000 0.20872  0.64644  0.22721  Biso   1.000  Br
  Br17     1.0000 0.63192  0.34389  0.81058  Biso   1.000  Br
  Br18     1.0000 0.36808  0.34389  0.68942  Biso   1.000  Br
  Br19     1.0000 0.13192  0.84389  0.81058  Biso   1.000  Br
  Br20     1.0000 0.86808  0.84389  0.68942  Biso   1.000  Br
  Br21     1.0000 0.36808  0.65611  0.18942  Biso   1.000  Br
  Br22     1.0000 0.63192  0.65611  0.31058  Biso   1.000  Br
  Br23     1.0000 0.86808  0.15611  0.18942  Biso   1.000  Br
  Br24     1.0000 0.13192  0.15611  0.31058  Biso   1.000  Br
  Cu1      1.0000 0.64212  0.57905  0.70567  Biso   1.000  Cu
  Cu2      1.0000 0.35788  0.57905  0.79433  Biso   1.000  Cu
  Cu3      1.0000 0.14212  0.07905  0.70567  Biso   1.000  Cu
  Cu4      1.0000 0.85788  0.07905  0.79433  Biso   1.000  Cu
  Cu5      1.0000 0.35788  0.42095  0.29433  Biso   1.000  Cu
  Cu6      1.0000 0.64212  0.42095  0.20567  Biso   1.000  Cu
  Cu7      1.0000 0.85788  0.92095  0.29433  Biso   1.000  Cu
  Cu8      1.0000 0.14212  0.92095  0.20567  Biso   1.000  Cu
  Cu9      1.0000 0.69832  0.22465  0.72727  Biso   1.000  Cu
  Cu10     1.0000 0.30168  0.22465  0.77273  Biso   1.000  Cu
  Cu11     1.0000 0.19832  0.72465  0.72727  Biso   1.000  Cu
  Cu12     1.0000 0.80168  0.72465  0.77273  Biso   1.000  Cu
  Cu13     1.0000 0.30168  0.77535  0.27273  Biso   1.000  Cu
  Cu14     1.0000 0.69832  0.77535  0.22727  Biso   1.000  Cu
  Cu15     1.0000 0.80168  0.27535  0.27273  Biso   1.000  Cu
  Cu16     1.0000 0.19832  0.27535  0.22727  Biso   1.000  Cu
  C1       1.0000 0.25578  0.15490  0.47892  Biso   1.000  C
  C2       1.0000 0.74422  0.15490  0.02108  Biso   1.000  C
  C3       1.0000 0.75578  0.65490  0.47892  Biso   1.000  C
  C4       1.0000 0.24422  0.65490  0.02108  Biso   1.000  C
  C5       1.0000 0.74422  0.84510  0.52108  Biso   1.000  C
  C6       1.0000 0.25578  0.84510  0.97892  Biso   1.000  C
  C7       1.0000 0.24422  0.34510  0.52108  Biso   1.000  C
  C8       1.0000 0.75578  0.34510  0.97892  Biso   1.000  C
  H1       1.0000 0.22760  0.05700  0.48400  Biso   1.000  H
  H2       1.0000 0.77240  0.05700  0.01600  Biso   1.000  H
  H3       1.0000 0.72760  0.55700  0.48400  Biso   1.000  H
  H4       1.0000 0.27240  0.55700  0.01600  Biso   1.000  H
  H5       1.0000 0.77240  0.94300  0.51600  Biso   1.000  H
  H6       1.0000 0.22760  0.94300  0.98400  Biso   1.000  H
  H7       1.0000 0.27240  0.44300  0.51600  Biso   1.000  H
  H8       1.0000 0.72760  0.44300  0.98400  Biso   1.000  H
  H9       1.0000 0.25550  0.18220  0.42400  Biso   1.000  H
  H10      1.0000 0.74450  0.18220  0.07600  Biso   1.000  H
  H11      1.0000 0.75550  0.68220  0.42400  Biso   1.000  H
  H12      1.0000 0.24450  0.68220  0.07600  Biso   1.000  H
  H13      1.0000 0.74450  0.81780  0.57600  Biso   1.000  H
  H14      1.0000 0.25550  0.81780  0.92400  Biso   1.000  H
  H15      1.0000 0.24450  0.31780  0.57600  Biso   1.000  H
  H16      1.0000 0.75550  0.31780  0.92400  Biso   1.000  H
  N1       1.0000 0.30977  0.07720  0.51300  Biso   1.000  N
  N2       1.0000 0.69023  0.07720  0.98700  Biso   1.000  N
  N3       1.0000 0.80977  0.57720  0.51300  Biso   1.000  N
  N4       1.0000 0.19023  0.57720  0.98700  Biso   1.000  N
  N5       1.0000 0.69023  0.92280  0.48700  Biso   1.000  N
  N6       1.0000 0.30977  0.92280  0.01300  Biso   1.000  N
  N7       1.0000 0.19023  0.42280  0.48700  Biso   1.000  N
  N8       1.0000 0.80977  0.42280  0.01300  Biso   1.000  N
  C9       1.0000 0.31307  0.93470  0.56781  Biso   1.000  C
  C10      1.0000 0.68693  0.93470  0.93219  Biso   1.000  C
  C11      1.0000 0.81307  0.43470  0.56781  Biso   1.000  C
  C12      1.0000 0.18693  0.43470  0.93219  Biso   1.000  C
  C13      1.0000 0.68693  0.06530  0.43219  Biso   1.000  C
  C14      1.0000 0.31307  0.06530  0.06781  Biso   1.000  C
  C15      1.0000 0.18693  0.56530  0.43219  Biso   1.000  C
  C16      1.0000 0.81307  0.56530  0.06781  Biso   1.000  C
  H17      1.0000 0.28130  0.88600  0.58420  Biso   1.000  H
  H18      1.0000 0.71870  0.88600  0.91580  Biso   1.000  H
  H19      1.0000 0.78130  0.38600  0.58420  Biso   1.000  H
  H20      1.0000 0.21870  0.38600  0.91580  Biso   1.000  H
  H21      1.0000 0.71870  0.11400  0.41580  Biso   1.000  H
  H22      1.0000 0.28130  0.11400  0.08420  Biso   1.000  H
  H23      1.0000 0.21870  0.61400  0.41580  Biso   1.000  H
  H24      1.0000 0.78130  0.61400  0.08420  Biso   1.000  H
  C17      1.0000 0.36317  0.86090  0.59968  Biso   1.000  C
  C18      1.0000 0.63683  0.86090  0.90032  Biso   1.000  C
  C19      1.0000 0.86317  0.36090  0.59968  Biso   1.000  C
  C20      1.0000 0.13683  0.36090  0.90032  Biso   1.000  C
  C21      1.0000 0.63683  0.13910  0.40032  Biso   1.000  C
  C22      1.0000 0.36317  0.13910  0.09968  Biso   1.000  C
  C23      1.0000 0.13683  0.63910  0.40032  Biso   1.000  C
  C24      1.0000 0.86317  0.63910  0.09968  Biso   1.000  C
  H25      1.0000 0.36520  0.75960  0.63650  Biso   1.000  H
  H26      1.0000 0.63480  0.75960  0.86350  Biso   1.000  H
  H27      1.0000 0.86520  0.25960  0.63650  Biso   1.000  H
  H28      1.0000 0.13480  0.25960  0.86350  Biso   1.000  H
  H29      1.0000 0.63480  0.24040  0.36350  Biso   1.000  H
  H30      1.0000 0.36520  0.24040  0.13650  Biso   1.000  H
  H31      1.0000 0.13480  0.74040  0.36350  Biso   1.000  H
  H32      1.0000 0.86520  0.74040  0.13650  Biso   1.000  H
  C25      1.0000 0.41057  0.93620  0.57736  Biso   1.000  C
  C26      1.0000 0.58943  0.93620  0.92264  Biso   1.000  C
  C27      1.0000 0.91057  0.43620  0.57736  Biso   1.000  C
  C28      1.0000 0.08943  0.43620  0.92264  Biso   1.000  C
  C29      1.0000 0.58943  0.06380  0.42264  Biso   1.000  C
  C30      1.0000 0.41057  0.06380  0.07736  Biso   1.000  C
  C31      1.0000 0.08943  0.56380  0.42264  Biso   1.000  C
  C32      1.0000 0.91057  0.56380  0.07736  Biso   1.000  C
  C33      1.0000 0.40558  0.08580  0.52183  Biso   1.000  C
  C34      1.0000 0.59442  0.08580  0.97817  Biso   1.000  C
  C35      1.0000 0.90558  0.58580  0.52183  Biso   1.000  C
  C36      1.0000 0.09442  0.58580  0.97817  Biso   1.000  C
  C37      1.0000 0.59442  0.91420  0.47817  Biso   1.000  C
  C38      1.0000 0.40558  0.91420  0.02183  Biso   1.000  C
  C39      1.0000 0.09442  0.41420  0.47817  Biso   1.000  C
  C40      1.0000 0.90558  0.41420  0.02183  Biso   1.000  C
  H33      1.0000 0.43680  0.14140  0.50630  Biso   1.000  H
  H34      1.0000 0.56320  0.14140  0.99370  Biso   1.000  H
  H35      1.0000 0.93680  0.64140  0.50630  Biso   1.000  H
  H36      1.0000 0.06320  0.64140  0.99370  Biso   1.000  H
  H37      1.0000 0.56320  0.85860  0.49370  Biso   1.000  H
  H38      1.0000 0.43680  0.85860  0.00630  Biso   1.000  H
  H39      1.0000 0.06320  0.35860  0.49370  Biso   1.000  H
  H40      1.0000 0.93680  0.35860  0.00630  Biso   1.000  H
  C41      1.0000 0.35498  0.15180  0.48988  Biso   1.000  C
  C42      1.0000 0.64502  0.15180  0.01012  Biso   1.000  C
  C43      1.0000 0.85498  0.65180  0.48988  Biso   1.000  C
  C44      1.0000 0.14502  0.65180  0.01012  Biso   1.000  C
  C45      1.0000 0.64502  0.84820  0.51012  Biso   1.000  C
  C46      1.0000 0.35498  0.84820  0.98988  Biso   1.000  C
  C47      1.0000 0.14502  0.34820  0.51012  Biso   1.000  C
  C48      1.0000 0.85498  0.34820  0.98988  Biso   1.000  C
  H41      1.0000 0.35190  0.24970  0.45160  Biso   1.000  H
  H42      1.0000 0.64810  0.24970  0.04840  Biso   1.000  H
  H43      1.0000 0.85190  0.74970  0.45160  Biso   1.000  H
  H44      1.0000 0.14810  0.74970  0.04840  Biso   1.000  H
  H45      1.0000 0.64810  0.75030  0.54840  Biso   1.000  H
  H46      1.0000 0.35190  0.75030  0.95160  Biso   1.000  H
  H47      1.0000 0.14810  0.25030  0.54840  Biso   1.000  H
  H48      1.0000 0.85190  0.25030  0.95160  Biso   1.000  H
  C49      1.0000 0.46498  0.85860  0.61080  Biso   1.000  C
  C50      1.0000 0.53502  0.85860  0.88920  Biso   1.000  C
  C51      1.0000 0.96498  0.35860  0.61080  Biso   1.000  C
  C52      1.0000 0.03502  0.35860  0.88920  Biso   1.000  C
  C53      1.0000 0.53502  0.14140  0.38920  Biso   1.000  C
  C54      1.0000 0.46498  0.14140  0.11080  Biso   1.000  C
  C55      1.0000 0.03502  0.64140  0.38920  Biso   1.000  C
  C56      1.0000 0.96498  0.64140  0.11080  Biso   1.000  C
  C57      1.0000 0.47520  0.65600  0.59930  Biso   1.000  C
  C58      1.0000 0.52480  0.65600  0.90070  Biso   1.000  C
  C59      1.0000 0.97520  0.15600  0.59930  Biso   1.000  C
  C60      1.0000 0.02480  0.15600  0.90070  Biso   1.000  C
  C61      1.0000 0.52480  0.34400  0.40070  Biso   1.000  C
  C62      1.0000 0.47520  0.34400  0.09930  Biso   1.000  C
  C63      1.0000 0.02480  0.84400  0.40070  Biso   1.000  C
  C64      1.0000 0.97520  0.84400  0.09930  Biso   1.000  C
  H49      1.0000 0.44820  0.57080  0.57520  Biso   1.000  H
  H50      1.0000 0.55180  0.57080  0.92480  Biso   1.000  H
  H51      1.0000 0.94820  0.07080  0.57520  Biso   1.000  H
  H52      1.0000 0.05180  0.07080  0.92480  Biso   1.000  H
  H53      1.0000 0.55180  0.42920  0.42480  Biso   1.000  H
  H54      1.0000 0.44820  0.42920  0.07520  Biso   1.000  H
  H55      1.0000 0.05180  0.92920  0.42480  Biso   1.000  H
  H56      1.0000 0.94820  0.92920  0.07520  Biso   1.000  H
  C65      1.0000 0.53020  0.58700  0.62700  Biso   1.000  C
  C66      1.0000 0.46980  0.58700  0.87300  Biso   1.000  C
  C67      1.0000 0.03020  0.08700  0.62700  Biso   1.000  C
  C68      1.0000 0.96980  0.08700  0.87300  Biso   1.000  C
  C69      1.0000 0.46980  0.41300  0.37300  Biso   1.000  C
  C70      1.0000 0.53020  0.41300  0.12700  Biso   1.000  C
  C71      1.0000 0.96980  0.91300  0.37300  Biso   1.000  C
  C72      1.0000 0.03020  0.91300  0.12700  Biso   1.000  C
  H57      1.0000 0.54020  0.45740  0.61590  Biso   1.000  H
  H58      1.0000 0.45980  0.45740  0.88410  Biso   1.000  H
  H59      1.0000 0.04020  0.95740  0.61590  Biso   1.000  H
  H60      1.0000 0.95980  0.95740  0.88410  Biso   1.000  H
  H61      1.0000 0.45980  0.54260  0.38410  Biso   1.000  H
  H62      1.0000 0.54020  0.54260  0.11590  Biso   1.000  H
  H63      1.0000 0.95980  0.04260  0.38410  Biso   1.000  H
  H64      1.0000 0.04020  0.04260  0.11590  Biso   1.000  H
  N9       1.0000 0.56788  0.70990  0.66964  Biso   1.000  N
  N10      1.0000 0.43212  0.70990  0.83036  Biso   1.000  N
  N11      1.0000 0.06788  0.20990  0.66964  Biso   1.000  N
  N12      1.0000 0.93212  0.20990  0.83036  Biso   1.000  N
  N13      1.0000 0.43212  0.29010  0.33036  Biso   1.000  N
  N14      1.0000 0.56788  0.29010  0.16964  Biso   1.000  N
  N15      1.0000 0.93212  0.79010  0.33036  Biso   1.000  N
  N16      1.0000 0.06788  0.79010  0.16964  Biso   1.000  N
  C73      1.0000 0.55830  0.90310  0.66750  Biso   1.000  C
  C74      1.0000 0.44170  0.90310  0.83250  Biso   1.000  C
  C75      1.0000 0.05830  0.40310  0.66750  Biso   1.000  C
  C76      1.0000 0.94170  0.40310  0.83250  Biso   1.000  C
  C77      1.0000 0.44170  0.09690  0.33250  Biso   1.000  C
  C78      1.0000 0.55830  0.09690  0.16750  Biso   1.000  C
  C79      1.0000 0.94170  0.59690  0.33250  Biso   1.000  C
  C80      1.0000 0.05830  0.59690  0.16750  Biso   1.000  C
  H65      1.0000 0.58660  0.98930  0.68640  Biso   1.000  H
  H66      1.0000 0.41340  0.98930  0.81360  Biso   1.000  H
  H67      1.0000 0.08660  0.48930  0.68640  Biso   1.000  H
  H68      1.0000 0.91340  0.48930  0.81360  Biso   1.000  H
  H69      1.0000 0.41340  0.01070  0.31360  Biso   1.000  H
  H70      1.0000 0.58660  0.01070  0.18640  Biso   1.000  H
  H71      1.0000 0.91340  0.51070  0.31360  Biso   1.000  H
  H72      1.0000 0.08660  0.51070  0.18640  Biso   1.000  H
  C81      1.0000 0.50772  0.98250  0.63800  Biso   1.000  C
  C82      1.0000 0.49228  0.98250  0.86200  Biso   1.000  C
  C83      1.0000 0.00772  0.48250  0.63800  Biso   1.000  C
  C84      1.0000 0.99228  0.48250  0.86200  Biso   1.000  C
  C85      1.0000 0.49228  0.01750  0.36200  Biso   1.000  C
  C86      1.0000 0.50772  0.01750  0.13800  Biso   1.000  C
  C87      1.0000 0.99228  0.51750  0.36200  Biso   1.000  C
  C88      1.0000 0.00772  0.51750  0.13800  Biso   1.000  C
  H73      1.0000 0.50270  0.11980  0.63670  Biso   1.000  H
  H74      1.0000 0.49730  0.11980  0.86330  Biso   1.000  H
  H75      1.0000 0.00270  0.61980  0.63670  Biso   1.000  H
  H76      1.0000 0.99730  0.61980  0.86330  Biso   1.000  H
  H77      1.0000 0.49730  0.88020  0.36330  Biso   1.000  H
  H78      1.0000 0.50270  0.88020  0.13670  Biso   1.000  H
  H79      1.0000 0.99730  0.38020  0.36330  Biso   1.000  H
  H80      1.0000 0.00270  0.38020  0.13670  Biso   1.000  H
  C89      1.0000 0.47470  0.66300  0.63040  Biso   1.000  C
  C90      1.0000 0.52530  0.66300  0.86960  Biso   1.000  C
  C91      1.0000 0.97470  0.16300  0.63040  Biso   1.000  C
  C92      1.0000 0.02530  0.16300  0.86960  Biso   1.000  C
  C93      1.0000 0.52530  0.33700  0.36960  Biso   1.000  C
  C94      1.0000 0.47470  0.33700  0.13040  Biso   1.000  C
  C95      1.0000 0.02530  0.83700  0.36960  Biso   1.000  C
  C96      1.0000 0.97470  0.83700  0.13040  Biso   1.000  C
  H81      1.0000 0.44590  0.57230  0.62250  Biso   1.000  H
  H82      1.0000 0.55410  0.57230  0.87750  Biso   1.000  H
  H83      1.0000 0.94590  0.07230  0.62250  Biso   1.000  H
  H84      1.0000 0.05410  0.07230  0.87750  Biso   1.000  H
  H85      1.0000 0.55410  0.42770  0.37750  Biso   1.000  H
  H86      1.0000 0.44590  0.42770  0.12250  Biso   1.000  H
  H87      1.0000 0.05410  0.92770  0.37750  Biso   1.000  H
  H88      1.0000 0.94590  0.92770  0.12250  Biso   1.000  H
  C97      1.0000 0.52330  0.59900  0.65960  Biso   1.000  C
  C98      1.0000 0.47670  0.59900  0.84040  Biso   1.000  C
  C99      1.0000 0.02330  0.09900  0.65960  Biso   1.000  C
  C100     1.0000 0.97670  0.09900  0.84040  Biso   1.000  C
  C101     1.0000 0.47670  0.40100  0.34040  Biso   1.000  C
  C102     1.0000 0.52330  0.40100  0.15960  Biso   1.000  C
  C103     1.0000 0.97670  0.90100  0.34040  Biso   1.000  C
  C104     1.0000 0.02330  0.90100  0.15960  Biso   1.000  C
  H89      1.0000 0.52670  0.46630  0.67450  Biso   1.000  H
  H90      1.0000 0.47330  0.46630  0.82550  Biso   1.000  H
  H91      1.0000 0.02670  0.96630  0.67450  Biso   1.000  H
  H92      1.0000 0.97330  0.96630  0.82550  Biso   1.000  H
  H93      1.0000 0.47330  0.53370  0.32550  Biso   1.000  H
  H94      1.0000 0.52670  0.53370  0.17450  Biso   1.000  H
  H95      1.0000 0.97330  0.03370  0.32550  Biso   1.000  H
  H96      1.0000 0.02670  0.03370  0.17450  Biso   1.000  H
