data_image0
_cell_length_a       11.3936
_cell_length_b       15.8186
_cell_length_c       16.5035
_cell_angle_alpha    90
_cell_angle_beta     107.793
_cell_angle_gamma    90

_symmetry_space_group_name_H-M    "P 1"
_symmetry_int_tables_number       1

loop_
  _symmetry_equiv_pos_as_xyz
  'x, y, z'

loop_
  _atom_site_label
  _atom_site_occupancy
  _atom_site_fract_x
  _atom_site_fract_y
  _atom_site_fract_z
  _atom_site_thermal_displace_type
  _atom_site_B_iso_or_equiv
  _atom_site_type_symbol
  Cu1      1.0000 0.12432  0.89216  0.61317  Biso   1.000  Cu
  Cu2      1.0000 0.12432  0.10784  0.11317  Biso   1.000  Cu
  Cu3      1.0000 0.62432  0.39216  0.61317  Biso   1.000  Cu
  Cu4      1.0000 0.62432  0.60784  0.11317  Biso   1.000  Cu
  P1       1.0000 0.95598  0.94839  0.62947  Biso   1.000  P
  P2       1.0000 0.95598  0.05161  0.12947  Biso   1.000  P
  P3       1.0000 0.45598  0.44839  0.62947  Biso   1.000  P
  P4       1.0000 0.45598  0.55161  0.12947  Biso   1.000  P
  Cl1      1.0000 0.48130  0.13018  0.64417  Biso   1.000  Cl
  Cl2      1.0000 0.48130  0.86982  0.14417  Biso   1.000  Cl
  Cl3      1.0000 0.98130  0.63018  0.64417  Biso   1.000  Cl
  Cl4      1.0000 0.98130  0.36982  0.14417  Biso   1.000  Cl
  O1       1.0000 0.56780  0.06380  0.67690  Biso   1.000  O
  O2       1.0000 0.56780  0.93620  0.17690  Biso   1.000  O
  O3       1.0000 0.06780  0.56380  0.67690  Biso   1.000  O
  O4       1.0000 0.06780  0.43620  0.17690  Biso   1.000  O
  O5       1.0000 0.54610  0.20390  0.64250  Biso   1.000  O
  O6       1.0000 0.54610  0.79610  0.14250  Biso   1.000  O
  O7       1.0000 0.04610  0.70390  0.64250  Biso   1.000  O
  O8       1.0000 0.04610  0.29610  0.14250  Biso   1.000  O
  O9       1.0000 0.41970  0.10580  0.57180  Biso   1.000  O
  O10      1.0000 0.41970  0.89420  0.07180  Biso   1.000  O
  O11      1.0000 0.91970  0.60580  0.57180  Biso   1.000  O
  O12      1.0000 0.91970  0.39420  0.07180  Biso   1.000  O
  O13      1.0000 0.41450  0.13340  0.70360  Biso   1.000  O
  O14      1.0000 0.41450  0.86660  0.20360  Biso   1.000  O
  O15      1.0000 0.91450  0.63340  0.70360  Biso   1.000  O
  O16      1.0000 0.91450  0.36660  0.20360  Biso   1.000  O
  N1       1.0000 0.17140  0.87800  0.50740  Biso   1.000  N
  N2       1.0000 0.17140  0.12200  0.00740  Biso   1.000  N
  N3       1.0000 0.67140  0.37800  0.50740  Biso   1.000  N
  N4       1.0000 0.67140  0.62200  0.00740  Biso   1.000  N
  N5       1.0000 0.09500  0.74260  0.47810  Biso   1.000  N
  N6       1.0000 0.09500  0.25740  0.97810  Biso   1.000  N
  N7       1.0000 0.59500  0.24260  0.47810  Biso   1.000  N
  N8       1.0000 0.59500  0.75740  0.97810  Biso   1.000  N
  H1       1.0000 0.06580  0.74820  0.52000  Biso   1.000  H
  H2       1.0000 0.06580  0.25180  0.02000  Biso   1.000  H
  H3       1.0000 0.56580  0.24820  0.52000  Biso   1.000  H
  H4       1.0000 0.56580  0.75180  0.02000  Biso   1.000  H
  N9       1.0000 0.77100  0.62450  0.21840  Biso   1.000  N
  N10      1.0000 0.77100  0.37550  0.71840  Biso   1.000  N
  N11      1.0000 0.27100  0.12450  0.21840  Biso   1.000  N
  N12      1.0000 0.27100  0.87550  0.71840  Biso   1.000  N
  C1       1.0000 0.80980  0.92430  0.55090  Biso   1.000  C
  C2       1.0000 0.80980  0.07570  0.05090  Biso   1.000  C
  C3       1.0000 0.30980  0.42430  0.55090  Biso   1.000  C
  C4       1.0000 0.30980  0.57570  0.05090  Biso   1.000  C
  C5       1.0000 0.69850  0.93720  0.56680  Biso   1.000  C
  C6       1.0000 0.69850  0.06280  0.06680  Biso   1.000  C
  C7       1.0000 0.19850  0.43720  0.56680  Biso   1.000  C
  C8       1.0000 0.19850  0.56280  0.06680  Biso   1.000  C
  H5       1.0000 0.69740  0.95590  0.61990  Biso   1.000  H
  H6       1.0000 0.69740  0.04410  0.11990  Biso   1.000  H
  H7       1.0000 0.19740  0.45590  0.61990  Biso   1.000  H
  H8       1.0000 0.19740  0.54410  0.11990  Biso   1.000  H
  C9       1.0000 0.58500  0.92150  0.50080  Biso   1.000  C
  C10      1.0000 0.58500  0.07850  0.00080  Biso   1.000  C
  C11      1.0000 0.08500  0.42150  0.50080  Biso   1.000  C
  C12      1.0000 0.08500  0.57850  0.00080  Biso   1.000  C
  H9       1.0000 0.50980  0.93030  0.51080  Biso   1.000  H
  H10      1.0000 0.50980  0.06970  0.01080  Biso   1.000  H
  H11      1.0000 0.00980  0.43030  0.51080  Biso   1.000  H
  H12      1.0000 0.00980  0.56970  0.01080  Biso   1.000  H
  C13      1.0000 0.58810  0.89460  0.42670  Biso   1.000  C
  C14      1.0000 0.58810  0.10540  0.92670  Biso   1.000  C
  C15      1.0000 0.08810  0.39460  0.42670  Biso   1.000  C
  C16      1.0000 0.08810  0.60540  0.92670  Biso   1.000  C
  H13      1.0000 0.51410  0.88500  0.38430  Biso   1.000  H
  H14      1.0000 0.51410  0.11500  0.88430  Biso   1.000  H
  H15      1.0000 0.01410  0.38500  0.38430  Biso   1.000  H
  H16      1.0000 0.01410  0.61500  0.88430  Biso   1.000  H
  C17      1.0000 0.70020  0.87960  0.40840  Biso   1.000  C
  C18      1.0000 0.70020  0.12040  0.90840  Biso   1.000  C
  C19      1.0000 0.20020  0.37960  0.40840  Biso   1.000  C
  C20      1.0000 0.20020  0.62040  0.90840  Biso   1.000  C
  H17      1.0000 0.69980  0.85940  0.35540  Biso   1.000  H
  H18      1.0000 0.69980  0.14060  0.85540  Biso   1.000  H
  H19      1.0000 0.19980  0.35940  0.35540  Biso   1.000  H
  H20      1.0000 0.19980  0.64060  0.85540  Biso   1.000  H
  C21      1.0000 0.80900  0.89540  0.47050  Biso   1.000  C
  C22      1.0000 0.80900  0.10460  0.97050  Biso   1.000  C
  C23      1.0000 0.30900  0.39540  0.47050  Biso   1.000  C
  C24      1.0000 0.30900  0.60460  0.97050  Biso   1.000  C
  H21      1.0000 0.88320  0.88680  0.45920  Biso   1.000  H
  H22      1.0000 0.88320  0.11320  0.95920  Biso   1.000  H
  H23      1.0000 0.38320  0.38680  0.45920  Biso   1.000  H
  H24      1.0000 0.38320  0.61320  0.95920  Biso   1.000  H
  C25      1.0000 0.93310  0.92150  0.73120  Biso   1.000  C
  C26      1.0000 0.93310  0.07850  0.23120  Biso   1.000  C
  C27      1.0000 0.43310  0.42150  0.73120  Biso   1.000  C
  C28      1.0000 0.43310  0.57850  0.23120  Biso   1.000  C
  C29      1.0000 0.90730  0.83850  0.74230  Biso   1.000  C
  C30      1.0000 0.90730  0.16150  0.24230  Biso   1.000  C
  C31      1.0000 0.40730  0.33850  0.74230  Biso   1.000  C
  C32      1.0000 0.40730  0.66150  0.24230  Biso   1.000  C
  H25      1.0000 0.89330  0.80110  0.69690  Biso   1.000  H
  H26      1.0000 0.89330  0.19890  0.19690  Biso   1.000  H
  H27      1.0000 0.39330  0.30110  0.69690  Biso   1.000  H
  H28      1.0000 0.39330  0.69890  0.19690  Biso   1.000  H
  C33      1.0000 0.90200  0.81030  0.81870  Biso   1.000  C
  C34      1.0000 0.90200  0.18970  0.31870  Biso   1.000  C
  C35      1.0000 0.40200  0.31030  0.81870  Biso   1.000  C
  C36      1.0000 0.40200  0.68970  0.31870  Biso   1.000  C
  H29      1.0000 0.88370  0.75370  0.82460  Biso   1.000  H
  H30      1.0000 0.88370  0.24630  0.32460  Biso   1.000  H
  H31      1.0000 0.38370  0.25370  0.82460  Biso   1.000  H
  H32      1.0000 0.38370  0.74630  0.32460  Biso   1.000  H
  C37      1.0000 0.92270  0.86260  0.88650  Biso   1.000  C
  C38      1.0000 0.92270  0.13740  0.38650  Biso   1.000  C
  C39      1.0000 0.42270  0.36260  0.88650  Biso   1.000  C
  C40      1.0000 0.42270  0.63740  0.38650  Biso   1.000  C
  H33      1.0000 0.91990  0.84270  0.93890  Biso   1.000  H
  H34      1.0000 0.91990  0.15730  0.43890  Biso   1.000  H
  H35      1.0000 0.41990  0.34270  0.93890  Biso   1.000  H
  H36      1.0000 0.41990  0.65730  0.43890  Biso   1.000  H
  C41      1.0000 0.94750  0.94390  0.87600  Biso   1.000  C
  C42      1.0000 0.94750  0.05610  0.37600  Biso   1.000  C
  C43      1.0000 0.44750  0.44390  0.87600  Biso   1.000  C
  C44      1.0000 0.44750  0.55610  0.37600  Biso   1.000  C
  H37      1.0000 0.96170  0.98100  0.92170  Biso   1.000  H
  H38      1.0000 0.96170  0.01900  0.42170  Biso   1.000  H
  H39      1.0000 0.46170  0.48100  0.92170  Biso   1.000  H
  H40      1.0000 0.46170  0.51900  0.42170  Biso   1.000  H
  C45      1.0000 0.95240  0.97420  0.79710  Biso   1.000  C
  C46      1.0000 0.95240  0.02580  0.29710  Biso   1.000  C
  C47      1.0000 0.45240  0.47420  0.79710  Biso   1.000  C
  C48      1.0000 0.45240  0.52580  0.29710  Biso   1.000  C
  H41      1.0000 0.96910  0.03100  0.79070  Biso   1.000  H
  H42      1.0000 0.96910  0.96900  0.29070  Biso   1.000  H
  H43      1.0000 0.46910  0.53100  0.79070  Biso   1.000  H
  H44      1.0000 0.46910  0.46900  0.29070  Biso   1.000  H
  C49      1.0000 0.97010  0.06460  0.62820  Biso   1.000  C
  C50      1.0000 0.97010  0.93540  0.12820  Biso   1.000  C
  C51      1.0000 0.47010  0.56460  0.62820  Biso   1.000  C
  C52      1.0000 0.47010  0.43540  0.12820  Biso   1.000  C
  C53      1.0000 0.87370  0.11800  0.63020  Biso   1.000  C
  C54      1.0000 0.87370  0.88200  0.13020  Biso   1.000  C
  C55      1.0000 0.37370  0.61800  0.63020  Biso   1.000  C
  C56      1.0000 0.37370  0.38200  0.13020  Biso   1.000  C
  H45      1.0000 0.80040  0.09490  0.63380  Biso   1.000  H
  H46      1.0000 0.80040  0.90510  0.13380  Biso   1.000  H
  H47      1.0000 0.30040  0.59490  0.63380  Biso   1.000  H
  H48      1.0000 0.30040  0.40510  0.13380  Biso   1.000  H
  C57      1.0000 0.88530  0.20220  0.62720  Biso   1.000  C
  C58      1.0000 0.88530  0.79780  0.12720  Biso   1.000  C
  C59      1.0000 0.38530  0.70220  0.62720  Biso   1.000  C
  C60      1.0000 0.38530  0.29780  0.12720  Biso   1.000  C
  H49      1.0000 0.81920  0.23690  0.62690  Biso   1.000  H
  H50      1.0000 0.81920  0.76310  0.12690  Biso   1.000  H
  H51      1.0000 0.31920  0.73690  0.62690  Biso   1.000  H
  H52      1.0000 0.31920  0.26310  0.12690  Biso   1.000  H
  C61      1.0000 0.99740  0.23860  0.62440  Biso   1.000  C
  C62      1.0000 0.99740  0.76140  0.12440  Biso   1.000  C
  C63      1.0000 0.49740  0.73860  0.62440  Biso   1.000  C
  C64      1.0000 0.49740  0.26140  0.12440  Biso   1.000  C
  H53      1.0000 0.00580  0.29700  0.62270  Biso   1.000  H
  H54      1.0000 0.00580  0.70300  0.12270  Biso   1.000  H
  H55      1.0000 0.50580  0.79700  0.62270  Biso   1.000  H
  H56      1.0000 0.50580  0.20300  0.12270  Biso   1.000  H
  C65      1.0000 0.09380  0.18620  0.62430  Biso   1.000  C
  C66      1.0000 0.09380  0.81380  0.12430  Biso   1.000  C
  C67      1.0000 0.59380  0.68620  0.62430  Biso   1.000  C
  C68      1.0000 0.59380  0.31380  0.12430  Biso   1.000  C
  H57      1.0000 0.16820  0.20880  0.62230  Biso   1.000  H
  H58      1.0000 0.16820  0.79120  0.12230  Biso   1.000  H
  H59      1.0000 0.66820  0.70880  0.62230  Biso   1.000  H
  H60      1.0000 0.66820  0.29120  0.12230  Biso   1.000  H
  C69      1.0000 0.07880  0.09920  0.62730  Biso   1.000  C
  C70      1.0000 0.07880  0.90080  0.12730  Biso   1.000  C
  C71      1.0000 0.57880  0.59920  0.62730  Biso   1.000  C
  C72      1.0000 0.57880  0.40080  0.12730  Biso   1.000  C
  H61      1.0000 0.14460  0.06380  0.62860  Biso   1.000  H
  H62      1.0000 0.14460  0.93620  0.12860  Biso   1.000  H
  H63      1.0000 0.64460  0.56380  0.62860  Biso   1.000  H
  H64      1.0000 0.64460  0.43620  0.12860  Biso   1.000  H
  C73      1.0000 0.22640  0.94680  0.48280  Biso   1.000  C
  C74      1.0000 0.22640  0.05320  0.98280  Biso   1.000  C
  C75      1.0000 0.72640  0.44680  0.48280  Biso   1.000  C
  C76      1.0000 0.72640  0.55320  0.98280  Biso   1.000  C
  H65      1.0000 0.24500  0.99310  0.51930  Biso   1.000  H
  H66      1.0000 0.24500  0.00690  0.01930  Biso   1.000  H
  H67      1.0000 0.74500  0.49310  0.51930  Biso   1.000  H
  H68      1.0000 0.74500  0.50690  0.01930  Biso   1.000  H
  C77      1.0000 0.25510  0.95160  0.40940  Biso   1.000  C
  C78      1.0000 0.25510  0.04840  0.90940  Biso   1.000  C
  C79      1.0000 0.75510  0.45160  0.40940  Biso   1.000  C
  C80      1.0000 0.75510  0.54840  0.90940  Biso   1.000  C
  H69      1.0000 0.29340  0.99950  0.39670  Biso   1.000  H
  H70      1.0000 0.29340  0.00050  0.89670  Biso   1.000  H
  H71      1.0000 0.79340  0.49950  0.39670  Biso   1.000  H
  H72      1.0000 0.79340  0.50050  0.89670  Biso   1.000  H
  C81      1.0000 0.22700  0.88460  0.35380  Biso   1.000  C
  C82      1.0000 0.22700  0.11540  0.85380  Biso   1.000  C
  C83      1.0000 0.72700  0.38460  0.35380  Biso   1.000  C
  C84      1.0000 0.72700  0.61540  0.85380  Biso   1.000  C
  H73      1.0000 0.24390  0.88690  0.30220  Biso   1.000  H
  H74      1.0000 0.24390  0.11310  0.80220  Biso   1.000  H
  H75      1.0000 0.74390  0.38690  0.30220  Biso   1.000  H
  H76      1.0000 0.74390  0.61310  0.80220  Biso   1.000  H
  C85      1.0000 0.17290  0.81350  0.37620  Biso   1.000  C
  C86      1.0000 0.17290  0.18650  0.87620  Biso   1.000  C
  C87      1.0000 0.67290  0.31350  0.37620  Biso   1.000  C
  C88      1.0000 0.67290  0.68650  0.87620  Biso   1.000  C
  H77      1.0000 0.15500  0.76700  0.33990  Biso   1.000  H
  H78      1.0000 0.15500  0.23300  0.83990  Biso   1.000  H
  H79      1.0000 0.65500  0.26700  0.33990  Biso   1.000  H
  H80      1.0000 0.65500  0.73300  0.83990  Biso   1.000  H
  C89      1.0000 0.14540  0.81130  0.45290  Biso   1.000  C
  C90      1.0000 0.14540  0.18870  0.95290  Biso   1.000  C
  C91      1.0000 0.64540  0.31130  0.45290  Biso   1.000  C
  C92      1.0000 0.64540  0.68870  0.95290  Biso   1.000  C
  C93      1.0000 0.08760  0.66130  0.43940  Biso   1.000  C
  C94      1.0000 0.08760  0.33870  0.93940  Biso   1.000  C
  C95      1.0000 0.58760  0.16130  0.43940  Biso   1.000  C
  C96      1.0000 0.58760  0.83870  0.93940  Biso   1.000  C
  H81      1.0000 0.08560  0.61870  0.48120  Biso   1.000  H
  H82      1.0000 0.08560  0.38130  0.98120  Biso   1.000  H
  H83      1.0000 0.58560  0.11870  0.48120  Biso   1.000  H
  H84      1.0000 0.58560  0.88130  0.98120  Biso   1.000  H
  H85      1.0000 0.16160  0.65220  0.42330  Biso   1.000  H
  H86      1.0000 0.16160  0.34780  0.92330  Biso   1.000  H
  H87      1.0000 0.66160  0.15220  0.42330  Biso   1.000  H
  H88      1.0000 0.66160  0.84780  0.92330  Biso   1.000  H
  C97      1.0000 0.97640  0.64910  0.36150  Biso   1.000  C
  C98      1.0000 0.97640  0.35090  0.86150  Biso   1.000  C
  C99      1.0000 0.47640  0.14910  0.36150  Biso   1.000  C
  C100     1.0000 0.47640  0.85090  0.86150  Biso   1.000  C
  C101     1.0000 0.97990  0.59560  0.29630  Biso   1.000  C
  C102     1.0000 0.97990  0.40440  0.79630  Biso   1.000  C
  C103     1.0000 0.47990  0.09560  0.29630  Biso   1.000  C
  C104     1.0000 0.47990  0.90440  0.79630  Biso   1.000  C
  H89      1.0000 0.05230  0.56680  0.29940  Biso   1.000  H
  H90      1.0000 0.05230  0.43320  0.79940  Biso   1.000  H
  H91      1.0000 0.55230  0.06680  0.29940  Biso   1.000  H
  H92      1.0000 0.55230  0.93320  0.79940  Biso   1.000  H
  C105     1.0000 0.87710  0.58450  0.22650  Biso   1.000  C
  C106     1.0000 0.87710  0.41550  0.72650  Biso   1.000  C
  C107     1.0000 0.37710  0.08450  0.22650  Biso   1.000  C
  C108     1.0000 0.37710  0.91550  0.72650  Biso   1.000  C
  H93      1.0000 0.88200  0.54780  0.18360  Biso   1.000  H
  H94      1.0000 0.88200  0.45220  0.68360  Biso   1.000  H
  H95      1.0000 0.38200  0.04780  0.18360  Biso   1.000  H
  H96      1.0000 0.38200  0.95220  0.68360  Biso   1.000  H
  C109     1.0000 0.76620  0.67510  0.28090  Biso   1.000  C
  C110     1.0000 0.76620  0.32490  0.78090  Biso   1.000  C
  C111     1.0000 0.26620  0.17510  0.28090  Biso   1.000  C
  C112     1.0000 0.26620  0.82490  0.78090  Biso   1.000  C
  H97      1.0000 0.69240  0.70300  0.27570  Biso   1.000  H
  H98      1.0000 0.69240  0.29700  0.77570  Biso   1.000  H
  H99      1.0000 0.19240  0.20300  0.27570  Biso   1.000  H
  H100     1.0000 0.19240  0.79700  0.77570  Biso   1.000  H
  C113     1.0000 0.86400  0.68930  0.35350  Biso   1.000  C
  C114     1.0000 0.86400  0.31070  0.85350  Biso   1.000  C
  C115     1.0000 0.36400  0.18930  0.35350  Biso   1.000  C
  C116     1.0000 0.36400  0.81070  0.85350  Biso   1.000  C
  H101     1.0000 0.85530  0.72490  0.39620  Biso   1.000  H
  H102     1.0000 0.85530  0.27510  0.89620  Biso   1.000  H
  H103     1.0000 0.35530  0.22490  0.39620  Biso   1.000  H
  H104     1.0000 0.35530  0.77510  0.89620  Biso   1.000  H
