data_image0
_cell_length_a       11.2065
_cell_length_b       12.2217
_cell_length_c       13.2421
_cell_angle_alpha    90
_cell_angle_beta     106.059
_cell_angle_gamma    90

_symmetry_space_group_name_H-M    "P 1"
_symmetry_int_tables_number       1

loop_
  _symmetry_equiv_pos_as_xyz
  'x, y, z'

loop_
  _atom_site_label
  _atom_site_occupancy
  _atom_site_fract_x
  _atom_site_fract_y
  _atom_site_fract_z
  _atom_site_thermal_displace_type
  _atom_site_B_iso_or_equiv
  _atom_site_type_symbol
  I1       1.0000 0.97881  0.82130  0.03976  Biso   1.000  I
  I2       1.0000 0.52119  0.32130  0.46024  Biso   1.000  I
  I3       1.0000 0.02119  0.17870  0.96024  Biso   1.000  I
  I4       1.0000 0.47881  0.67870  0.53976  Biso   1.000  I
  Cu1      1.0000 0.87341  0.01484  0.99394  Biso   1.000  Cu
  Cu2      1.0000 0.62659  0.51484  0.50606  Biso   1.000  Cu
  Cu3      1.0000 0.12659  0.98516  0.00605  Biso   1.000  Cu
  Cu4      1.0000 0.37341  0.48516  0.49394  Biso   1.000  Cu
  N1       1.0000 0.80229  0.07042  0.11117  Biso   1.000  N
  N2       1.0000 0.69771  0.57042  0.38883  Biso   1.000  N
  N3       1.0000 0.19771  0.92958  0.88883  Biso   1.000  N
  N4       1.0000 0.30229  0.42958  0.61117  Biso   1.000  N
  C1       1.0000 0.85080  0.15823  0.16950  Biso   1.000  C
  C2       1.0000 0.64920  0.65823  0.33050  Biso   1.000  C
  C3       1.0000 0.14920  0.84177  0.83050  Biso   1.000  C
  C4       1.0000 0.35080  0.34177  0.66950  Biso   1.000  C
  H1       1.0000 0.92440  0.18970  0.15990  Biso   1.000  H
  H2       1.0000 0.57560  0.68970  0.34010  Biso   1.000  H
  H3       1.0000 0.07560  0.81030  0.84010  Biso   1.000  H
  H4       1.0000 0.42440  0.31030  0.65990  Biso   1.000  H
  N5       1.0000 0.24847  0.99559  0.15614  Biso   1.000  N
  N6       1.0000 0.25153  0.49559  0.34386  Biso   1.000  N
  N7       1.0000 0.75153  0.00441  0.84386  Biso   1.000  N
  N8       1.0000 0.74847  0.50441  0.65614  Biso   1.000  N
  C5       1.0000 0.79910  0.20505  0.24264  Biso   1.000  C
  C6       1.0000 0.70090  0.70505  0.25736  Biso   1.000  C
  C7       1.0000 0.20090  0.79495  0.75736  Biso   1.000  C
  C8       1.0000 0.29910  0.29495  0.74264  Biso   1.000  C
  H5       1.0000 0.83700  0.26680  0.28230  Biso   1.000  H
  H6       1.0000 0.66300  0.76680  0.21770  Biso   1.000  H
  H7       1.0000 0.16300  0.73320  0.71770  Biso   1.000  H
  H8       1.0000 0.33700  0.23320  0.78230  Biso   1.000  H
  C9       1.0000 0.69160  0.16070  0.25737  Biso   1.000  C
  C10      1.0000 0.80840  0.66070  0.24263  Biso   1.000  C
  C11      1.0000 0.30840  0.83930  0.74263  Biso   1.000  C
  C12      1.0000 0.19160  0.33930  0.75737  Biso   1.000  C
  H9       1.0000 0.65380  0.19180  0.30660  Biso   1.000  H
  H10      1.0000 0.84620  0.69180  0.19340  Biso   1.000  H
  H11      1.0000 0.34620  0.80820  0.69340  Biso   1.000  H
  H12      1.0000 0.15380  0.30820  0.80660  Biso   1.000  H
  C13      1.0000 0.64070  0.07030  0.19910  Biso   1.000  C
  C14      1.0000 0.85930  0.57030  0.30090  Biso   1.000  C
  C15      1.0000 0.35930  0.92970  0.80090  Biso   1.000  C
  C16      1.0000 0.14070  0.42970  0.69910  Biso   1.000  C
  H13      1.0000 0.56710  0.03800  0.20790  Biso   1.000  H
  H14      1.0000 0.93290  0.53800  0.29210  Biso   1.000  H
  H15      1.0000 0.43290  0.96200  0.79210  Biso   1.000  H
  H16      1.0000 0.06710  0.46200  0.70790  Biso   1.000  H
  C17      1.0000 0.69828  0.02628  0.12678  Biso   1.000  C
  C18      1.0000 0.80172  0.52628  0.37322  Biso   1.000  C
  C19      1.0000 0.30172  0.97372  0.87322  Biso   1.000  C
  C20      1.0000 0.19828  0.47372  0.62678  Biso   1.000  C
  C21      1.0000 0.64735  0.93207  0.06590  Biso   1.000  C
  C22      1.0000 0.85265  0.43207  0.43410  Biso   1.000  C
  C23      1.0000 0.35265  0.06793  0.93410  Biso   1.000  C
  C24      1.0000 0.14735  0.56793  0.56590  Biso   1.000  C
  C25      1.0000 0.60198  0.85094  0.02120  Biso   1.000  C
  C26      1.0000 0.89802  0.35094  0.47880  Biso   1.000  C
  C27      1.0000 0.39802  0.14906  0.97880  Biso   1.000  C
  C28      1.0000 0.10198  0.64906  0.52120  Biso   1.000  C
  C29      1.0000 0.54282  0.75347  0.97093  Biso   1.000  C
  C30      1.0000 0.95718  0.25347  0.52907  Biso   1.000  C
  C31      1.0000 0.45718  0.24653  0.02907  Biso   1.000  C
  C32      1.0000 0.04282  0.74653  0.47093  Biso   1.000  C
  C33      1.0000 0.58730  0.69780  0.89645  Biso   1.000  C
  C34      1.0000 0.91270  0.19780  0.60355  Biso   1.000  C
  C35      1.0000 0.41270  0.30220  0.10355  Biso   1.000  C
  C36      1.0000 0.08730  0.80220  0.39645  Biso   1.000  C
  H17      1.0000 0.65930  0.72350  0.87940  Biso   1.000  H
  H18      1.0000 0.84070  0.22350  0.62060  Biso   1.000  H
  H19      1.0000 0.34070  0.27650  0.12060  Biso   1.000  H
  H20      1.0000 0.15930  0.77650  0.37940  Biso   1.000  H
  C37      1.0000 0.52670  0.60540  0.84766  Biso   1.000  C
  C38      1.0000 0.97330  0.10540  0.65234  Biso   1.000  C
  C39      1.0000 0.47330  0.39460  0.15234  Biso   1.000  C
  C40      1.0000 0.02670  0.89460  0.34766  Biso   1.000  C
  H21      1.0000 0.55610  0.56900  0.79580  Biso   1.000  H
  H22      1.0000 0.94390  0.06900  0.70420  Biso   1.000  H
  H23      1.0000 0.44390  0.43100  0.20420  Biso   1.000  H
  H24      1.0000 0.05610  0.93100  0.29580  Biso   1.000  H
  C41      1.0000 0.42350  0.56562  0.87386  Biso   1.000  C
  C42      1.0000 0.07650  0.06562  0.62614  Biso   1.000  C
  C43      1.0000 0.57650  0.43438  0.12614  Biso   1.000  C
  C44      1.0000 0.92350  0.93438  0.37386  Biso   1.000  C
  H25      1.0000 0.38330  0.50140  0.84080  Biso   1.000  H
  H26      1.0000 0.11670  0.00140  0.65920  Biso   1.000  H
  H27      1.0000 0.61670  0.49860  0.15920  Biso   1.000  H
  H28      1.0000 0.88330  0.99860  0.34080  Biso   1.000  H
  C45      1.0000 0.37860  0.61909  0.94808  Biso   1.000  C
  C46      1.0000 0.12140  0.11909  0.55192  Biso   1.000  C
  C47      1.0000 0.62140  0.38091  0.05192  Biso   1.000  C
  C48      1.0000 0.87860  0.88091  0.44808  Biso   1.000  C
  H29      1.0000 0.30790  0.59110  0.96580  Biso   1.000  H
  H30      1.0000 0.19210  0.09110  0.53420  Biso   1.000  H
  H31      1.0000 0.69210  0.40890  0.03420  Biso   1.000  H
  H32      1.0000 0.80790  0.90890  0.46580  Biso   1.000  H
  C49      1.0000 0.43658  0.71371  0.99684  Biso   1.000  C
  C50      1.0000 0.06342  0.21371  0.50316  Biso   1.000  C
  C51      1.0000 0.56342  0.28629  0.00316  Biso   1.000  C
  C52      1.0000 0.93658  0.78629  0.49684  Biso   1.000  C
  C53      1.0000 0.38955  0.77448  0.07014  Biso   1.000  C
  C54      1.0000 0.11045  0.27448  0.42986  Biso   1.000  C
  C55      1.0000 0.61045  0.22552  0.92986  Biso   1.000  C
  C56      1.0000 0.88955  0.72552  0.57014  Biso   1.000  C
  C57      1.0000 0.35439  0.83435  0.12808  Biso   1.000  C
  C58      1.0000 0.14561  0.33435  0.37192  Biso   1.000  C
  C59      1.0000 0.64561  0.16565  0.87192  Biso   1.000  C
  C60      1.0000 0.85439  0.66565  0.62808  Biso   1.000  C
  C61      1.0000 0.32538  0.91227  0.19905  Biso   1.000  C
  C62      1.0000 0.17462  0.41227  0.30095  Biso   1.000  C
  C63      1.0000 0.67462  0.08773  0.80095  Biso   1.000  C
  C64      1.0000 0.82538  0.58773  0.69905  Biso   1.000  C
  C65      1.0000 0.38060  0.90370  0.30682  Biso   1.000  C
  C66      1.0000 0.11940  0.40370  0.19318  Biso   1.000  C
  C67      1.0000 0.61940  0.09630  0.69318  Biso   1.000  C
  C68      1.0000 0.88060  0.59630  0.80682  Biso   1.000  C
  H33      1.0000 0.43120  0.84250  0.33490  Biso   1.000  H
  H34      1.0000 0.06880  0.34250  0.16510  Biso   1.000  H
  H35      1.0000 0.56880  0.15750  0.66510  Biso   1.000  H
  H36      1.0000 0.93120  0.65750  0.83490  Biso   1.000  H
  C69      1.0000 0.36040  0.98600  0.37246  Biso   1.000  C
  C70      1.0000 0.13960  0.48600  0.12754  Biso   1.000  C
  C71      1.0000 0.63960  0.01400  0.62754  Biso   1.000  C
  C72      1.0000 0.86040  0.51400  0.87246  Biso   1.000  C
  H37      1.0000 0.39500  0.98100  0.44640  Biso   1.000  H
  H38      1.0000 0.10500  0.48100  0.05360  Biso   1.000  H
  H39      1.0000 0.60500  0.01900  0.55360  Biso   1.000  H
  H40      1.0000 0.89500  0.51900  0.94640  Biso   1.000  H
  C73      1.0000 0.28960  0.07470  0.32874  Biso   1.000  C
  C74      1.0000 0.21040  0.57470  0.17126  Biso   1.000  C
  C75      1.0000 0.71040  0.92530  0.67126  Biso   1.000  C
  C76      1.0000 0.78960  0.42530  0.82874  Biso   1.000  C
  H41      1.0000 0.27940  0.13460  0.37130  Biso   1.000  H
  H42      1.0000 0.22060  0.63460  0.12870  Biso   1.000  H
  H43      1.0000 0.72060  0.86540  0.62870  Biso   1.000  H
  H44      1.0000 0.77940  0.36540  0.87130  Biso   1.000  H
  C77      1.0000 0.23350  0.07546  0.22164  Biso   1.000  C
  C78      1.0000 0.26650  0.57546  0.27836  Biso   1.000  C
  C79      1.0000 0.76650  0.92454  0.77836  Biso   1.000  C
  C80      1.0000 0.73350  0.42454  0.72164  Biso   1.000  C
  H45      1.0000 0.18150  0.13560  0.19270  Biso   1.000  H
  H46      1.0000 0.31850  0.63560  0.30730  Biso   1.000  H
  H47      1.0000 0.81850  0.86440  0.80730  Biso   1.000  H
  H48      1.0000 0.68150  0.36440  0.69270  Biso   1.000  H
