data_image0
_cell_length_a       3.7752
_cell_length_b       6.301
_cell_length_c       26.754
_cell_angle_alpha    90
_cell_angle_beta     90.96
_cell_angle_gamma    90

_symmetry_space_group_name_H-M    "P 1"
_symmetry_int_tables_number       1

loop_
  _symmetry_equiv_pos_as_xyz
  'x, y, z'

loop_
  _atom_site_label
  _atom_site_occupancy
  _atom_site_fract_x
  _atom_site_fract_y
  _atom_site_fract_z
  _atom_site_thermal_displace_type
  _atom_site_B_iso_or_equiv
  _atom_site_type_symbol
  Cu1      1.0000 0.00000  0.12040  0.00000  Biso   1.000  Cu
  Cu2      1.0000 0.00000  0.87960  0.50000  Biso   1.000  Cu
  Cl1      1.0000 0.50500  0.89120  0.00100  Biso   1.000  Cl
  Cl2      1.0000 0.50500  0.10880  0.50100  Biso   1.000  Cl
  N1       1.0000 0.97100  0.27800  0.06550  Biso   1.000  N
  N2       1.0000 0.97100  0.72200  0.56550  Biso   1.000  N
  O1       1.0000 0.58100  0.97020  0.18800  Biso   1.000  O
  O2       1.0000 0.58100  0.02980  0.68800  Biso   1.000  O
  O3       1.0000 0.70300  0.24420  0.23710  Biso   1.000  O
  O4       1.0000 0.70300  0.75580  0.73710  Biso   1.000  O
  C1       1.0000 0.84500  0.18930  0.10630  Biso   1.000  C
  C2       1.0000 0.84500  0.81070  0.60630  Biso   1.000  C
  C3       1.0000 0.83500  0.28200  0.15230  Biso   1.000  C
  C4       1.0000 0.83500  0.71800  0.65230  Biso   1.000  C
  C5       1.0000 0.96200  0.47550  0.16000  Biso   1.000  C
  C6       1.0000 0.96200  0.52450  0.66000  Biso   1.000  C
  C7       1.0000 0.10400  0.58720  0.11900  Biso   1.000  C
  C8       1.0000 0.10400  0.41280  0.61900  Biso   1.000  C
  C9       1.0000 0.09300  0.48370  0.07090  Biso   1.000  C
  C10      1.0000 0.09300  0.51630  0.57090  Biso   1.000  C
  C11      1.0000 0.69100  0.14170  0.19540  Biso   1.000  C
  C12      1.0000 0.69100  0.85830  0.69540  Biso   1.000  C
  N3       1.0000 0.04200  0.29110  0.93540  Biso   1.000  N
  N4       1.0000 0.04200  0.70890  0.43540  Biso   1.000  N
  O5       1.0000 0.29600  0.23260  0.76100  Biso   1.000  O
  O6       1.0000 0.29600  0.76740  0.26100  Biso   1.000  O
  O7       1.0000 0.45300  0.97020  0.81360  Biso   1.000  O
  O8       1.0000 0.45300  0.02980  0.31360  Biso   1.000  O
  C13      1.0000 0.17500  0.17990  0.89570  Biso   1.000  C
  C14      1.0000 0.17500  0.82010  0.39570  Biso   1.000  C
  C15      1.0000 0.16600  0.26890  0.84730  Biso   1.000  C
  C16      1.0000 0.16600  0.73110  0.34730  Biso   1.000  C
  C17      1.0000 0.02600  0.48500  0.84290  Biso   1.000  C
  C18      1.0000 0.02600  0.51500  0.34290  Biso   1.000  C
  C19      1.0000 0.92000  0.58280  0.88420  Biso   1.000  C
  C20      1.0000 0.92000  0.41720  0.38420  Biso   1.000  C
  C21      1.0000 0.91300  0.48190  0.92730  Biso   1.000  C
  C22      1.0000 0.91300  0.51810  0.42730  Biso   1.000  C
  C23      1.0000 0.30700  0.16260  0.80600  Biso   1.000  C
  C24      1.0000 0.30700  0.83740  0.30600  Biso   1.000  C
  H1       1.0000 0.76000  0.04610  0.10330  Biso   1.000  H
  H2       1.0000 0.76000  0.95390  0.60330  Biso   1.000  H
  H3       1.0000 0.95700  0.54010  0.19250  Biso   1.000  H
  H4       1.0000 0.95700  0.45990  0.69250  Biso   1.000  H
  H5       1.0000 0.16300  0.56060  0.04170  Biso   1.000  H
  H6       1.0000 0.16300  0.43940  0.54170  Biso   1.000  H
  H7       1.0000 0.27900  0.04240  0.90090  Biso   1.000  H
  H8       1.0000 0.27900  0.95760  0.40090  Biso   1.000  H
  H9       1.0000 0.00700  0.55210  0.81080  Biso   1.000  H
  H10      1.0000 0.00700  0.44790  0.31080  Biso   1.000  H
  H11      1.0000 0.85000  0.72910  0.88220  Biso   1.000  H
  H12      1.0000 0.85000  0.27090  0.38220  Biso   1.000  H
  H13      1.0000 0.79700  0.55140  0.95450  Biso   1.000  H
  H14      1.0000 0.79700  0.44860  0.45450  Biso   1.000  H
