data_image0
_cell_length_a       3.7752
_cell_length_b       6.301
_cell_length_c       26.754
_cell_angle_alpha    90
_cell_angle_beta     90.96
_cell_angle_gamma    90

_symmetry_space_group_name_H-M    "P 1"
_symmetry_int_tables_number       1

loop_
  _symmetry_equiv_pos_as_xyz
  'x, y, z'

loop_
  _atom_site_label
  _atom_site_occupancy
  _atom_site_fract_x
  _atom_site_fract_y
  _atom_site_fract_z
  _atom_site_thermal_displace_type
  _atom_site_B_iso_or_equiv
  _atom_site_type_symbol
  Cu1      1.0000 0.00000  0.12040  0.25000  Biso   1.000  Cu
  Cu2      1.0000 0.00000  0.87960  0.75000  Biso   1.000  Cu
  Cl1      1.0000 0.50000  0.89120  0.25000  Biso   1.000  Cl
  Cl2      1.0000 0.50000  0.10880  0.75000  Biso   1.000  Cl
  N1       1.0000 0.96400  0.28420  0.31500  Biso   1.000  N
  N2       1.0000 0.03600  0.28420  0.18500  Biso   1.000  N
  N3       1.0000 0.03600  0.71580  0.68500  Biso   1.000  N
  N4       1.0000 0.96400  0.71580  0.81500  Biso   1.000  N
  C1       1.0000 0.83530  0.18420  0.35530  Biso   1.000  C
  C2       1.0000 0.16470  0.18420  0.14470  Biso   1.000  C
  C3       1.0000 0.16470  0.81580  0.64470  Biso   1.000  C
  C4       1.0000 0.83530  0.81580  0.85530  Biso   1.000  C
  C5       1.0000 0.83550  0.27500  0.40250  Biso   1.000  C
  C6       1.0000 0.16450  0.27500  0.09750  Biso   1.000  C
  C7       1.0000 0.16450  0.72500  0.59750  Biso   1.000  C
  C8       1.0000 0.83550  0.72500  0.90250  Biso   1.000  C
  C9       1.0000 0.96790  0.47890  0.40870  Biso   1.000  C
  C10      1.0000 0.03210  0.47890  0.09130  Biso   1.000  C
  C11      1.0000 0.03210  0.52110  0.59130  Biso   1.000  C
  C12      1.0000 0.96790  0.52110  0.90870  Biso   1.000  C
  C13      1.0000 0.09280  0.58520  0.36760  Biso   1.000  C
  C14      1.0000 0.90720  0.58520  0.13240  Biso   1.000  C
  C15      1.0000 0.90720  0.41480  0.63240  Biso   1.000  C
  C16      1.0000 0.09280  0.41480  0.86760  Biso   1.000  C
  C17      1.0000 0.08910  0.48290  0.32170  Biso   1.000  C
  C18      1.0000 0.91090  0.48290  0.17830  Biso   1.000  C
  C19      1.0000 0.91090  0.51710  0.67830  Biso   1.000  C
  C20      1.0000 0.08910  0.51710  0.82170  Biso   1.000  C
  C21      1.0000 0.69190  0.15340  0.44490  Biso   1.000  C
  C22      1.0000 0.30810  0.15340  0.05510  Biso   1.000  C
  C23      1.0000 0.30810  0.84660  0.55510  Biso   1.000  C
  C24      1.0000 0.69190  0.84660  0.94490  Biso   1.000  C
  O1       1.0000 0.56270  0.97100  0.43720  Biso   1.000  O
  O2       1.0000 0.43730  0.97100  0.06280  Biso   1.000  O
  O3       1.0000 0.43730  0.02900  0.56280  Biso   1.000  O
  O4       1.0000 0.56270  0.02900  0.93720  Biso   1.000  O
  O5       1.0000 0.70400  0.23860  0.48800  Biso   1.000  O
  O6       1.0000 0.29600  0.23860  0.01200  Biso   1.000  O
  O7       1.0000 0.29600  0.76140  0.51200  Biso   1.000  O
  O8       1.0000 0.70400  0.76140  0.98800  Biso   1.000  O
  H1       1.0000 0.73980  0.04400  0.35110  Biso   1.000  H
  H2       1.0000 0.26020  0.04400  0.14890  Biso   1.000  H
  H3       1.0000 0.26020  0.95600  0.64890  Biso   1.000  H
  H4       1.0000 0.73980  0.95600  0.85110  Biso   1.000  H
  H5       1.0000 0.96990  0.54530  0.44100  Biso   1.000  H
  H6       1.0000 0.03010  0.54530  0.05900  Biso   1.000  H
  H7       1.0000 0.03010  0.45470  0.55900  Biso   1.000  H
  H8       1.0000 0.96990  0.45470  0.94100  Biso   1.000  H
  H9       1.0000 0.18150  0.72750  0.37060  Biso   1.000  H
  H10      1.0000 0.81850  0.72750  0.12940  Biso   1.000  H
  H11      1.0000 0.81850  0.27250  0.62940  Biso   1.000  H
  H12      1.0000 0.18150  0.27250  0.87060  Biso   1.000  H
  H13      1.0000 0.18070  0.55620  0.29330  Biso   1.000  H
  H14      1.0000 0.81930  0.55620  0.20670  Biso   1.000  H
  H15      1.0000 0.81930  0.44380  0.70670  Biso   1.000  H
  H16      1.0000 0.18070  0.44380  0.79330  Biso   1.000  H
