data_image0
_cell_length_a       11.789
_cell_length_b       15.377
_cell_length_c       18.655
_cell_angle_alpha    100.99
_cell_angle_beta     100
_cell_angle_gamma    107.42

_symmetry_space_group_name_H-M    "P 1"
_symmetry_int_tables_number       1

loop_
  _symmetry_equiv_pos_as_xyz
  'x, y, z'

loop_
  _atom_site_label
  _atom_site_occupancy
  _atom_site_fract_x
  _atom_site_fract_y
  _atom_site_fract_z
  _atom_site_thermal_displace_type
  _atom_site_B_iso_or_equiv
  _atom_site_type_symbol
  Mo1      1.0000 0.97768  0.76959  0.01816  Biso   1.000  Mo
  Mo2      1.0000 0.02232  0.23041  0.98184  Biso   1.000  Mo
  O1       1.0000 0.96110  0.65940  0.02180  Biso   1.000  O
  O2       1.0000 0.03890  0.34060  0.97820  Biso   1.000  O
  O3       1.0000 0.97290  0.75620  0.90970  Biso   1.000  O
  O4       1.0000 0.02710  0.24380  0.09030  Biso   1.000  O
  O5       1.0000 0.96770  0.82380  0.11100  Biso   1.000  O
  O6       1.0000 0.03230  0.17620  0.88900  Biso   1.000  O
  O7       1.0000 0.14330  0.82500  0.03490  Biso   1.000  O
  O8       1.0000 0.85670  0.17500  0.96510  Biso   1.000  O
  O9       1.0000 0.80500  0.75850  0.98030  Biso   1.000  O
  O10      1.0000 0.19500  0.24150  0.01970  Biso   1.000  O
  O11      1.0000 0.94120  0.91840  0.02870  Biso   1.000  O
  O12      1.0000 0.05880  0.08160  0.97130  Biso   1.000  O
  O13      1.0000 0.03440  0.91630  0.97590  Biso   1.000  O
  O14      1.0000 0.96560  0.08370  0.02410  Biso   1.000  O
  Mo3      1.0000 0.01677  0.83243  0.84790  Biso   1.000  Mo
  Mo4      1.0000 0.98323  0.16757  0.15210  Biso   1.000  Mo
  Mo5      1.0000 0.92031  0.92974  0.16101  Biso   1.000  Mo
  Mo6      1.0000 0.07969  0.07026  0.83899  Biso   1.000  Mo
  Mo7      1.0000 0.26401  0.93106  0.01282  Biso   1.000  Mo
  Mo8      1.0000 0.73599  0.06894  0.98718  Biso   1.000  Mo
  Mo9      1.0000 0.70856  0.83021  0.97922  Biso   1.000  Mo
  Mo10     1.0000 0.29144  0.16979  0.02078  Biso   1.000  Mo
  O15      1.0000 0.01130  0.02730  0.08390  Biso   1.000  O
  O16      1.0000 0.98870  0.97270  0.91610  Biso   1.000  O
  P1       1.0000 0.00000  0.00000  0.00000  Biso   1.000  P
  O17      1.0000 0.08850  0.95270  0.82030  Biso   1.000  O
  O18      1.0000 0.91150  0.04730  0.17970  Biso   1.000  O
  O19      1.0000 0.18570  0.87650  0.91360  Biso   1.000  O
  O20      1.0000 0.81430  0.12350  0.08640  Biso   1.000  O
  O21      1.0000 0.03180  0.75830  0.77650  Biso   1.000  O
  O22      1.0000 0.96820  0.24170  0.22350  Biso   1.000  O
  O23      1.0000 0.86640  0.83920  0.81340  Biso   1.000  O
  O24      1.0000 0.13360  0.16080  0.18660  Biso   1.000  O
  O25      1.0000 0.88730  0.89320  0.23570  Biso   1.000  O
  O26      1.0000 0.11270  0.10680  0.76430  Biso   1.000  O
  O27      1.0000 0.77450  0.87510  0.09040  Biso   1.000  O
  O28      1.0000 0.22550  0.12490  0.90960  Biso   1.000  O
  O29      1.0000 0.09880  0.98770  0.19350  Biso   1.000  O
  O30      1.0000 0.90120  0.01230  0.80650  Biso   1.000  O
  O31      1.0000 0.14640  0.03290  0.03780  Biso   1.000  O
  O32      1.0000 0.85360  0.96710  0.96220  Biso   1.000  O
  O33      1.0000 0.27300  0.98780  0.11790  Biso   1.000  O
  O34      1.0000 0.72700  0.01220  0.88210  Biso   1.000  O
  O35      1.0000 0.38360  0.89450  0.02110  Biso   1.000  O
  O36      1.0000 0.61640  0.10550  0.97890  Biso   1.000  O
  O37      1.0000 0.32770  0.04960  0.00290  Biso   1.000  O
  O38      1.0000 0.67230  0.95040  0.99710  Biso   1.000  O
  O39      1.0000 0.57200  0.75640  0.97590  Biso   1.000  O
  O40      1.0000 0.42800  0.24360  0.02410  Biso   1.000  O
  O41      1.0000 0.69560  0.83580  0.88190  Biso   1.000  O
  O42      1.0000 0.30440  0.16420  0.11810  Biso   1.000  O
  Mo11     1.0000 0.22597  0.07392  0.17325  Biso   1.000  Mo
  Mo12     1.0000 0.77403  0.92608  0.82675  Biso   1.000  Mo
  O43      1.0000 0.32900  0.11350  0.25360  Biso   1.000  O
  O44      1.0000 0.67100  0.88650  0.74640  Biso   1.000  O
  C1       1.0000 0.02000  0.09070  0.49590  Biso   1.000  C
  C2       1.0000 0.98000  0.90930  0.50410  Biso   1.000  C
  H1       1.0000 0.03450  0.15270  0.49300  Biso   1.000  H
  H2       1.0000 0.96550  0.84730  0.50700  Biso   1.000  H
  C3       1.0000 0.91470  0.02030  0.45040  Biso   1.000  C
  C4       1.0000 0.08530  0.97970  0.54960  Biso   1.000  C
  C5       1.0000 0.89720  0.92910  0.45510  Biso   1.000  C
  C6       1.0000 0.10280  0.07090  0.54490  Biso   1.000  C
  H3       1.0000 0.82790  0.88030  0.42440  Biso   1.000  H
  H4       1.0000 0.17210  0.11970  0.57560  Biso   1.000  H
  C7       1.0000 0.81860  0.03720  0.39510  Biso   1.000  C
  C8       1.0000 0.18140  0.96280  0.60490  Biso   1.000  C
  H5       1.0000 0.81650  0.00570  0.34440  Biso   1.000  H
  H6       1.0000 0.18350  0.99430  0.65560  Biso   1.000  H
  H7       1.0000 0.73880  0.00930  0.40440  Biso   1.000  H
  H8       1.0000 0.26120  0.99070  0.59560  Biso   1.000  H
  C9       1.0000 0.86120  0.27490  0.44610  Biso   1.000  C
  C10      1.0000 0.13880  0.72510  0.55390  Biso   1.000  C
  H9       1.0000 0.86210  0.32970  0.47800  Biso   1.000  H
  H10      1.0000 0.13790  0.67030  0.52200  Biso   1.000  H
  C11      1.0000 0.87390  0.18300  0.35190  Biso   1.000  C
  C12      1.0000 0.12610  0.81700  0.64810  Biso   1.000  C
  H11      1.0000 0.88540  0.15740  0.30560  Biso   1.000  H
  H12      1.0000 0.11460  0.84260  0.69440  Biso   1.000  H
  C13      1.0000 0.95990  0.53950  0.27560  Biso   1.000  C
  C14      1.0000 0.04010  0.46050  0.72440  Biso   1.000  C
  H13      1.0000 0.92900  0.56750  0.31270  Biso   1.000  H
  H14      1.0000 0.07100  0.43250  0.68730  Biso   1.000  H
  C15      1.0000 0.02480  0.44410  0.21370  Biso   1.000  C
  C16      1.0000 0.97520  0.55590  0.78630  Biso   1.000  C
  H15      1.0000 0.04830  0.39280  0.19690  Biso   1.000  H
  H16      1.0000 0.95170  0.60720  0.80310  Biso   1.000  H
  C17      1.0000 0.07700  0.52700  0.11560  Biso   1.000  C
  C18      1.0000 0.92300  0.47300  0.88440  Biso   1.000  C
  H17      1.0000 0.01880  0.54420  0.08270  Biso   1.000  H
  H18      1.0000 0.98120  0.45580  0.91730  Biso   1.000  H
  H19      1.0000 0.07960  0.46730  0.08890  Biso   1.000  H
  H20      1.0000 0.92040  0.53270  0.91110  Biso   1.000  H
  C19      1.0000 0.20230  0.60130  0.13260  Biso   1.000  C
  C20      1.0000 0.79770  0.39870  0.86740  Biso   1.000  C
  C21      1.0000 0.27650  0.63660  0.20400  Biso   1.000  C
  C22      1.0000 0.72350  0.36340  0.79600  Biso   1.000  C
  H21      1.0000 0.24870  0.61620  0.24360  Biso   1.000  H
  H22      1.0000 0.75130  0.38380  0.75640  Biso   1.000  H
  C23      1.0000 0.39420  0.70320  0.21780  Biso   1.000  C
  C24      1.0000 0.60580  0.29680  0.78220  Biso   1.000  C
  H23      1.0000 0.44380  0.72700  0.26660  Biso   1.000  H
  H24      1.0000 0.55620  0.27300  0.73340  Biso   1.000  H
  C25      1.0000 0.43630  0.73320  0.16010  Biso   1.000  C
  C26      1.0000 0.56370  0.26680  0.83990  Biso   1.000  C
  C27      1.0000 0.35930  0.69890  0.08840  Biso   1.000  C
  C28      1.0000 0.64070  0.30110  0.91160  Biso   1.000  C
  H25      1.0000 0.38600  0.71990  0.04860  Biso   1.000  H
  H26      1.0000 0.61400  0.28010  0.95140  Biso   1.000  H
  C29      1.0000 0.24390  0.63420  0.07540  Biso   1.000  C
  C30      1.0000 0.75610  0.36580  0.92460  Biso   1.000  C
  H27      1.0000 0.19310  0.61230  0.02690  Biso   1.000  H
  H28      1.0000 0.80690  0.38770  0.97310  Biso   1.000  H
  C31      1.0000 0.56360  0.80300  0.17470  Biso   1.000  C
  C32      1.0000 0.43640  0.19700  0.82530  Biso   1.000  C
  H29      1.0000 0.61780  0.79060  0.21390  Biso   1.000  H
  H30      1.0000 0.38220  0.20940  0.78610  Biso   1.000  H
  H31      1.0000 0.59290  0.79400  0.12930  Biso   1.000  H
  H32      1.0000 0.40710  0.20600  0.87070  Biso   1.000  H
  C33      1.0000 0.55380  0.01930  0.26340  Biso   1.000  C
  C34      1.0000 0.44620  0.98070  0.73660  Biso   1.000  C
  H33      1.0000 0.53920  0.05950  0.30190  Biso   1.000  H
  H34      1.0000 0.46080  0.94050  0.69810  Biso   1.000  H
  C35      1.0000 0.59590  0.96800  0.16340  Biso   1.000  C
  C36      1.0000 0.40410  0.03200  0.83660  Biso   1.000  C
  H35      1.0000 0.61690  0.96170  0.11730  Biso   1.000  H
  H36      1.0000 0.38310  0.03830  0.88270  Biso   1.000  H
  C37      1.0000 0.60680  0.34680  0.17460  Biso   1.000  C
  C38      1.0000 0.39320  0.65320  0.82540  Biso   1.000  C
  H37      1.0000 0.54560  0.34360  0.20050  Biso   1.000  H
  H38      1.0000 0.45440  0.65640  0.79950  Biso   1.000  H
  C39      1.0000 0.73500  0.31590  0.11910  Biso   1.000  C
  C40      1.0000 0.26500  0.68410  0.88090  Biso   1.000  C
  H39      1.0000 0.78280  0.28400  0.09920  Biso   1.000  H
  H40      1.0000 0.21720  0.71600  0.90080  Biso   1.000  H
  C41      1.0000 0.62980  0.50520  0.14940  Biso   1.000  C
  C42      1.0000 0.37020  0.49480  0.85060  Biso   1.000  C
  H41      1.0000 0.70560  0.55890  0.16590  Biso   1.000  H
  H42      1.0000 0.29440  0.44110  0.83410  Biso   1.000  H
  H43      1.0000 0.58070  0.51250  0.18530  Biso   1.000  H
  H44      1.0000 0.41930  0.48750  0.81470  Biso   1.000  H
  C43      1.0000 0.62380  0.54140  0.02280  Biso   1.000  C
  C44      1.0000 0.37620  0.45860  0.97720  Biso   1.000  C
  H45      1.0000 0.70860  0.57010  0.03840  Biso   1.000  H
  H46      1.0000 0.29140  0.42990  0.96160  Biso   1.000  H
  C45      1.0000 0.56070  0.50390  0.07220  Biso   1.000  C
  C46      1.0000 0.43930  0.49610  0.92780  Biso   1.000  C
  C47      1.0000 0.43490  0.46260  0.04780  Biso   1.000  C
  C48      1.0000 0.56510  0.53740  0.95220  Biso   1.000  C
  H47      1.0000 0.38990  0.43730  0.07990  Biso   1.000  H
  H48      1.0000 0.61010  0.56270  0.92010  Biso   1.000  H
  Cu1      1.0000 0.93530  0.36910  0.33004  Biso   1.000  Cu
  Cu2      1.0000 0.06470  0.63090  0.66996  Biso   1.000  Cu
  Cu3      1.0000 0.62023  0.16436  0.18272  Biso   1.000  Cu
  Cu4      1.0000 0.37977  0.83564  0.81728  Biso   1.000  Cu
  N1       1.0000 0.84070  0.13570  0.40010  Biso   1.000  N
  N2       1.0000 0.15930  0.86430  0.59990  Biso   1.000  N
  N3       1.0000 0.83340  0.19390  0.46280  Biso   1.000  N
  N4       1.0000 0.16660  0.80610  0.53720  Biso   1.000  N
  N5       1.0000 0.88880  0.27280  0.37820  Biso   1.000  N
  N6       1.0000 0.11120  0.72720  0.62180  Biso   1.000  N
  N7       1.0000 0.97660  0.45750  0.27280  Biso   1.000  N
  N8       1.0000 0.02340  0.54250  0.72720  Biso   1.000  N
  N9       1.0000 0.99120  0.57760  0.22130  Biso   1.000  N
  N10      1.0000 0.00880  0.42240  0.77870  Biso   1.000  N
  N11      1.0000 0.03350  0.51480  0.18340  Biso   1.000  N
  N12      1.0000 0.96650  0.48520  0.81660  Biso   1.000  N
  N13      1.0000 0.56960  0.90130  0.19790  Biso   1.000  N
  N14      1.0000 0.43040  0.09870  0.80210  Biso   1.000  N
  N15      1.0000 0.54260  0.93390  0.26310  Biso   1.000  N
  N16      1.0000 0.45740  0.06610  0.73690  Biso   1.000  N
  N17      1.0000 0.65560  0.28000  0.15890  Biso   1.000  N
  N18      1.0000 0.34440  0.72000  0.84110  Biso   1.000  N
  N19      1.0000 0.73910  0.39980  0.11070  Biso   1.000  N
  N20      1.0000 0.26090  0.60020  0.88930  Biso   1.000  N
  N21      1.0000 0.65790  0.41790  0.14800  Biso   1.000  N
  N22      1.0000 0.34210  0.58210  0.85200  Biso   1.000  N
  N23      1.0000 0.58840  0.04640  0.20370  Biso   1.000  N
  N24      1.0000 0.41160  0.95360  0.79630  Biso   1.000  N
  C49      1.0000 0.47530  0.08070  0.49330  Biso   1.000  C
  C50      1.0000 0.52470  0.91930  0.50670  Biso   1.000  C
  H49      1.0000 0.46170  0.13660  0.49020  Biso   1.000  H
  H50      1.0000 0.53830  0.86340  0.50980  Biso   1.000  H
  C51      1.0000 0.39200  0.99690  0.45170  Biso   1.000  C
  C52      1.0000 0.60800  0.00310  0.54830  Biso   1.000  C
  C53      1.0000 0.41600  0.91680  0.45820  Biso   1.000  C
  C54      1.0000 0.58400  0.08320  0.54180  Biso   1.000  C
  H51      1.0000 0.35930  0.85870  0.42980  Biso   1.000  H
  H52      1.0000 0.64070  0.14130  0.57020  Biso   1.000  H
  C55      1.0000 0.27560  0.99620  0.40270  Biso   1.000  C
  C56      1.0000 0.72440  0.00380  0.59730  Biso   1.000  C
  H53      1.0000 0.21610  0.99700  0.43260  Biso   1.000  H
  H54      1.0000 0.78390  0.00300  0.56740  Biso   1.000  H
  H55      1.0000 0.29280  0.05270  0.38460  Biso   1.000  H
  H56      1.0000 0.70720  0.94730  0.61540  Biso   1.000  H
  C57      1.0000 0.27270  0.91070  0.28000  Biso   1.000  C
  C58      1.0000 0.72730  0.08930  0.72000  Biso   1.000  C
  H57      1.0000 0.33960  0.95630  0.27330  Biso   1.000  H
  H58      1.0000 0.66040  0.04370  0.72670  Biso   1.000  H
  C59      1.0000 0.11710  0.78150  0.26300  Biso   1.000  C
  C60      1.0000 0.88290  0.21850  0.73700  Biso   1.000  C
  H59      1.0000 0.05900  0.72180  0.24040  Biso   1.000  H
  H60      1.0000 0.94100  0.27820  0.75960  Biso   1.000  H
  N25      1.0000 0.22400  0.91430  0.33920  Biso   1.000  N
  N26      1.0000 0.77600  0.08570  0.66080  Biso   1.000  N
  N27      1.0000 0.12900  0.83540  0.32900  Biso   1.000  N
  N28      1.0000 0.87100  0.16460  0.67100  Biso   1.000  N
  N29      1.0000 0.20660  0.82990  0.23370  Biso   1.000  N
  N30      1.0000 0.79340  0.17010  0.76630  Biso   1.000  N
  Mo13     1.0000 0.55487  0.31565  0.38148  Biso   1.000  Mo
  Mo14     1.0000 0.44513  0.68435  0.61852  Biso   1.000  Mo
  Mo15     1.0000 0.36965  0.43582  0.30218  Biso   1.000  Mo
  Mo16     1.0000 0.63035  0.56418  0.69782  Biso   1.000  Mo
  Mo17     1.0000 0.74158  0.71921  0.58706  Biso   1.000  Mo
  Mo18     1.0000 0.25842  0.28079  0.41294  Biso   1.000  Mo
  Mo19     1.0000 0.69019  0.38404  0.57811  Biso   1.000  Mo
  Mo20     1.0000 0.30981  0.61596  0.42189  Biso   1.000  Mo
  Mo21     1.0000 0.79379  0.53598  0.46344  Biso   1.000  Mo
  Mo22     1.0000 0.20621  0.46402  0.53656  Biso   1.000  Mo
  Mo23     1.0000 0.60774  0.65585  0.38996  Biso   1.000  Mo
  Mo24     1.0000 0.39226  0.34415  0.61004  Biso   1.000  Mo
  O45      1.0000 0.70000  0.41850  0.39470  Biso   1.000  O
  O46      1.0000 0.30000  0.58150  0.60530  Biso   1.000  O
  O47      1.0000 0.47460  0.36470  0.30940  Biso   1.000  O
  O48      1.0000 0.52540  0.63530  0.69060  Biso   1.000  O
  O49      1.0000 0.39710  0.25330  0.39410  Biso   1.000  O
  O50      1.0000 0.60290  0.74670  0.60590  Biso   1.000  O
  O51      1.0000 0.92870  0.55010  0.44490  Biso   1.000  O
  O52      1.0000 0.07130  0.44990  0.55510  Biso   1.000  O
  O53      1.0000 0.30780  0.40460  0.21080  Biso   1.000  O
  O54      1.0000 0.69220  0.59540  0.78920  Biso   1.000  O
  O55      1.0000 0.28510  0.51470  0.33880  Biso   1.000  O
  O56      1.0000 0.71490  0.48530  0.66120  Biso   1.000  O
  O57      1.0000 0.50390  0.54230  0.31290  Biso   1.000  O
  O58      1.0000 0.49610  0.45770  0.68710  Biso   1.000  O
  O59      1.0000 0.58490  0.23100  0.32620  Biso   1.000  O
  O60      1.0000 0.41510  0.76900  0.67380  Biso   1.000  O
  O61      1.0000 0.77830  0.32920  0.61390  Biso   1.000  O
  O62      1.0000 0.22170  0.67080  0.38610  Biso   1.000  O
  O63      1.0000 0.62260  0.30800  0.47830  Biso   1.000  O
  O64      1.0000 0.37740  0.69200  0.52170  Biso   1.000  O
  O65      1.0000 0.68760  0.73070  0.48550  Biso   1.000  O
  O66      1.0000 0.31240  0.26930  0.51450  Biso   1.000  O
  O67      1.0000 0.85210  0.82160  0.62530  Biso   1.000  O
  O68      1.0000 0.14790  0.17840  0.37470  Biso   1.000  O
  O69      1.0000 0.53940  0.32310  0.60050  Biso   1.000  O
  O70      1.0000 0.46060  0.67690  0.39950  Biso   1.000  O
  O71      1.0000 0.82650  0.64420  0.54170  Biso   1.000  O
  O72      1.0000 0.17350  0.35580  0.45830  Biso   1.000  O
  O73      1.0000 0.25830  0.34040  0.33500  Biso   1.000  O
  O74      1.0000 0.74170  0.65960  0.66500  Biso   1.000  O
  O75      1.0000 0.79820  0.46950  0.53850  Biso   1.000  O
  O76      1.0000 0.20180  0.53050  0.46150  Biso   1.000  O
  O77      1.0000 0.72620  0.59580  0.39590  Biso   1.000  O
  O78      1.0000 0.27380  0.40420  0.60410  Biso   1.000  O
  O79      1.0000 0.65740  0.72680  0.33690  Biso   1.000  O
  O80      1.0000 0.34260  0.27320  0.66310  Biso   1.000  O
  O81      1.0000 0.61310  0.57360  0.48930  Biso   1.000  O
  O82      1.0000 0.38690  0.42640  0.51070  Biso   1.000  O
  O83      1.0000 0.46230  0.53430  0.43290  Biso   1.000  O
  O84      1.0000 0.53770  0.46570  0.56710  Biso   1.000  O
  O85      1.0000 0.59190  0.45080  0.48580  Biso   1.000  O
  O86      1.0000 0.40810  0.54920  0.51420  Biso   1.000  O
  O87      1.0000 0.44550  0.41930  0.42980  Biso   1.000  O
  O88      1.0000 0.55450  0.58070  0.57020  Biso   1.000  O
  P2       1.0000 0.50000  0.50000  0.50000  Biso   1.000  P
  O89      1.0000 0.87140  0.71830  0.29430  Biso   1.000  O
  O90      1.0000 0.12860  0.28170  0.70570  Biso   1.000  O
