data_image0
_cell_length_a       9.175
_cell_length_b       9.175
_cell_length_c       11.753
_cell_angle_alpha    90
_cell_angle_beta     90
_cell_angle_gamma    120

_symmetry_space_group_name_H-M    "P 1"
_symmetry_int_tables_number       1

loop_
  _symmetry_equiv_pos_as_xyz
  'x, y, z'

loop_
  _atom_site_label
  _atom_site_occupancy
  _atom_site_fract_x
  _atom_site_fract_y
  _atom_site_fract_z
  _atom_site_thermal_displace_type
  _atom_site_B_iso_or_equiv
  _atom_site_type_symbol
  Cu1      1.0000 0.99990  0.19100  0.00000  Biso   1.000  Cu
  Cu2      1.0000 0.80900  0.80890  0.33333  Biso   1.000  Cu
  Cu3      1.0000 0.19110  0.00010  0.66667  Biso   1.000  Cu
  C1       1.0000 0.90500  0.04800  0.12600  Biso   1.000  C
  C2       1.0000 0.95200  0.85700  0.45933  Biso   1.000  C
  C3       1.0000 0.14300  0.09500  0.79267  Biso   1.000  C
  N1       1.0000 0.86000  0.95800  0.20300  Biso   1.000  N
  N2       1.0000 0.04200  0.90200  0.53633  Biso   1.000  N
  N3       1.0000 0.09800  0.14000  0.86967  Biso   1.000  N
  N4       1.0000 0.84000  0.28900  0.96100  Biso   1.000  N
  N5       1.0000 0.71100  0.55100  0.29433  Biso   1.000  N
  N6       1.0000 0.44900  0.16000  0.62767  Biso   1.000  N
  C4       1.0000 0.68200  0.20600  0.92700  Biso   1.000  C
  C5       1.0000 0.79400  0.47600  0.26033  Biso   1.000  C
  C6       1.0000 0.52400  0.31800  0.59367  Biso   1.000  C
  C7       1.0000 0.58800  0.29200  0.91200  Biso   1.000  C
  C8       1.0000 0.70800  0.29600  0.24533  Biso   1.000  C
  C9       1.0000 0.70400  0.41200  0.57867  Biso   1.000  C
  C10      1.0000 0.67100  0.45900  0.93100  Biso   1.000  C
  C11      1.0000 0.54100  0.21200  0.26433  Biso   1.000  C
  C12      1.0000 0.78800  0.32900  0.59767  Biso   1.000  C
  C13      1.0000 0.83300  0.55300  0.96400  Biso   1.000  C
  C14      1.0000 0.44700  0.28000  0.29733  Biso   1.000  C
  C15      1.0000 0.72000  0.16700  0.63067  Biso   1.000  C
  C16      1.0000 0.91300  0.45300  0.98000  Biso   1.000  C
  C17      1.0000 0.54700  0.46000  0.31333  Biso   1.000  C
  C18      1.0000 0.54000  0.08700  0.64667  Biso   1.000  C
  C19      1.0000 0.91300  0.72300  0.98200  Biso   1.000  C
  C20      1.0000 0.27700  0.19000  0.31533  Biso   1.000  C
  C21      1.0000 0.81000  0.08700  0.64867  Biso   1.000  C
  N7       1.0000 0.16000  0.44700  0.04000  Biso   1.000  N
  N8       1.0000 0.55300  0.71300  0.37333  Biso   1.000  N
  N9       1.0000 0.28700  0.84000  0.70667  Biso   1.000  N
  C22      1.0000 0.32000  0.52520  0.07400  Biso   1.000  C
  C23      1.0000 0.47480  0.79480  0.40733  Biso   1.000  C
  C24      1.0000 0.20520  0.68000  0.74067  Biso   1.000  C
  C25      1.0000 0.41200  0.69900  0.09100  Biso   1.000  C
  C26      1.0000 0.30100  0.71300  0.42433  Biso   1.000  C
  C27      1.0000 0.28700  0.58800  0.75767  Biso   1.000  C
  C28      1.0000 0.34000  0.79400  0.07100  Biso   1.000  C
  C29      1.0000 0.20600  0.54600  0.40433  Biso   1.000  C
  C30      1.0000 0.45400  0.66000  0.73767  Biso   1.000  C
  C31      1.0000 0.17100  0.71800  0.03600  Biso   1.000  C
  C32      1.0000 0.28200  0.45300  0.36933  Biso   1.000  C
  C33      1.0000 0.54700  0.82900  0.70267  Biso   1.000  C
  C34      1.0000 0.08600  0.54000  0.01900  Biso   1.000  C
  C35      1.0000 0.46000  0.54600  0.35233  Biso   1.000  C
  C36      1.0000 0.45400  0.91400  0.68567  Biso   1.000  C
  C37      1.0000 0.08100  0.80300  0.01600  Biso   1.000  C
  C38      1.0000 0.19700  0.27800  0.34933  Biso   1.000  C
  C39      1.0000 0.72200  0.91900  0.68267  Biso   1.000  C
  H1       1.0000 0.62800  0.08600  0.91200  Biso   1.000  H
  H2       1.0000 0.91400  0.54200  0.24533  Biso   1.000  H
  H3       1.0000 0.45800  0.37200  0.57867  Biso   1.000  H
  H4       1.0000 0.47100  0.24000  0.89100  Biso   1.000  H
  H5       1.0000 0.76000  0.23100  0.22433  Biso   1.000  H
  H6       1.0000 0.76900  0.52900  0.55767  Biso   1.000  H
  H7       1.0000 0.61400  0.52300  0.92000  Biso   1.000  H
  H8       1.0000 0.47700  0.09100  0.25333  Biso   1.000  H
  H9       1.0000 0.90900  0.38600  0.58667  Biso   1.000  H
  H10      1.0000 0.86600  0.78800  0.97200  Biso   1.000  H
  H11      1.0000 0.21200  0.07800  0.30533  Biso   1.000  H
  H12      1.0000 0.92200  0.13400  0.63867  Biso   1.000  H
  H13      1.0000 0.37300  0.45300  0.08600  Biso   1.000  H
  H14      1.0000 0.54700  0.92000  0.41933  Biso   1.000  H
  H15      1.0000 0.08000  0.62700  0.75267  Biso   1.000  H
  H16      1.0000 0.53500  0.74600  0.11600  Biso   1.000  H
  H17      1.0000 0.25400  0.78900  0.44933  Biso   1.000  H
  H18      1.0000 0.21100  0.46500  0.78267  Biso   1.000  H
  H19      1.0000 0.41500  0.90900  0.08800  Biso   1.000  H
  H20      1.0000 0.09100  0.50600  0.42133  Biso   1.000  H
  H21      1.0000 0.49400  0.58500  0.75467  Biso   1.000  H
  H22      1.0000 0.14500  0.92900  0.02800  Biso   1.000  H
  H23      1.0000 0.07100  0.21600  0.36133  Biso   1.000  H
  H24      1.0000 0.78400  0.85500  0.69467  Biso   1.000  H
