data_image0
_cell_length_a       14.541
_cell_length_b       14.541
_cell_length_c       12.997
_cell_angle_alpha    90
_cell_angle_beta     90
_cell_angle_gamma    120

_symmetry_space_group_name_H-M    "P 1"
_symmetry_int_tables_number       1

loop_
  _symmetry_equiv_pos_as_xyz
  'x, y, z'

loop_
  _atom_site_label
  _atom_site_occupancy
  _atom_site_fract_x
  _atom_site_fract_y
  _atom_site_fract_z
  _atom_site_thermal_displace_type
  _atom_site_B_iso_or_equiv
  _atom_site_type_symbol
  Cu1      1.0000 0.11188  0.05831  0.98760  Biso   1.000  Cu
  Cu2      1.0000 0.94169  0.05357  0.32093  Biso   1.000  Cu
  Cu3      1.0000 0.94643  0.88812  0.65427  Biso   1.000  Cu
  N1       1.0000 0.24800  0.04360  0.02610  Biso   1.000  N
  N2       1.0000 0.95640  0.20440  0.35943  Biso   1.000  N
  N3       1.0000 0.79560  0.75200  0.69277  Biso   1.000  N
  N4       1.0000 0.24440  0.20580  0.95250  Biso   1.000  N
  N5       1.0000 0.79420  0.03860  0.28583  Biso   1.000  N
  N6       1.0000 0.96140  0.75560  0.61917  Biso   1.000  N
  N7       1.0000 0.04670  0.99260  0.85460  Biso   1.000  N
  N8       1.0000 0.00740  0.05410  0.18793  Biso   1.000  N
  N9       1.0000 0.94590  0.95330  0.52127  Biso   1.000  N
  C1       1.0000 0.23790  0.95500  0.06490  Biso   1.000  C
  C2       1.0000 0.04500  0.28290  0.39823  Biso   1.000  C
  C3       1.0000 0.71710  0.76210  0.73157  Biso   1.000  C
  H1       1.0000 0.17010  0.89790  0.07610  Biso   1.000  H
  H2       1.0000 0.10210  0.27220  0.40943  Biso   1.000  H
  H3       1.0000 0.72780  0.82990  0.74277  Biso   1.000  H
  C4       1.0000 0.32400  0.94400  0.08930  Biso   1.000  C
  C5       1.0000 0.05600  0.38000  0.42263  Biso   1.000  C
  C6       1.0000 0.62000  0.67600  0.75597  Biso   1.000  C
  H4       1.0000 0.31970  0.88860  0.12860  Biso   1.000  H
  H5       1.0000 0.11140  0.43110  0.46193  Biso   1.000  H
  H6       1.0000 0.56890  0.68030  0.79527  Biso   1.000  H
  C7       1.0000 0.41830  0.02600  0.04810  Biso   1.000  C
  C8       1.0000 0.97400  0.39230  0.38143  Biso   1.000  C
  C9       1.0000 0.60770  0.58170  0.71477  Biso   1.000  C
  H7       1.0000 0.47420  0.01330  0.03680  Biso   1.000  H
  H8       1.0000 0.98670  0.46090  0.37013  Biso   1.000  H
  H9       1.0000 0.53910  0.52580  0.70347  Biso   1.000  H
  C10      1.0000 0.43190  0.11900  0.02500  Biso   1.000  C
  C11      1.0000 0.88100  0.31290  0.35833  Biso   1.000  C
  C12      1.0000 0.68710  0.56810  0.69167  Biso   1.000  C
  H10      1.0000 0.49930  0.17870  0.02430  Biso   1.000  H
  H11      1.0000 0.82130  0.32060  0.35763  Biso   1.000  H
  H12      1.0000 0.67940  0.50070  0.69097  Biso   1.000  H
  C13      1.0000 0.34310  0.12620  0.00140  Biso   1.000  C
  C14      1.0000 0.87380  0.21690  0.33473  Biso   1.000  C
  C15      1.0000 0.78310  0.65690  0.66807  Biso   1.000  C
  C16      1.0000 0.33920  0.21960  0.96350  Biso   1.000  C
  C17      1.0000 0.78040  0.11960  0.29683  Biso   1.000  C
  C18      1.0000 0.88040  0.66080  0.63017  Biso   1.000  C
  C19      1.0000 0.43660  0.30700  0.93120  Biso   1.000  C
  C20      1.0000 0.69300  0.12960  0.26453  Biso   1.000  C
  C21      1.0000 0.87040  0.56340  0.59787  Biso   1.000  C
  H13      1.0000 0.50430  0.31550  0.92730  Biso   1.000  H
  H14      1.0000 0.68450  0.18880  0.26063  Biso   1.000  H
  H15      1.0000 0.81120  0.49570  0.59397  Biso   1.000  H
  C22      1.0000 0.40230  0.37240  0.90820  Biso   1.000  C
  C23      1.0000 0.62760  0.02990  0.24153  Biso   1.000  C
  C24      1.0000 0.97010  0.59770  0.57487  Biso   1.000  C
  H16      1.0000 0.46520  0.43600  0.89740  Biso   1.000  H
  H17      1.0000 0.56400  0.02920  0.23073  Biso   1.000  H
  H18      1.0000 0.97080  0.53480  0.56407  Biso   1.000  H
  C25      1.0000 0.33100  0.39950  0.89180  Biso   1.000  C
  C26      1.0000 0.60050  0.93150  0.22513  Biso   1.000  C
  C27      1.0000 0.06850  0.66900  0.55847  Biso   1.000  C
  H19      1.0000 0.33590  0.46320  0.87260  Biso   1.000  H
  H20      1.0000 0.53680  0.87270  0.20593  Biso   1.000  H
  H21      1.0000 0.12730  0.66410  0.53927  Biso   1.000  H
  C28      1.0000 0.23830  0.29060  0.91520  Biso   1.000  C
  C29      1.0000 0.70940  0.94770  0.24853  Biso   1.000  C
  C30      1.0000 0.05230  0.76170  0.58187  Biso   1.000  C
  H22      1.0000 0.17070  0.28030  0.90310  Biso   1.000  H
  H23      1.0000 0.71970  0.89040  0.23643  Biso   1.000  H
  H24      1.0000 0.10960  0.82930  0.56977  Biso   1.000  H
  C31      1.0000 0.00920  0.95570  0.77490  Biso   1.000  C
  C32      1.0000 0.04430  0.05350  0.10823  Biso   1.000  C
  C33      1.0000 0.94650  0.99080  0.44157  Biso   1.000  C
  Cu4      1.0000 0.60903  0.22157  0.68107  Biso   1.000  Cu
  Cu5      1.0000 0.77843  0.38746  0.01440  Biso   1.000  Cu
  Cu6      1.0000 0.61254  0.39097  0.34774  Biso   1.000  Cu
  N10      1.0000 0.64680  0.10480  0.62870  Biso   1.000  N
  N11      1.0000 0.89520  0.54200  0.96203  Biso   1.000  N
  N12      1.0000 0.45800  0.35320  0.29537  Biso   1.000  N
  N13      1.0000 0.46530  0.07350  0.70130  Biso   1.000  N
  N14      1.0000 0.92650  0.39180  0.03463  Biso   1.000  N
  N15      1.0000 0.60820  0.53470  0.36797  Biso   1.000  N
  N16      1.0000 0.67020  0.28490  0.81510  Biso   1.000  N
  N17      1.0000 0.71510  0.38530  0.14843  Biso   1.000  N
  N18      1.0000 0.61470  0.32980  0.48177  Biso   1.000  N
  C34      1.0000 0.74030  0.12810  0.58930  Biso   1.000  C
  C35      1.0000 0.87190  0.61220  0.92263  Biso   1.000  C
  C36      1.0000 0.38780  0.25970  0.25597  Biso   1.000  C
  H25      1.0000 0.79150  0.19870  0.57790  Biso   1.000  H
  H26      1.0000 0.80130  0.59280  0.91123  Biso   1.000  H
  H27      1.0000 0.40720  0.20850  0.24457  Biso   1.000  H
  C37      1.0000 0.76210  0.04950  0.56550  Biso   1.000  C
  C38      1.0000 0.95050  0.71260  0.89883  Biso   1.000  C
  C39      1.0000 0.28740  0.23790  0.23217  Biso   1.000  C
  H28      1.0000 0.82890  0.06730  0.54060  Biso   1.000  H
  H29      1.0000 0.93270  0.76160  0.87393  Biso   1.000  H
  H30      1.0000 0.23840  0.17110  0.20727  Biso   1.000  H
  C40      1.0000 0.68700  0.94530  0.57790  Biso   1.000  C
  C41      1.0000 0.05470  0.74170  0.91123  Biso   1.000  C
  C42      1.0000 0.25830  0.31300  0.24457  Biso   1.000  C
  H31      1.0000 0.69970  0.89120  0.55850  Biso   1.000  H
  H32      1.0000 0.10880  0.80850  0.89183  Biso   1.000  H
  H33      1.0000 0.19150  0.30030  0.22517  Biso   1.000  H
  C43      1.0000 0.59330  0.92420  0.61970  Biso   1.000  C
  C44      1.0000 0.07580  0.66910  0.95303  Biso   1.000  C
  C45      1.0000 0.33090  0.40670  0.28637  Biso   1.000  C
  H34      1.0000 0.54300  0.85400  0.63420  Biso   1.000  H
  H35      1.0000 0.14600  0.68900  0.96753  Biso   1.000  H
  H36      1.0000 0.31100  0.45700  0.30087  Biso   1.000  H
  C46      1.0000 0.56930  0.00280  0.64170  Biso   1.000  C
  C47      1.0000 0.99720  0.56650  0.97503  Biso   1.000  C
  C48      1.0000 0.43350  0.43070  0.30837  Biso   1.000  C
  C49      1.0000 0.46960  0.98890  0.68440  Biso   1.000  C
  C50      1.0000 0.01110  0.48070  0.01773  Biso   1.000  C
  C51      1.0000 0.51930  0.53040  0.35107  Biso   1.000  C
  C52      1.0000 0.38650  0.88530  0.70240  Biso   1.000  C
  C53      1.0000 0.11470  0.50120  0.03573  Biso   1.000  C
  C54      1.0000 0.49880  0.61350  0.36907  Biso   1.000  C
  H37      1.0000 0.39390  0.82620  0.69080  Biso   1.000  H
  H38      1.0000 0.17380  0.56770  0.02413  Biso   1.000  H
  H39      1.0000 0.43230  0.60610  0.35747  Biso   1.000  H
  C55      1.0000 0.29150  0.87600  0.73890  Biso   1.000  C
  C56      1.0000 0.12400  0.41550  0.07223  Biso   1.000  C
  C57      1.0000 0.58450  0.70850  0.40557  Biso   1.000  C
  H40      1.0000 0.23230  0.80930  0.74920  Biso   1.000  H
  H41      1.0000 0.19070  0.42300  0.08253  Biso   1.000  H
  H42      1.0000 0.57700  0.76770  0.41587  Biso   1.000  H
  C58      1.0000 0.28640  0.96770  0.75980  Biso   1.000  C
  C59      1.0000 0.03230  0.31870  0.09313  Biso   1.000  C
  C60      1.0000 0.68130  0.71360  0.42647  Biso   1.000  C
  H43      1.0000 0.22540  0.96310  0.78780  Biso   1.000  H
  H44      1.0000 0.03690  0.26230  0.12113  Biso   1.000  H
  H45      1.0000 0.73770  0.77460  0.45447  Biso   1.000  H
  C61      1.0000 0.37240  0.06360  0.73810  Biso   1.000  C
  C62      1.0000 0.93640  0.30880  0.07143  Biso   1.000  C
  C63      1.0000 0.69120  0.62760  0.40477  Biso   1.000  C
  H46      1.0000 0.36820  0.12460  0.74860  Biso   1.000  H
  H47      1.0000 0.87540  0.24360  0.08193  Biso   1.000  H
  H48      1.0000 0.75640  0.63180  0.41527  Biso   1.000  H
  C64      1.0000 0.70780  0.32000  0.89180  Biso   1.000  C
  C65      1.0000 0.68000  0.38780  0.22513  Biso   1.000  C
  C66      1.0000 0.61220  0.29220  0.55847  Biso   1.000  C
  Cu7      1.0000 0.27659  0.55450  0.64876  Biso   1.000  Cu
  Cu8      1.0000 0.44550  0.72209  0.98209  Biso   1.000  Cu
  Cu9      1.0000 0.27791  0.72341  0.31543  Biso   1.000  Cu
  N19      1.0000 0.27520  0.40880  0.62690  Biso   1.000  N
  N20      1.0000 0.59120  0.86640  0.96023  Biso   1.000  N
  N21      1.0000 0.13360  0.72480  0.29357  Biso   1.000  N
  N22      1.0000 0.12370  0.43610  0.70020  Biso   1.000  N
  N23      1.0000 0.56390  0.68760  0.03353  Biso   1.000  N
  N24      1.0000 0.31240  0.87630  0.36687  Biso   1.000  N
  N25      1.0000 0.27990  0.61960  0.51820  Biso   1.000  N
  N26      1.0000 0.38040  0.66030  0.85153  Biso   1.000  N
  N27      1.0000 0.33970  0.72010  0.18487  Biso   1.000  N
  C67      1.0000 0.35560  0.39670  0.58960  Biso   1.000  C
  C68      1.0000 0.60330  0.95890  0.92293  Biso   1.000  C
  C69      1.0000 0.04110  0.64440  0.25627  Biso   1.000  C
  H49      1.0000 0.41750  0.45730  0.56900  Biso   1.000  H
  H50      1.0000 0.54270  0.96020  0.90233  Biso   1.000  H
  H51      1.0000 0.03980  0.58250  0.23567  Biso   1.000  H
  C70      1.0000 0.35150  0.30240  0.58060  Biso   1.000  C
  C71      1.0000 0.69760  0.04910  0.91393  Biso   1.000  C
  C72      1.0000 0.95090  0.64850  0.24727  Biso   1.000  C
  H52      1.0000 0.41160  0.29950  0.56130  Biso   1.000  H
  H53      1.0000 0.70050  0.11210  0.89463  Biso   1.000  H
  H54      1.0000 0.88790  0.58840  0.22797  Biso   1.000  H
  C73      1.0000 0.25420  0.20710  0.60080  Biso   1.000  C
  C74      1.0000 0.79290  0.04710  0.93413  Biso   1.000  C
  C75      1.0000 0.95290  0.74580  0.26747  Biso   1.000  C
  H55      1.0000 0.24600  0.14030  0.58930  Biso   1.000  H
  H56      1.0000 0.85970  0.10570  0.92263  Biso   1.000  H
  H57      1.0000 0.89430  0.75400  0.25597  Biso   1.000  H
  C76      1.0000 0.17290  0.22050  0.63850  Biso   1.000  C
  C77      1.0000 0.77950  0.95240  0.97183  Biso   1.000  C
  C78      1.0000 0.04760  0.82710  0.30517  Biso   1.000  C
  H58      1.0000 0.10880  0.16090  0.65630  Biso   1.000  H
  H59      1.0000 0.83910  0.94790  0.98963  Biso   1.000  H
  H60      1.0000 0.05210  0.89120  0.32297  Biso   1.000  H
  C79      1.0000 0.18450  0.32140  0.65070  Biso   1.000  C
  C80      1.0000 0.67860  0.86310  0.98403  Biso   1.000  C
  C81      1.0000 0.13690  0.81550  0.31737  Biso   1.000  C
  C82      1.0000 0.09920  0.33640  0.69010  Biso   1.000  C
  C83      1.0000 0.66360  0.76280  0.02343  Biso   1.000  C
  C84      1.0000 0.23720  0.90080  0.35677  Biso   1.000  C
  C85      1.0000 0.99980  0.25740  0.72590  Biso   1.000  C
  C86      1.0000 0.74260  0.74240  0.05923  Biso   1.000  C
  C87      1.0000 0.25760  0.00020  0.39257  Biso   1.000  C
  H61      1.0000 0.98320  0.18670  0.72580  Biso   1.000  H
  H62      1.0000 0.81330  0.79650  0.05913  Biso   1.000  H
  H63      1.0000 0.20350  0.01680  0.39247  Biso   1.000  H
  C88      1.0000 0.92680  0.28350  0.76130  Biso   1.000  C
  C89      1.0000 0.71650  0.64330  0.09463  Biso   1.000  C
  C90      1.0000 0.35670  0.07320  0.42797  Biso   1.000  C
  H64      1.0000 0.85870  0.23030  0.77880  Biso   1.000  H
  H65      1.0000 0.76970  0.62840  0.11213  Biso   1.000  H
  H66      1.0000 0.37160  0.14130  0.44547  Biso   1.000  H
  C91      1.0000 0.95300  0.38280  0.77030  Biso   1.000  C
  C92      1.0000 0.61720  0.57020  0.10363  Biso   1.000  C
  C93      1.0000 0.42980  0.04700  0.43697  Biso   1.000  C
  H67      1.0000 0.90530  0.40090  0.79840  Biso   1.000  H
  H68      1.0000 0.59910  0.50440  0.13173  Biso   1.000  H
  H69      1.0000 0.49560  0.09470  0.46507  Biso   1.000  H
  C94      1.0000 0.04940  0.45910  0.73890  Biso   1.000  C
  C95      1.0000 0.54090  0.59030  0.07223  Biso   1.000  C
  C96      1.0000 0.40970  0.95060  0.40557  Biso   1.000  C
  H70      1.0000 0.06650  0.52980  0.74350  Biso   1.000  H
  H71      1.0000 0.47020  0.53670  0.07683  Biso   1.000  H
  H72      1.0000 0.46330  0.93350  0.41017  Biso   1.000  H
  C97      1.0000 0.27760  0.65460  0.43910  Biso   1.000  C
  C98      1.0000 0.34540  0.62300  0.77243  Biso   1.000  C
  C99      1.0000 0.37700  0.72240  0.10577  Biso   1.000  C
