data_image0
_cell_length_a       9.043
_cell_length_b       9.043
_cell_length_c       11.625
_cell_angle_alpha    90
_cell_angle_beta     90
_cell_angle_gamma    120

_symmetry_space_group_name_H-M    "P 1"
_symmetry_int_tables_number       1

loop_
  _symmetry_equiv_pos_as_xyz
  'x, y, z'

loop_
  _atom_site_label
  _atom_site_occupancy
  _atom_site_fract_x
  _atom_site_fract_y
  _atom_site_fract_z
  _atom_site_thermal_displace_type
  _atom_site_B_iso_or_equiv
  _atom_site_type_symbol
  Cu1      1.0000 0.80952  0.80952  0.50000  Biso   1.000  Cu
  Cu2      1.0000 0.19048  0.00000  0.16667  Biso   1.000  Cu
  Cu3      1.0000 0.00000  0.19048  0.83333  Biso   1.000  Cu
  N1       1.0000 0.55660  0.71180  0.46020  Biso   1.000  N
  N2       1.0000 0.28820  0.84480  0.12687  Biso   1.000  N
  N3       1.0000 0.15520  0.44340  0.79353  Biso   1.000  N
  N4       1.0000 0.71180  0.55660  0.53980  Biso   1.000  N
  N5       1.0000 0.44340  0.15520  0.20647  Biso   1.000  N
  N6       1.0000 0.84480  0.28820  0.87313  Biso   1.000  N
  N7       1.0000 0.95360  0.85690  0.37370  Biso   1.000  N
  N8       1.0000 0.14310  0.09670  0.04037  Biso   1.000  N
  N9       1.0000 0.90330  0.04640  0.70703  Biso   1.000  N
  N10      1.0000 0.85690  0.95360  0.62630  Biso   1.000  N
  N11      1.0000 0.04640  0.90330  0.29297  Biso   1.000  N
  N12      1.0000 0.09670  0.14310  0.95963  Biso   1.000  N
  C1       1.0000 0.47350  0.79320  0.42860  Biso   1.000  C
  C2       1.0000 0.20680  0.68030  0.09527  Biso   1.000  C
  C3       1.0000 0.31970  0.52650  0.76193  Biso   1.000  C
  C4       1.0000 0.79320  0.47350  0.57140  Biso   1.000  C
  C5       1.0000 0.52650  0.31970  0.23807  Biso   1.000  C
  C6       1.0000 0.68030  0.20680  0.90473  Biso   1.000  C
  H1       1.0000 0.53660  0.91050  0.41700  Biso   1.000  H
  H2       1.0000 0.08950  0.62610  0.08367  Biso   1.000  H
  H3       1.0000 0.37390  0.46340  0.75033  Biso   1.000  H
  H4       1.0000 0.91050  0.53660  0.58300  Biso   1.000  H
  H5       1.0000 0.46340  0.37390  0.24967  Biso   1.000  H
  H6       1.0000 0.62610  0.08950  0.91633  Biso   1.000  H
  C7       1.0000 0.29540  0.71020  0.41220  Biso   1.000  C
  C8       1.0000 0.28980  0.58520  0.07887  Biso   1.000  C
  C9       1.0000 0.41480  0.70460  0.74553  Biso   1.000  C
  C10      1.0000 0.71020  0.29540  0.58780  Biso   1.000  C
  C11      1.0000 0.70460  0.41480  0.25447  Biso   1.000  C
  C12      1.0000 0.58520  0.28980  0.92113  Biso   1.000  C
  H7       1.0000 0.23680  0.76630  0.39120  Biso   1.000  H
  H8       1.0000 0.23370  0.47050  0.05787  Biso   1.000  H
  H9       1.0000 0.52950  0.76320  0.72453  Biso   1.000  H
  H10      1.0000 0.76630  0.23680  0.60880  Biso   1.000  H
  H11      1.0000 0.76320  0.52950  0.27547  Biso   1.000  H
  H12      1.0000 0.47050  0.23370  0.94213  Biso   1.000  H
  C13      1.0000 0.46330  0.54120  0.48180  Biso   1.000  C
  C14      1.0000 0.45880  0.92210  0.14847  Biso   1.000  C
  C15      1.0000 0.07790  0.53670  0.81513  Biso   1.000  C
  C16      1.0000 0.54120  0.46330  0.51820  Biso   1.000  C
  C17      1.0000 0.53670  0.07790  0.18487  Biso   1.000  C
  C18      1.0000 0.92210  0.45880  0.85153  Biso   1.000  C
  C19      1.0000 0.19860  0.28090  0.48000  Biso   1.000  C
  C20      1.0000 0.71910  0.91770  0.14667  Biso   1.000  C
  C21      1.0000 0.08230  0.80140  0.81333  Biso   1.000  C
  C22      1.0000 0.28090  0.19860  0.52000  Biso   1.000  C
  C23      1.0000 0.80140  0.08230  0.18667  Biso   1.000  C
  C24      1.0000 0.91770  0.71910  0.85333  Biso   1.000  C
  H13      1.0000 0.08270  0.21800  0.46300  Biso   1.000  H
  H14      1.0000 0.78200  0.86470  0.12967  Biso   1.000  H
  H15      1.0000 0.13530  0.91730  0.79633  Biso   1.000  H
  H16      1.0000 0.21800  0.08270  0.53700  Biso   1.000  H
  H17      1.0000 0.91730  0.13530  0.20367  Biso   1.000  H
  H18      1.0000 0.86470  0.78200  0.87033  Biso   1.000  H
  C25      1.0000 0.28210  0.44960  0.46510  Biso   1.000  C
  C26      1.0000 0.55040  0.83250  0.13177  Biso   1.000  C
  C27      1.0000 0.16750  0.71790  0.79843  Biso   1.000  C
  C28      1.0000 0.44960  0.28210  0.53490  Biso   1.000  C
  C29      1.0000 0.71790  0.16750  0.20157  Biso   1.000  C
  C30      1.0000 0.83250  0.55040  0.86823  Biso   1.000  C
  C31      1.0000 0.21960  0.54080  0.43020  Biso   1.000  C
  C32      1.0000 0.45920  0.67880  0.09687  Biso   1.000  C
  C33      1.0000 0.32120  0.78040  0.76353  Biso   1.000  C
  C34      1.0000 0.54080  0.21960  0.56980  Biso   1.000  C
  C35      1.0000 0.78040  0.32120  0.23647  Biso   1.000  C
  C36      1.0000 0.67880  0.45920  0.90313  Biso   1.000  C
  H19      1.0000 0.10310  0.48050  0.41470  Biso   1.000  H
  H20      1.0000 0.51950  0.62260  0.08137  Biso   1.000  H
  H21      1.0000 0.37740  0.89690  0.74803  Biso   1.000  H
  H22      1.0000 0.48050  0.10310  0.58530  Biso   1.000  H
  H23      1.0000 0.89690  0.37740  0.25197  Biso   1.000  H
  H24      1.0000 0.62260  0.51950  0.91863  Biso   1.000  H
