data_image0
_cell_length_a       16.562
_cell_length_b       8.5
_cell_length_c       24.473
_cell_angle_alpha    90
_cell_angle_beta     90
_cell_angle_gamma    90

_symmetry_space_group_name_H-M    "P 1"
_symmetry_int_tables_number       1

loop_
  _symmetry_equiv_pos_as_xyz
  'x, y, z'

loop_
  _atom_site_label
  _atom_site_occupancy
  _atom_site_fract_x
  _atom_site_fract_y
  _atom_site_fract_z
  _atom_site_thermal_displace_type
  _atom_site_B_iso_or_equiv
  _atom_site_type_symbol
  Cu1      1.0000 0.09381  0.75995  0.32886  Biso   1.000  Cu
  Cu2      1.0000 0.90619  0.24005  0.82886  Biso   1.000  Cu
  Cu3      1.0000 0.09381  0.24005  0.67114  Biso   1.000  Cu
  Cu4      1.0000 0.90619  0.75995  0.17114  Biso   1.000  Cu
  Cu5      1.0000 0.59381  0.25995  0.32886  Biso   1.000  Cu
  Cu6      1.0000 0.40619  0.74005  0.82886  Biso   1.000  Cu
  Cu7      1.0000 0.59381  0.74005  0.67114  Biso   1.000  Cu
  Cu8      1.0000 0.40619  0.25995  0.17114  Biso   1.000  Cu
  Cu9      1.0000 0.00575  0.50000  0.50000  Biso   1.000  Cu
  Cu10     1.0000 0.99425  0.50000  0.00000  Biso   1.000  Cu
  Cu11     1.0000 0.50575  0.00000  0.50000  Biso   1.000  Cu
  Cu12     1.0000 0.49425  0.00000  0.00000  Biso   1.000  Cu
  N1       1.0000 0.06930  0.65090  0.39446  Biso   1.000  N
  N2       1.0000 0.93070  0.34910  0.89446  Biso   1.000  N
  N3       1.0000 0.06930  0.34910  0.60554  Biso   1.000  N
  N4       1.0000 0.93070  0.65090  0.10554  Biso   1.000  N
  N5       1.0000 0.56930  0.15090  0.39446  Biso   1.000  N
  N6       1.0000 0.43070  0.84910  0.89446  Biso   1.000  N
  N7       1.0000 0.56930  0.84910  0.60554  Biso   1.000  N
  N8       1.0000 0.43070  0.15090  0.10554  Biso   1.000  N
  N9       1.0000 0.04770  0.59180  0.43470  Biso   1.000  N
  N10      1.0000 0.95230  0.40820  0.93470  Biso   1.000  N
  N11      1.0000 0.04770  0.40820  0.56530  Biso   1.000  N
  N12      1.0000 0.95230  0.59180  0.06530  Biso   1.000  N
  N13      1.0000 0.54770  0.09180  0.43470  Biso   1.000  N
  N14      1.0000 0.45230  0.90820  0.93470  Biso   1.000  N
  N15      1.0000 0.54770  0.90820  0.56530  Biso   1.000  N
  N16      1.0000 0.45230  0.09180  0.06530  Biso   1.000  N
  N17      1.0000 0.02220  0.78410  0.26926  Biso   1.000  N
  N18      1.0000 0.97780  0.21590  0.76926  Biso   1.000  N
  N19      1.0000 0.02220  0.21590  0.73074  Biso   1.000  N
  N20      1.0000 0.97780  0.78410  0.23074  Biso   1.000  N
  N21      1.0000 0.52220  0.28410  0.26926  Biso   1.000  N
  N22      1.0000 0.47780  0.71590  0.76926  Biso   1.000  N
  N23      1.0000 0.52220  0.71590  0.73074  Biso   1.000  N
  N24      1.0000 0.47780  0.28410  0.23074  Biso   1.000  N
  C1       1.0000 0.35610  0.10050  0.34960  Biso   1.000  C
  C2       1.0000 0.64390  0.89950  0.84960  Biso   1.000  C
  C3       1.0000 0.35610  0.89950  0.65040  Biso   1.000  C
  C4       1.0000 0.64390  0.10050  0.15040  Biso   1.000  C
  C5       1.0000 0.85610  0.60050  0.34960  Biso   1.000  C
  C6       1.0000 0.14390  0.39950  0.84960  Biso   1.000  C
  C7       1.0000 0.85610  0.39950  0.65040  Biso   1.000  C
  C8       1.0000 0.14390  0.60050  0.15040  Biso   1.000  C
  H1       1.0000 0.38690  0.18680  0.36020  Biso   1.000  H
  H2       1.0000 0.61310  0.81320  0.86020  Biso   1.000  H
  H3       1.0000 0.38690  0.81320  0.63980  Biso   1.000  H
  H4       1.0000 0.61310  0.18680  0.13980  Biso   1.000  H
  H5       1.0000 0.88690  0.68680  0.36020  Biso   1.000  H
  H6       1.0000 0.11310  0.31320  0.86020  Biso   1.000  H
  H7       1.0000 0.88690  0.31320  0.63980  Biso   1.000  H
  H8       1.0000 0.11310  0.68680  0.13980  Biso   1.000  H
  C9       1.0000 0.39490  0.97040  0.32900  Biso   1.000  C
  C10      1.0000 0.60510  0.02960  0.82900  Biso   1.000  C
  C11      1.0000 0.39490  0.02960  0.67100  Biso   1.000  C
  C12      1.0000 0.60510  0.97040  0.17100  Biso   1.000  C
  C13      1.0000 0.89490  0.47040  0.32900  Biso   1.000  C
  C14      1.0000 0.10510  0.52960  0.82900  Biso   1.000  C
  C15      1.0000 0.89490  0.52960  0.67100  Biso   1.000  C
  C16      1.0000 0.10510  0.47040  0.17100  Biso   1.000  C
  H9       1.0000 0.45020  0.96740  0.32260  Biso   1.000  H
  H10      1.0000 0.54980  0.03260  0.82260  Biso   1.000  H
  H11      1.0000 0.45020  0.03260  0.67740  Biso   1.000  H
  H12      1.0000 0.54980  0.96740  0.17740  Biso   1.000  H
  H13      1.0000 0.95020  0.46740  0.32260  Biso   1.000  H
  H14      1.0000 0.04980  0.53260  0.82260  Biso   1.000  H
  H15      1.0000 0.95020  0.53260  0.67740  Biso   1.000  H
  H16      1.0000 0.04980  0.46740  0.17740  Biso   1.000  H
  N25      1.0000 0.21310  0.72750  0.31268  Biso   1.000  N
  N26      1.0000 0.78690  0.27250  0.81268  Biso   1.000  N
  N27      1.0000 0.21310  0.27250  0.68732  Biso   1.000  N
  N28      1.0000 0.78690  0.72750  0.18732  Biso   1.000  N
  N29      1.0000 0.71310  0.22750  0.31268  Biso   1.000  N
  N30      1.0000 0.28690  0.77250  0.81268  Biso   1.000  N
  N31      1.0000 0.71310  0.77250  0.68732  Biso   1.000  N
  N32      1.0000 0.28690  0.22750  0.18732  Biso   1.000  N
  C17      1.0000 0.25010  0.57900  0.29440  Biso   1.000  C
  C18      1.0000 0.74990  0.42100  0.79440  Biso   1.000  C
  C19      1.0000 0.25010  0.42100  0.70560  Biso   1.000  C
  C20      1.0000 0.74990  0.57900  0.20560  Biso   1.000  C
  C21      1.0000 0.75010  0.07900  0.29440  Biso   1.000  C
  C22      1.0000 0.24990  0.92100  0.79440  Biso   1.000  C
  C23      1.0000 0.75010  0.92100  0.70560  Biso   1.000  C
  C24      1.0000 0.24990  0.07900  0.20560  Biso   1.000  C
  H17      1.0000 0.21850  0.49070  0.28750  Biso   1.000  H
  H18      1.0000 0.78150  0.50930  0.78750  Biso   1.000  H
  H19      1.0000 0.21850  0.50930  0.71250  Biso   1.000  H
  H20      1.0000 0.78150  0.49070  0.21250  Biso   1.000  H
  H21      1.0000 0.71850  0.99070  0.28750  Biso   1.000  H
  H22      1.0000 0.28150  0.00930  0.78750  Biso   1.000  H
  H23      1.0000 0.71850  0.00930  0.71250  Biso   1.000  H
  H24      1.0000 0.28150  0.99070  0.21250  Biso   1.000  H
  C25      1.0000 0.33500  0.57400  0.28750  Biso   1.000  C
  C26      1.0000 0.66500  0.42600  0.78750  Biso   1.000  C
  C27      1.0000 0.33500  0.42600  0.71250  Biso   1.000  C
  C28      1.0000 0.66500  0.57400  0.21250  Biso   1.000  C
  C29      1.0000 0.83500  0.07400  0.28750  Biso   1.000  C
  C30      1.0000 0.16500  0.92600  0.78750  Biso   1.000  C
  C31      1.0000 0.83500  0.92600  0.71250  Biso   1.000  C
  C32      1.0000 0.16500  0.07400  0.21250  Biso   1.000  C
  H25      1.0000 0.36020  0.48270  0.27530  Biso   1.000  H
  H26      1.0000 0.63980  0.51730  0.77530  Biso   1.000  H
  H27      1.0000 0.36020  0.51730  0.72470  Biso   1.000  H
  H28      1.0000 0.63980  0.48270  0.22470  Biso   1.000  H
  H29      1.0000 0.86020  0.98270  0.27530  Biso   1.000  H
  H30      1.0000 0.13980  0.01730  0.77530  Biso   1.000  H
  H31      1.0000 0.86020  0.01730  0.72470  Biso   1.000  H
  H32      1.0000 0.13980  0.98270  0.22470  Biso   1.000  H
  C33      1.0000 0.38040  0.70880  0.29930  Biso   1.000  C
  C34      1.0000 0.61960  0.29120  0.79930  Biso   1.000  C
  C35      1.0000 0.38040  0.29120  0.70070  Biso   1.000  C
  C36      1.0000 0.61960  0.70880  0.20070  Biso   1.000  C
  C37      1.0000 0.88040  0.20880  0.29930  Biso   1.000  C
  C38      1.0000 0.11960  0.79120  0.79930  Biso   1.000  C
  C39      1.0000 0.88040  0.79120  0.70070  Biso   1.000  C
  C40      1.0000 0.11960  0.20880  0.20070  Biso   1.000  C
  H33      1.0000 0.43600  0.70750  0.29420  Biso   1.000  H
  H34      1.0000 0.56400  0.29250  0.79420  Biso   1.000  H
  H35      1.0000 0.43600  0.29250  0.70580  Biso   1.000  H
  H36      1.0000 0.56400  0.70750  0.20580  Biso   1.000  H
  H37      1.0000 0.93600  0.20750  0.29420  Biso   1.000  H
  H38      1.0000 0.06400  0.79250  0.79420  Biso   1.000  H
  H39      1.0000 0.93600  0.79250  0.70580  Biso   1.000  H
  H40      1.0000 0.06400  0.20750  0.20580  Biso   1.000  H
  C41      1.0000 0.34370  0.84290  0.31840  Biso   1.000  C
  C42      1.0000 0.65630  0.15710  0.81840  Biso   1.000  C
  C43      1.0000 0.34370  0.15710  0.68160  Biso   1.000  C
  C44      1.0000 0.65630  0.84290  0.18160  Biso   1.000  C
  C45      1.0000 0.84370  0.34290  0.31840  Biso   1.000  C
  C46      1.0000 0.15630  0.65710  0.81840  Biso   1.000  C
  C47      1.0000 0.84370  0.65710  0.68160  Biso   1.000  C
  C48      1.0000 0.15630  0.34290  0.18160  Biso   1.000  C
  C49      1.0000 0.26110  0.85350  0.32320  Biso   1.000  C
  C50      1.0000 0.73890  0.14650  0.82320  Biso   1.000  C
  C51      1.0000 0.26110  0.14650  0.67680  Biso   1.000  C
  C52      1.0000 0.73890  0.85350  0.17680  Biso   1.000  C
  C53      1.0000 0.76110  0.35350  0.32320  Biso   1.000  C
  C54      1.0000 0.23890  0.64650  0.82320  Biso   1.000  C
  C55      1.0000 0.76110  0.64650  0.67680  Biso   1.000  C
  C56      1.0000 0.23890  0.35350  0.17680  Biso   1.000  C
  N33      1.0000 0.14070  0.97990  0.34816  Biso   1.000  N
  N34      1.0000 0.85930  0.02010  0.84816  Biso   1.000  N
  N35      1.0000 0.14070  0.02010  0.65184  Biso   1.000  N
  N36      1.0000 0.85930  0.97990  0.15184  Biso   1.000  N
  N37      1.0000 0.64070  0.47990  0.34816  Biso   1.000  N
  N38      1.0000 0.35930  0.52010  0.84816  Biso   1.000  N
  N39      1.0000 0.64070  0.52010  0.65184  Biso   1.000  N
  N40      1.0000 0.35930  0.47990  0.15184  Biso   1.000  N
  C57      1.0000 0.10480  0.11610  0.36740  Biso   1.000  C
  C58      1.0000 0.89520  0.88390  0.86740  Biso   1.000  C
  C59      1.0000 0.10480  0.88390  0.63260  Biso   1.000  C
  C60      1.0000 0.89520  0.11610  0.13260  Biso   1.000  C
  C61      1.0000 0.60480  0.61610  0.36740  Biso   1.000  C
  C62      1.0000 0.39520  0.38390  0.86740  Biso   1.000  C
  C63      1.0000 0.60480  0.38390  0.63260  Biso   1.000  C
  C64      1.0000 0.39520  0.61610  0.13260  Biso   1.000  C
  H41      1.0000 0.04890  0.11780  0.37130  Biso   1.000  H
  H42      1.0000 0.95110  0.88220  0.87130  Biso   1.000  H
  H43      1.0000 0.04890  0.88220  0.62870  Biso   1.000  H
  H44      1.0000 0.95110  0.11780  0.12870  Biso   1.000  H
  H45      1.0000 0.54890  0.61780  0.37130  Biso   1.000  H
  H46      1.0000 0.45110  0.38220  0.87130  Biso   1.000  H
  H47      1.0000 0.54890  0.38220  0.62870  Biso   1.000  H
  H48      1.0000 0.45110  0.61780  0.12870  Biso   1.000  H
  C65      1.0000 0.14710  0.24720  0.38080  Biso   1.000  C
  C66      1.0000 0.85290  0.75280  0.88080  Biso   1.000  C
  C67      1.0000 0.14710  0.75280  0.61920  Biso   1.000  C
  C68      1.0000 0.85290  0.24720  0.11920  Biso   1.000  C
  C69      1.0000 0.64710  0.74720  0.38080  Biso   1.000  C
  C70      1.0000 0.35290  0.25280  0.88080  Biso   1.000  C
  C71      1.0000 0.64710  0.25280  0.61920  Biso   1.000  C
  C72      1.0000 0.35290  0.74720  0.11920  Biso   1.000  C
  H49      1.0000 0.12060  0.33610  0.39380  Biso   1.000  H
  H50      1.0000 0.87940  0.66390  0.89380  Biso   1.000  H
  H51      1.0000 0.12060  0.66390  0.60620  Biso   1.000  H
  H52      1.0000 0.87940  0.33610  0.10620  Biso   1.000  H
  H53      1.0000 0.62060  0.83610  0.39380  Biso   1.000  H
  H54      1.0000 0.37940  0.16390  0.89380  Biso   1.000  H
  H55      1.0000 0.62060  0.16390  0.60620  Biso   1.000  H
  H56      1.0000 0.37940  0.83610  0.10620  Biso   1.000  H
  C73      1.0000 0.23160  0.24690  0.37463  Biso   1.000  C
  C74      1.0000 0.76840  0.75310  0.87463  Biso   1.000  C
  C75      1.0000 0.23160  0.75310  0.62537  Biso   1.000  C
  C76      1.0000 0.76840  0.24690  0.12537  Biso   1.000  C
  C77      1.0000 0.73160  0.74690  0.37463  Biso   1.000  C
  C78      1.0000 0.26840  0.25310  0.87463  Biso   1.000  C
  C79      1.0000 0.73160  0.25310  0.62537  Biso   1.000  C
  C80      1.0000 0.26840  0.74690  0.12537  Biso   1.000  C
  H57      1.0000 0.26130  0.33650  0.38310  Biso   1.000  H
  H58      1.0000 0.73870  0.66350  0.88310  Biso   1.000  H
  H59      1.0000 0.26130  0.66350  0.61690  Biso   1.000  H
  H60      1.0000 0.73870  0.33650  0.11690  Biso   1.000  H
  H61      1.0000 0.76130  0.83650  0.38310  Biso   1.000  H
  H62      1.0000 0.23870  0.16350  0.88310  Biso   1.000  H
  H63      1.0000 0.76130  0.16350  0.61690  Biso   1.000  H
  H64      1.0000 0.23870  0.83650  0.11690  Biso   1.000  H
  C81      1.0000 0.27170  0.10870  0.35540  Biso   1.000  C
  C82      1.0000 0.72830  0.89130  0.85540  Biso   1.000  C
  C83      1.0000 0.27170  0.89130  0.64460  Biso   1.000  C
  C84      1.0000 0.72830  0.10870  0.14460  Biso   1.000  C
  C85      1.0000 0.77170  0.60870  0.35540  Biso   1.000  C
  C86      1.0000 0.22830  0.39130  0.85540  Biso   1.000  C
  C87      1.0000 0.77170  0.39130  0.64460  Biso   1.000  C
  C88      1.0000 0.22830  0.60870  0.14460  Biso   1.000  C
  C89      1.0000 0.22470  0.97590  0.34230  Biso   1.000  C
  C90      1.0000 0.77530  0.02410  0.84230  Biso   1.000  C
  C91      1.0000 0.22470  0.02410  0.65770  Biso   1.000  C
  C92      1.0000 0.77530  0.97590  0.15770  Biso   1.000  C
  C93      1.0000 0.72470  0.47590  0.34230  Biso   1.000  C
  C94      1.0000 0.27530  0.52410  0.84230  Biso   1.000  C
  C95      1.0000 0.72470  0.52410  0.65770  Biso   1.000  C
  C96      1.0000 0.27530  0.47590  0.15770  Biso   1.000  C
  N41      1.0000 0.90270  0.35500  0.47987  Biso   1.000  N
  N42      1.0000 0.09730  0.64500  0.97987  Biso   1.000  N
  N43      1.0000 0.90270  0.64500  0.52013  Biso   1.000  N
  N44      1.0000 0.09730  0.35500  0.02013  Biso   1.000  N
  N45      1.0000 0.40270  0.85500  0.47987  Biso   1.000  N
  N46      1.0000 0.59730  0.14500  0.97987  Biso   1.000  N
  N47      1.0000 0.40270  0.14500  0.52013  Biso   1.000  N
  N48      1.0000 0.59730  0.85500  0.02013  Biso   1.000  N
  C97      1.0000 0.83190  0.42460  0.48720  Biso   1.000  C
  C98      1.0000 0.16810  0.57540  0.98720  Biso   1.000  C
  C99      1.0000 0.83190  0.57540  0.51280  Biso   1.000  C
  C100     1.0000 0.16810  0.42460  0.01280  Biso   1.000  C
  C101     1.0000 0.33190  0.92460  0.48720  Biso   1.000  C
  C102     1.0000 0.66810  0.07540  0.98720  Biso   1.000  C
  C103     1.0000 0.33190  0.07540  0.51280  Biso   1.000  C
  C104     1.0000 0.66810  0.92460  0.01280  Biso   1.000  C
  C105     1.0000 0.75520  0.35480  0.47800  Biso   1.000  C
  C106     1.0000 0.24480  0.64520  0.97800  Biso   1.000  C
  C107     1.0000 0.75520  0.64520  0.52200  Biso   1.000  C
  C108     1.0000 0.24480  0.35480  0.02200  Biso   1.000  C
  C109     1.0000 0.25520  0.85480  0.47800  Biso   1.000  C
  C110     1.0000 0.74480  0.14520  0.97800  Biso   1.000  C
  C111     1.0000 0.25520  0.14520  0.52200  Biso   1.000  C
  C112     1.0000 0.74480  0.85480  0.02200  Biso   1.000  C
  C113     1.0000 0.76240  0.19830  0.45680  Biso   1.000  C
  C114     1.0000 0.23760  0.80170  0.95680  Biso   1.000  C
  C115     1.0000 0.76240  0.80170  0.54320  Biso   1.000  C
  C116     1.0000 0.23760  0.19830  0.04320  Biso   1.000  C
  C117     1.0000 0.26240  0.69830  0.45680  Biso   1.000  C
  C118     1.0000 0.73760  0.30170  0.95680  Biso   1.000  C
  C119     1.0000 0.26240  0.30170  0.54320  Biso   1.000  C
  C120     1.0000 0.73760  0.69830  0.04320  Biso   1.000  C
  H65      1.0000 0.71590  0.13950  0.45080  Biso   1.000  H
  H66      1.0000 0.28410  0.86050  0.95080  Biso   1.000  H
  H67      1.0000 0.71590  0.86050  0.54920  Biso   1.000  H
  H68      1.0000 0.28410  0.13950  0.04920  Biso   1.000  H
  H69      1.0000 0.21590  0.63950  0.45080  Biso   1.000  H
  H70      1.0000 0.78410  0.36050  0.95080  Biso   1.000  H
  H71      1.0000 0.21590  0.36050  0.54920  Biso   1.000  H
  H72      1.0000 0.78410  0.63950  0.04920  Biso   1.000  H
  C121     1.0000 0.83390  0.13500  0.44560  Biso   1.000  C
  C122     1.0000 0.16610  0.86500  0.94560  Biso   1.000  C
  C123     1.0000 0.83390  0.86500  0.55440  Biso   1.000  C
  C124     1.0000 0.16610  0.13500  0.05440  Biso   1.000  C
  C125     1.0000 0.33390  0.63500  0.44560  Biso   1.000  C
  C126     1.0000 0.66610  0.36500  0.94560  Biso   1.000  C
  C127     1.0000 0.33390  0.36500  0.55440  Biso   1.000  C
  C128     1.0000 0.66610  0.63500  0.05440  Biso   1.000  C
  H73      1.0000 0.83620  0.03650  0.42900  Biso   1.000  H
  H74      1.0000 0.16380  0.96350  0.92900  Biso   1.000  H
  H75      1.0000 0.83620  0.96350  0.57100  Biso   1.000  H
  H76      1.0000 0.16380  0.03650  0.07100  Biso   1.000  H
  H77      1.0000 0.33620  0.53650  0.42900  Biso   1.000  H
  H78      1.0000 0.66380  0.46350  0.92900  Biso   1.000  H
  H79      1.0000 0.33620  0.46350  0.57100  Biso   1.000  H
  H80      1.0000 0.66380  0.53650  0.07100  Biso   1.000  H
  C129     1.0000 0.90210  0.20950  0.45740  Biso   1.000  C
  C130     1.0000 0.09790  0.79050  0.95740  Biso   1.000  C
  C131     1.0000 0.90210  0.79050  0.54260  Biso   1.000  C
  C132     1.0000 0.09790  0.20950  0.04260  Biso   1.000  C
  C133     1.0000 0.40210  0.70950  0.45740  Biso   1.000  C
  C134     1.0000 0.59790  0.29050  0.95740  Biso   1.000  C
  C135     1.0000 0.40210  0.29050  0.54260  Biso   1.000  C
  C136     1.0000 0.59790  0.70950  0.04260  Biso   1.000  C
  H81      1.0000 0.95100  0.16020  0.45000  Biso   1.000  H
  H82      1.0000 0.04900  0.83980  0.95000  Biso   1.000  H
  H83      1.0000 0.95100  0.83980  0.55000  Biso   1.000  H
  H84      1.0000 0.04900  0.16020  0.05000  Biso   1.000  H
  H85      1.0000 0.45100  0.66020  0.45000  Biso   1.000  H
  H86      1.0000 0.54900  0.33980  0.95000  Biso   1.000  H
  H87      1.0000 0.45100  0.33980  0.55000  Biso   1.000  H
  H88      1.0000 0.54900  0.66020  0.05000  Biso   1.000  H
  C137     1.0000 0.68130  0.41780  0.48820  Biso   1.000  C
  C138     1.0000 0.31870  0.58220  0.98820  Biso   1.000  C
  C139     1.0000 0.68130  0.58220  0.51180  Biso   1.000  C
  C140     1.0000 0.31870  0.41780  0.01180  Biso   1.000  C
  C141     1.0000 0.18130  0.91780  0.48820  Biso   1.000  C
  C142     1.0000 0.81870  0.08220  0.98820  Biso   1.000  C
  C143     1.0000 0.18130  0.08220  0.51180  Biso   1.000  C
  C144     1.0000 0.81870  0.91780  0.01180  Biso   1.000  C
  H89      1.0000 0.63380  0.36330  0.48120  Biso   1.000  H
  H90      1.0000 0.36620  0.63670  0.98120  Biso   1.000  H
  H91      1.0000 0.63380  0.63670  0.51880  Biso   1.000  H
  H92      1.0000 0.36620  0.36330  0.01880  Biso   1.000  H
  H93      1.0000 0.13380  0.86330  0.48120  Biso   1.000  H
  H94      1.0000 0.86620  0.13670  0.98120  Biso   1.000  H
  H95      1.0000 0.13380  0.13670  0.51880  Biso   1.000  H
  H96      1.0000 0.86620  0.86330  0.01880  Biso   1.000  H
