data_image0
_cell_length_a       14.4307
_cell_length_b       14.4307
_cell_length_c       12.8975
_cell_angle_alpha    90
_cell_angle_beta     90
_cell_angle_gamma    120

_symmetry_space_group_name_H-M    "P 1"
_symmetry_int_tables_number       1

loop_
  _symmetry_equiv_pos_as_xyz
  'x, y, z'

loop_
  _atom_site_label
  _atom_site_occupancy
  _atom_site_fract_x
  _atom_site_fract_y
  _atom_site_fract_z
  _atom_site_thermal_displace_type
  _atom_site_B_iso_or_equiv
  _atom_site_type_symbol
  Cu1      1.0000 0.94002  0.88452  0.17820  Biso   1.000  Cu
  Cu2      1.0000 0.11548  0.05550  0.84487  Biso   1.000  Cu
  Cu3      1.0000 0.94450  0.05998  0.51153  Biso   1.000  Cu
  N1       1.0000 0.94160  0.95740  0.30440  Biso   1.000  N
  N2       1.0000 0.04260  0.98420  0.97107  Biso   1.000  N
  N3       1.0000 0.01580  0.05840  0.63773  Biso   1.000  N
  N4       1.0000 0.79610  0.73790  0.15820  Biso   1.000  N
  N5       1.0000 0.26210  0.05820  0.82487  Biso   1.000  N
  N6       1.0000 0.94180  0.20390  0.49153  Biso   1.000  N
  N7       1.0000 0.98050  0.77210  0.23320  Biso   1.000  N
  N8       1.0000 0.22790  0.20840  0.89987  Biso   1.000  N
  N9       1.0000 0.79160  0.01950  0.56653  Biso   1.000  N
  C1       1.0000 0.94640  0.99840  0.38360  Biso   1.000  C
  C2       1.0000 0.00160  0.94800  0.05027  Biso   1.000  C
  C3       1.0000 0.05200  0.05360  0.71693  Biso   1.000  C
  C4       1.0000 0.70500  0.72920  0.12090  Biso   1.000  C
  C5       1.0000 0.27080  0.97580  0.78757  Biso   1.000  C
  C6       1.0000 0.02420  0.29500  0.45423  Biso   1.000  C
  H1       1.0000 0.70090  0.78990  0.10470  Biso   1.000  H
  H2       1.0000 0.21010  0.91100  0.77137  Biso   1.000  H
  H3       1.0000 0.08900  0.29910  0.43803  Biso   1.000  H
  C7       1.0000 0.61940  0.63010  0.10750  Biso   1.000  C
  C8       1.0000 0.36990  0.98930  0.77417  Biso   1.000  C
  C9       1.0000 0.01070  0.38060  0.44083  Biso   1.000  C
  H4       1.0000 0.55580  0.62490  0.08460  Biso   1.000  H
  H5       1.0000 0.37510  0.93090  0.75127  Biso   1.000  H
  H6       1.0000 0.06910  0.44420  0.41793  Biso   1.000  H
  C10      1.0000 0.62050  0.53910  0.12500  Biso   1.000  C
  C11      1.0000 0.46090  0.08140  0.79167  Biso   1.000  C
  C12      1.0000 0.91860  0.37950  0.45833  Biso   1.000  C
  H7       1.0000 0.56150  0.47260  0.11030  Biso   1.000  H
  H8       1.0000 0.52740  0.08890  0.77697  Biso   1.000  H
  H9       1.0000 0.91110  0.43850  0.44363  Biso   1.000  H
  C13      1.0000 0.71310  0.54860  0.16580  Biso   1.000  C
  C14      1.0000 0.45140  0.16450  0.83247  Biso   1.000  C
  C15      1.0000 0.83550  0.28690  0.49913  Biso   1.000  C
  H10      1.0000 0.71610  0.48790  0.18480  Biso   1.000  H
  H11      1.0000 0.51210  0.22820  0.85147  Biso   1.000  H
  H12      1.0000 0.77180  0.28390  0.51813  Biso   1.000  H
  C16      1.0000 0.80070  0.64820  0.17820  Biso   1.000  C
  C17      1.0000 0.35180  0.15250  0.84487  Biso   1.000  C
  C18      1.0000 0.84750  0.19930  0.51153  Biso   1.000  C
  C19      1.0000 0.90430  0.66670  0.21940  Biso   1.000  C
  C20      1.0000 0.33330  0.23760  0.88607  Biso   1.000  C
  C21      1.0000 0.76240  0.09570  0.55273  Biso   1.000  C
  C22      1.0000 0.92380  0.58750  0.24920  Biso   1.000  C
  C23      1.0000 0.41250  0.33630  0.91587  Biso   1.000  C
  C24      1.0000 0.66370  0.07620  0.58253  Biso   1.000  C
  H13      1.0000 0.86960  0.51640  0.24450  Biso   1.000  H
  H14      1.0000 0.48360  0.35320  0.91117  Biso   1.000  H
  H15      1.0000 0.64680  0.13040  0.57783  Biso   1.000  H
  C25      1.0000 0.02600  0.61250  0.28760  Biso   1.000  C
  C26      1.0000 0.38750  0.41350  0.95427  Biso   1.000  C
  C27      1.0000 0.58650  0.97400  0.62093  Biso   1.000  C
  H16      1.0000 0.04270  0.55950  0.30280  Biso   1.000  H
  H17      1.0000 0.44050  0.48320  0.96947  Biso   1.000  H
  H18      1.0000 0.51680  0.95730  0.63613  Biso   1.000  H
  C28      1.0000 0.09830  0.71830  0.30080  Biso   1.000  C
  C29      1.0000 0.28170  0.38000  0.96747  Biso   1.000  C
  C30      1.0000 0.62000  0.90170  0.63413  Biso   1.000  C
  H19      1.0000 0.16490  0.73920  0.32970  Biso   1.000  H
  H20      1.0000 0.26080  0.42570  0.99637  Biso   1.000  H
  H21      1.0000 0.57430  0.83510  0.66303  Biso   1.000  H
  C31      1.0000 0.07280  0.79220  0.27170  Biso   1.000  C
  C32      1.0000 0.20780  0.28060  0.93837  Biso   1.000  C
  C33      1.0000 0.71940  0.92720  0.60503  Biso   1.000  C
  H22      1.0000 0.12510  0.86360  0.27950  Biso   1.000  H
  H23      1.0000 0.13640  0.26150  0.94617  Biso   1.000  H
  H24      1.0000 0.73850  0.87490  0.61283  Biso   1.000  H
  Cu4      1.0000 0.27208  0.72086  0.54478  Biso   1.000  Cu
  Cu5      1.0000 0.27914  0.55122  0.21145  Biso   1.000  Cu
  Cu6      1.0000 0.44878  0.72792  0.87811  Biso   1.000  Cu
  N10      1.0000 0.27480  0.64810  0.41950  Biso   1.000  N
  N11      1.0000 0.35190  0.62670  0.08617  Biso   1.000  N
  N12      1.0000 0.37330  0.72520  0.75283  Biso   1.000  N
  N13      1.0000 0.30570  0.87280  0.49680  Biso   1.000  N
  N14      1.0000 0.12720  0.43290  0.16347  Biso   1.000  N
  N15      1.0000 0.56710  0.69430  0.83013  Biso   1.000  N
  N16      1.0000 0.12760  0.71940  0.57180  Biso   1.000  N
  N17      1.0000 0.28060  0.40820  0.23847  Biso   1.000  N
  N18      1.0000 0.59180  0.87240  0.90513  Biso   1.000  N
  C34      1.0000 0.27830  0.61230  0.33970  Biso   1.000  C
  C35      1.0000 0.38770  0.66600  0.00637  Biso   1.000  C
  C36      1.0000 0.33400  0.72170  0.67303  Biso   1.000  C
  C37      1.0000 0.40440  0.94610  0.45370  Biso   1.000  C
  C38      1.0000 0.05390  0.45830  0.12037  Biso   1.000  C
  C39      1.0000 0.54170  0.59560  0.78703  Biso   1.000  C
  H25      1.0000 0.45330  0.92360  0.43970  Biso   1.000  H
  H26      1.0000 0.07640  0.52970  0.10637  Biso   1.000  H
  H27      1.0000 0.47030  0.54670  0.77303  Biso   1.000  H
  C40      1.0000 0.43230  0.04900  0.43130  Biso   1.000  C
  C41      1.0000 0.95100  0.38330  0.09797  Biso   1.000  C
  C42      1.0000 0.61670  0.56770  0.76463  Biso   1.000  C
  H28      1.0000 0.49920  0.09880  0.40560  Biso   1.000  H
  H29      1.0000 0.90120  0.40040  0.07227  Biso   1.000  H
  H30      1.0000 0.59960  0.50080  0.73893  Biso   1.000  H
  C43      1.0000 0.35250  0.07250  0.45010  Biso   1.000  C
  C44      1.0000 0.92750  0.28000  0.11677  Biso   1.000  C
  C45      1.0000 0.72000  0.64750  0.78343  Biso   1.000  C
  H31      1.0000 0.36720  0.14080  0.43160  Biso   1.000  H
  H32      1.0000 0.85920  0.22640  0.09827  Biso   1.000  H
  H33      1.0000 0.77360  0.63280  0.76493  Biso   1.000  H
  C46      1.0000 0.25680  0.00870  0.49160  Biso   1.000  C
  C47      1.0000 0.99130  0.24810  0.15827  Biso   1.000  C
  C48      1.0000 0.75190  0.74320  0.82493  Biso   1.000  C
  H34      1.0000 0.20800  0.03150  0.50540  Biso   1.000  H
  H35      1.0000 0.96850  0.17650  0.17207  Biso   1.000  H
  H36      1.0000 0.82350  0.79200  0.83873  Biso   1.000  H
  C49      1.0000 0.23450  0.90040  0.51370  Biso   1.000  C
  C50      1.0000 0.09960  0.33410  0.18037  Biso   1.000  C
  C51      1.0000 0.66590  0.76550  0.84703  Biso   1.000  C
  C52      1.0000 0.13580  0.81920  0.55380  Biso   1.000  C
  C53      1.0000 0.18080  0.31660  0.22047  Biso   1.000  C
  C54      1.0000 0.68340  0.86420  0.88713  Biso   1.000  C
  C55      1.0000 0.04790  0.83270  0.57210  Biso   1.000  C
  C56      1.0000 0.16730  0.21520  0.23877  Biso   1.000  C
  C57      1.0000 0.78480  0.95210  0.90543  Biso   1.000  C
  H37      1.0000 0.04910  0.89640  0.55730  Biso   1.000  H
  H38      1.0000 0.10360  0.15270  0.22397  Biso   1.000  H
  H39      1.0000 0.84730  0.95090  0.89063  Biso   1.000  H
  C58      1.0000 0.96240  0.74850  0.61220  Biso   1.000  C
  C59      1.0000 0.25150  0.21390  0.27887  Biso   1.000  C
  C60      1.0000 0.78610  0.03760  0.94553  Biso   1.000  C
  H40      1.0000 0.90530  0.75890  0.62790  Biso   1.000  H
  H41      1.0000 0.24110  0.14640  0.29457  Biso   1.000  H
  H42      1.0000 0.85360  0.09470  0.96123  Biso   1.000  H
  C61      1.0000 0.94690  0.65030  0.63340  Biso   1.000  C
  C62      1.0000 0.34970  0.29660  0.30007  Biso   1.000  C
  C63      1.0000 0.70340  0.05310  0.96673  Biso   1.000  C
  H43      1.0000 0.88400  0.59540  0.66150  Biso   1.000  H
  H44      1.0000 0.40460  0.28860  0.32817  Biso   1.000  H
  H45      1.0000 0.71140  0.11600  0.99483  Biso   1.000  H
  C64      1.0000 0.03770  0.63950  0.60780  Biso   1.000  C
  C65      1.0000 0.36050  0.39820  0.27447  Biso   1.000  C
  C66      1.0000 0.60180  0.96230  0.94113  Biso   1.000  C
  H46      1.0000 0.03290  0.57340  0.61700  Biso   1.000  H
  H47      1.0000 0.42660  0.45950  0.28367  Biso   1.000  H
  H48      1.0000 0.54050  0.96710  0.95033  Biso   1.000  H
  Cu7      1.0000 0.61062  0.39255  0.53080  Biso   1.000  Cu
  Cu8      1.0000 0.60745  0.21807  0.19747  Biso   1.000  Cu
  Cu9      1.0000 0.78193  0.38938  0.86413  Biso   1.000  Cu
  N19      1.0000 0.60960  0.32190  0.40270  Biso   1.000  N
  N20      1.0000 0.67810  0.28770  0.06937  Biso   1.000  N
  N21      1.0000 0.71230  0.39040  0.73603  Biso   1.000  N
  N22      1.0000 0.64130  0.54430  0.48740  Biso   1.000  N
  N23      1.0000 0.45570  0.09700  0.15407  Biso   1.000  N
  N24      1.0000 0.90300  0.35870  0.82073  Biso   1.000  N
  N25      1.0000 0.46640  0.38650  0.56190  Biso   1.000  N
  N26      1.0000 0.61350  0.07990  0.22857  Biso   1.000  N
  N27      1.0000 0.92010  0.53360  0.89523  Biso   1.000  N
  C67      1.0000 0.61210  0.28750  0.32250  Biso   1.000  C
  C68      1.0000 0.71250  0.32460  0.98917  Biso   1.000  C
  C69      1.0000 0.67540  0.38790  0.65583  Biso   1.000  C
  C70      1.0000 0.73870  0.61950  0.45010  Biso   1.000  C
  C71      1.0000 0.38050  0.11920  0.11677  Biso   1.000  C
  C72      1.0000 0.88080  0.26130  0.78343  Biso   1.000  C
  H49      1.0000 0.78870  0.59720  0.44310  Biso   1.000  H
  H50      1.0000 0.40280  0.19150  0.10977  Biso   1.000  H
  H51      1.0000 0.80850  0.21130  0.77643  Biso   1.000  H
  C73      1.0000 0.77170  0.71840  0.42290  Biso   1.000  C
  C74      1.0000 0.28160  0.05330  0.08957  Biso   1.000  C
  C75      1.0000 0.94670  0.22830  0.75623  Biso   1.000  C
  H52      1.0000 0.84140  0.76800  0.40380  Biso   1.000  H
  H53      1.0000 0.23200  0.07340  0.07047  Biso   1.000  H
  H54      1.0000 0.92660  0.15860  0.73713  Biso   1.000  H
  C76      1.0000 0.68830  0.73790  0.42670  Biso   1.000  C
  C77      1.0000 0.26210  0.95040  0.09337  Biso   1.000  C
  C78      1.0000 0.04960  0.31170  0.76003  Biso   1.000  C
  H55      1.0000 0.70400  0.80540  0.40390  Biso   1.000  H
  H56      1.0000 0.19460  0.89860  0.07057  Biso   1.000  H
  H57      1.0000 0.10140  0.29600  0.73723  Biso   1.000  H
  C79      1.0000 0.58670  0.67390  0.45860  Biso   1.000  C
  C80      1.0000 0.32610  0.91280  0.12527  Biso   1.000  C
  C81      1.0000 0.08720  0.41330  0.79193  Biso   1.000  C
  H58      1.0000 0.53600  0.69580  0.45790  Biso   1.000  H
  H59      1.0000 0.30420  0.84020  0.12457  Biso   1.000  H
  H60      1.0000 0.15980  0.46400  0.79123  Biso   1.000  H
  C82      1.0000 0.56040  0.56260  0.49600  Biso   1.000  C
  C83      1.0000 0.43740  0.99780  0.16267  Biso   1.000  C
  C84      1.0000 0.00220  0.43960  0.82933  Biso   1.000  C
  C85      1.0000 0.46040  0.47670  0.53680  Biso   1.000  C
  C86      1.0000 0.52330  0.98370  0.20347  Biso   1.000  C
  C87      1.0000 0.01630  0.53960  0.87013  Biso   1.000  C
  C88      1.0000 0.37870  0.49640  0.55250  Biso   1.000  C
  C89      1.0000 0.50360  0.88230  0.21917  Biso   1.000  C
  C90      1.0000 0.11770  0.62130  0.88583  Biso   1.000  C
  H61      1.0000 0.38460  0.56330  0.54500  Biso   1.000  H
  H62      1.0000 0.43670  0.82130  0.21167  Biso   1.000  H
  H63      1.0000 0.17870  0.61540  0.87833  Biso   1.000  H
  C91      1.0000 0.29360  0.41250  0.57860  Biso   1.000  C
  C92      1.0000 0.58750  0.88110  0.24527  Biso   1.000  C
  C93      1.0000 0.11890  0.70640  0.91193  Biso   1.000  C
  H64      1.0000 0.23310  0.41970  0.58050  Biso   1.000  H
  H65      1.0000 0.58030  0.81340  0.24717  Biso   1.000  H
  H66      1.0000 0.18660  0.76690  0.91383  Biso   1.000  H
  C94      1.0000 0.27620  0.31500  0.60410  Biso   1.000  C
  C95      1.0000 0.68500  0.96120  0.27077  Biso   1.000  C
  C96      1.0000 0.03880  0.72380  0.93743  Biso   1.000  C
  H67      1.0000 0.20990  0.25820  0.62330  Biso   1.000  H
  H68      1.0000 0.74180  0.95170  0.28997  Biso   1.000  H
  H69      1.0000 0.04830  0.79010  0.95663  Biso   1.000  H
  C97      1.0000 0.37420  0.30860  0.59790  Biso   1.000  C
  C98      1.0000 0.69140  0.06560  0.26457  Biso   1.000  C
  C99      1.0000 0.93440  0.62580  0.93123  Biso   1.000  C
  H70      1.0000 0.37150  0.24620  0.62070  Biso   1.000  H
  H71      1.0000 0.75380  0.12530  0.28737  Biso   1.000  H
  H72      1.0000 0.87470  0.62850  0.95403  Biso   1.000  H
