data_image0
_cell_length_a       8.535
_cell_length_b       16.639
_cell_length_c       24.428
_cell_angle_alpha    90
_cell_angle_beta     90
_cell_angle_gamma    90

_symmetry_space_group_name_H-M    "P 1"
_symmetry_int_tables_number       1

loop_
  _symmetry_equiv_pos_as_xyz
  'x, y, z'

loop_
  _atom_site_label
  _atom_site_occupancy
  _atom_site_fract_x
  _atom_site_fract_y
  _atom_site_fract_z
  _atom_site_thermal_displace_type
  _atom_site_B_iso_or_equiv
  _atom_site_type_symbol
  Cu1      1.0000 0.00000  0.49274  0.25000  Biso   1.000  Cu
  Cu2      1.0000 0.00000  0.50726  0.75000  Biso   1.000  Cu
  Cu3      1.0000 0.50000  0.99274  0.25000  Biso   1.000  Cu
  Cu4      1.0000 0.50000  0.00726  0.75000  Biso   1.000  Cu
  Cu5      1.0000 0.26372  0.40598  0.07885  Biso   1.000  Cu
  Cu6      1.0000 0.73628  0.59402  0.57885  Biso   1.000  Cu
  Cu7      1.0000 0.73628  0.40598  0.42115  Biso   1.000  Cu
  Cu8      1.0000 0.26372  0.59402  0.92115  Biso   1.000  Cu
  Cu9      1.0000 0.76372  0.90598  0.07885  Biso   1.000  Cu
  Cu10     1.0000 0.23628  0.09402  0.57885  Biso   1.000  Cu
  Cu11     1.0000 0.23628  0.90598  0.42115  Biso   1.000  Cu
  Cu12     1.0000 0.76372  0.09402  0.92115  Biso   1.000  Cu
  N1       1.0000 0.22500  0.28260  0.06184  Biso   1.000  N
  N2       1.0000 0.77500  0.71740  0.56184  Biso   1.000  N
  N3       1.0000 0.77500  0.28260  0.43816  Biso   1.000  N
  N4       1.0000 0.22500  0.71740  0.93816  Biso   1.000  N
  N5       1.0000 0.72500  0.78260  0.06184  Biso   1.000  N
  N6       1.0000 0.27500  0.21740  0.56184  Biso   1.000  N
  N7       1.0000 0.27500  0.78260  0.43816  Biso   1.000  N
  N8       1.0000 0.72500  0.21740  0.93816  Biso   1.000  N
  N9       1.0000 0.48020  0.35660  0.09865  Biso   1.000  N
  N10      1.0000 0.51980  0.64340  0.59865  Biso   1.000  N
  N11      1.0000 0.51980  0.35660  0.40135  Biso   1.000  N
  N12      1.0000 0.48020  0.64340  0.90135  Biso   1.000  N
  N13      1.0000 0.98020  0.85660  0.09865  Biso   1.000  N
  N14      1.0000 0.01980  0.14340  0.59865  Biso   1.000  N
  N15      1.0000 0.01980  0.85660  0.40135  Biso   1.000  N
  N16      1.0000 0.98020  0.14340  0.90135  Biso   1.000  N
  N17      1.0000 0.27740  0.47710  0.01794  Biso   1.000  N
  N18      1.0000 0.72260  0.52290  0.51794  Biso   1.000  N
  N19      1.0000 0.72260  0.47710  0.48206  Biso   1.000  N
  N20      1.0000 0.27740  0.52290  0.98206  Biso   1.000  N
  N21      1.0000 0.77740  0.97710  0.01794  Biso   1.000  N
  N22      1.0000 0.22260  0.02290  0.51794  Biso   1.000  N
  N23      1.0000 0.22260  0.97710  0.48206  Biso   1.000  N
  N24      1.0000 0.77740  0.02290  0.98206  Biso   1.000  N
  N25      1.0000 0.09420  0.45020  0.18440  Biso   1.000  N
  N26      1.0000 0.90580  0.54980  0.68440  Biso   1.000  N
  N27      1.0000 0.90580  0.45020  0.31560  Biso   1.000  N
  N28      1.0000 0.09420  0.54980  0.81560  Biso   1.000  N
  N29      1.0000 0.59420  0.95020  0.18440  Biso   1.000  N
  N30      1.0000 0.40580  0.04980  0.68440  Biso   1.000  N
  N31      1.0000 0.40580  0.95020  0.31560  Biso   1.000  N
  N32      1.0000 0.59420  0.04980  0.81560  Biso   1.000  N
  N33      1.0000 0.14430  0.59390  0.27045  Biso   1.000  N
  N34      1.0000 0.85570  0.40610  0.77045  Biso   1.000  N
  N35      1.0000 0.85570  0.59390  0.22955  Biso   1.000  N
  N36      1.0000 0.14430  0.40610  0.72955  Biso   1.000  N
  N37      1.0000 0.64430  0.09390  0.27045  Biso   1.000  N
  N38      1.0000 0.35570  0.90610  0.77045  Biso   1.000  N
  N39      1.0000 0.35570  0.09390  0.22955  Biso   1.000  N
  N40      1.0000 0.64430  0.90610  0.72955  Biso   1.000  N
  C1       1.0000 0.09290  0.24860  0.04360  Biso   1.000  C
  C2       1.0000 0.90710  0.75140  0.54360  Biso   1.000  C
  C3       1.0000 0.90710  0.24860  0.45640  Biso   1.000  C
  C4       1.0000 0.09290  0.75140  0.95640  Biso   1.000  C
  C5       1.0000 0.59290  0.74860  0.04360  Biso   1.000  C
  C6       1.0000 0.40710  0.25140  0.54360  Biso   1.000  C
  C7       1.0000 0.40710  0.74860  0.45640  Biso   1.000  C
  C8       1.0000 0.59290  0.25140  0.95640  Biso   1.000  C
  H1       1.0000 0.00560  0.27970  0.03530  Biso   1.000  H
  H2       1.0000 0.99440  0.72030  0.53530  Biso   1.000  H
  H3       1.0000 0.99440  0.27970  0.46470  Biso   1.000  H
  H4       1.0000 0.00560  0.72030  0.96470  Biso   1.000  H
  H5       1.0000 0.50560  0.77970  0.03530  Biso   1.000  H
  H6       1.0000 0.49440  0.22030  0.53530  Biso   1.000  H
  H7       1.0000 0.49440  0.77970  0.46470  Biso   1.000  H
  H8       1.0000 0.50560  0.22030  0.96470  Biso   1.000  H
  C9       1.0000 0.08970  0.16380  0.03730  Biso   1.000  C
  C10      1.0000 0.91030  0.83620  0.53730  Biso   1.000  C
  C11      1.0000 0.91030  0.16380  0.46270  Biso   1.000  C
  C12      1.0000 0.08970  0.83620  0.96270  Biso   1.000  C
  C13      1.0000 0.58970  0.66380  0.03730  Biso   1.000  C
  C14      1.0000 0.41030  0.33620  0.53730  Biso   1.000  C
  C15      1.0000 0.41030  0.66380  0.46270  Biso   1.000  C
  C16      1.0000 0.58970  0.33620  0.96270  Biso   1.000  C
  H9       1.0000 0.99840  0.14050  0.02380  Biso   1.000  H
  H10      1.0000 0.00160  0.85950  0.52380  Biso   1.000  H
  H11      1.0000 0.00160  0.14050  0.47620  Biso   1.000  H
  H12      1.0000 0.99840  0.85950  0.97620  Biso   1.000  H
  H13      1.0000 0.49840  0.64050  0.02380  Biso   1.000  H
  H14      1.0000 0.50160  0.35950  0.52380  Biso   1.000  H
  H15      1.0000 0.50160  0.64050  0.47620  Biso   1.000  H
  H16      1.0000 0.49840  0.35950  0.97620  Biso   1.000  H
  C17      1.0000 0.20960  0.11540  0.04950  Biso   1.000  C
  C18      1.0000 0.79040  0.88460  0.54950  Biso   1.000  C
  C19      1.0000 0.79040  0.11540  0.45050  Biso   1.000  C
  C20      1.0000 0.20960  0.88460  0.95050  Biso   1.000  C
  C21      1.0000 0.70960  0.61540  0.04950  Biso   1.000  C
  C22      1.0000 0.29040  0.38460  0.54950  Biso   1.000  C
  C23      1.0000 0.29040  0.61540  0.45050  Biso   1.000  C
  C24      1.0000 0.70960  0.38460  0.95050  Biso   1.000  C
  H17      1.0000 0.20210  0.05990  0.04550  Biso   1.000  H
  H18      1.0000 0.79790  0.94010  0.54550  Biso   1.000  H
  H19      1.0000 0.79790  0.05990  0.45450  Biso   1.000  H
  H20      1.0000 0.20210  0.94010  0.95450  Biso   1.000  H
  H21      1.0000 0.70210  0.55990  0.04550  Biso   1.000  H
  H22      1.0000 0.29790  0.44010  0.54550  Biso   1.000  H
  H23      1.0000 0.29790  0.55990  0.45450  Biso   1.000  H
  H24      1.0000 0.70210  0.44010  0.95450  Biso   1.000  H
  C25      1.0000 0.34510  0.15140  0.06820  Biso   1.000  C
  C26      1.0000 0.65490  0.84860  0.56820  Biso   1.000  C
  C27      1.0000 0.65490  0.15140  0.43180  Biso   1.000  C
  C28      1.0000 0.34510  0.84860  0.93180  Biso   1.000  C
  C29      1.0000 0.84510  0.65140  0.06820  Biso   1.000  C
  C30      1.0000 0.15490  0.34860  0.56820  Biso   1.000  C
  C31      1.0000 0.15490  0.65140  0.43180  Biso   1.000  C
  C32      1.0000 0.84510  0.34860  0.93180  Biso   1.000  C
  C33      1.0000 0.49710  0.11150  0.08310  Biso   1.000  C
  C34      1.0000 0.50290  0.88850  0.58310  Biso   1.000  C
  C35      1.0000 0.50290  0.11150  0.41690  Biso   1.000  C
  C36      1.0000 0.49710  0.88850  0.91690  Biso   1.000  C
  C37      1.0000 0.99710  0.61150  0.08310  Biso   1.000  C
  C38      1.0000 0.00290  0.38850  0.58310  Biso   1.000  C
  C39      1.0000 0.00290  0.61150  0.41690  Biso   1.000  C
  C40      1.0000 0.99710  0.38850  0.91690  Biso   1.000  C
  H25      1.0000 0.50580  0.05660  0.07630  Biso   1.000  H
  H26      1.0000 0.49420  0.94340  0.57630  Biso   1.000  H
  H27      1.0000 0.49420  0.05660  0.42370  Biso   1.000  H
  H28      1.0000 0.50580  0.94340  0.92370  Biso   1.000  H
  H29      1.0000 0.00580  0.55660  0.07630  Biso   1.000  H
  H30      1.0000 0.99420  0.44340  0.57630  Biso   1.000  H
  H31      1.0000 0.99420  0.55660  0.42370  Biso   1.000  H
  H32      1.0000 0.00580  0.44340  0.92370  Biso   1.000  H
  C41      1.0000 0.61020  0.14540  0.10330  Biso   1.000  C
  C42      1.0000 0.38980  0.85460  0.60330  Biso   1.000  C
  C43      1.0000 0.38980  0.14540  0.39670  Biso   1.000  C
  C44      1.0000 0.61020  0.85460  0.89670  Biso   1.000  C
  C45      1.0000 0.11020  0.64540  0.10330  Biso   1.000  C
  C46      1.0000 0.88980  0.35460  0.60330  Biso   1.000  C
  C47      1.0000 0.88980  0.64540  0.39670  Biso   1.000  C
  C48      1.0000 0.11020  0.35460  0.89670  Biso   1.000  C
  H33      1.0000 0.69260  0.11450  0.11660  Biso   1.000  H
  H34      1.0000 0.30740  0.88550  0.61660  Biso   1.000  H
  H35      1.0000 0.30740  0.11450  0.38340  Biso   1.000  H
  H36      1.0000 0.69260  0.88550  0.88340  Biso   1.000  H
  H37      1.0000 0.19260  0.61450  0.11660  Biso   1.000  H
  H38      1.0000 0.80740  0.38550  0.61660  Biso   1.000  H
  H39      1.0000 0.80740  0.61450  0.38340  Biso   1.000  H
  H40      1.0000 0.19260  0.38550  0.88340  Biso   1.000  H
  C49      1.0000 0.62010  0.22970  0.10720  Biso   1.000  C
  C50      1.0000 0.37990  0.77030  0.60720  Biso   1.000  C
  C51      1.0000 0.37990  0.22970  0.39280  Biso   1.000  C
  C52      1.0000 0.62010  0.77030  0.89280  Biso   1.000  C
  C53      1.0000 0.12010  0.72970  0.10720  Biso   1.000  C
  C54      1.0000 0.87990  0.27030  0.60720  Biso   1.000  C
  C55      1.0000 0.87990  0.72970  0.39280  Biso   1.000  C
  C56      1.0000 0.12010  0.27030  0.89280  Biso   1.000  C
  C57      1.0000 0.75300  0.27950  0.12640  Biso   1.000  C
  C58      1.0000 0.24700  0.72050  0.62640  Biso   1.000  C
  C59      1.0000 0.24700  0.27950  0.37360  Biso   1.000  C
  C60      1.0000 0.75300  0.72050  0.87360  Biso   1.000  C
  C61      1.0000 0.25300  0.77950  0.12640  Biso   1.000  C
  C62      1.0000 0.74700  0.22050  0.62640  Biso   1.000  C
  C63      1.0000 0.74700  0.77950  0.37360  Biso   1.000  C
  C64      1.0000 0.25300  0.22050  0.87360  Biso   1.000  C
  H41      1.0000 0.84550  0.25430  0.13690  Biso   1.000  H
  H42      1.0000 0.15450  0.74570  0.63690  Biso   1.000  H
  H43      1.0000 0.15450  0.25430  0.36310  Biso   1.000  H
  H44      1.0000 0.84550  0.74570  0.86310  Biso   1.000  H
  H45      1.0000 0.34550  0.75430  0.13690  Biso   1.000  H
  H46      1.0000 0.65450  0.24570  0.63690  Biso   1.000  H
  H47      1.0000 0.65450  0.75430  0.36310  Biso   1.000  H
  H48      1.0000 0.34550  0.24570  0.86310  Biso   1.000  H
  C65      1.0000 0.74370  0.35900  0.12900  Biso   1.000  C
  C66      1.0000 0.25630  0.64100  0.62900  Biso   1.000  C
  C67      1.0000 0.25630  0.35900  0.37100  Biso   1.000  C
  C68      1.0000 0.74370  0.64100  0.87100  Biso   1.000  C
  C69      1.0000 0.24370  0.85900  0.12900  Biso   1.000  C
  C70      1.0000 0.75630  0.14100  0.62900  Biso   1.000  C
  C71      1.0000 0.75630  0.85900  0.37100  Biso   1.000  C
  C72      1.0000 0.24370  0.14100  0.87100  Biso   1.000  C
  H49      1.0000 0.82910  0.39010  0.13950  Biso   1.000  H
  H50      1.0000 0.17090  0.60990  0.63950  Biso   1.000  H
  H51      1.0000 0.17090  0.39010  0.36050  Biso   1.000  H
  H52      1.0000 0.82910  0.60990  0.86050  Biso   1.000  H
  H53      1.0000 0.32910  0.89010  0.13950  Biso   1.000  H
  H54      1.0000 0.67090  0.10990  0.63950  Biso   1.000  H
  H55      1.0000 0.67090  0.89010  0.36050  Biso   1.000  H
  H56      1.0000 0.32910  0.10990  0.86050  Biso   1.000  H
  C73      1.0000 0.60740  0.39240  0.11610  Biso   1.000  C
  C74      1.0000 0.39260  0.60760  0.61610  Biso   1.000  C
  C75      1.0000 0.39260  0.39240  0.38390  Biso   1.000  C
  C76      1.0000 0.60740  0.60760  0.88390  Biso   1.000  C
  C77      1.0000 0.10740  0.89240  0.11610  Biso   1.000  C
  C78      1.0000 0.89260  0.10760  0.61610  Biso   1.000  C
  C79      1.0000 0.89260  0.89240  0.38390  Biso   1.000  C
  C80      1.0000 0.10740  0.10760  0.88390  Biso   1.000  C
  H57      1.0000 0.60150  0.44800  0.11980  Biso   1.000  H
  H58      1.0000 0.39850  0.55200  0.61980  Biso   1.000  H
  H59      1.0000 0.39850  0.44800  0.38020  Biso   1.000  H
  H60      1.0000 0.60150  0.55200  0.88020  Biso   1.000  H
  H61      1.0000 0.10150  0.94800  0.11980  Biso   1.000  H
  H62      1.0000 0.89850  0.05200  0.61980  Biso   1.000  H
  H63      1.0000 0.89850  0.94800  0.38020  Biso   1.000  H
  H64      1.0000 0.10150  0.05200  0.88020  Biso   1.000  H
  C81      1.0000 0.48510  0.27570  0.09430  Biso   1.000  C
  C82      1.0000 0.51490  0.72430  0.59430  Biso   1.000  C
  C83      1.0000 0.51490  0.27570  0.40570  Biso   1.000  C
  C84      1.0000 0.48510  0.72430  0.90570  Biso   1.000  C
  C85      1.0000 0.98510  0.77570  0.09430  Biso   1.000  C
  C86      1.0000 0.01490  0.22430  0.59430  Biso   1.000  C
  C87      1.0000 0.01490  0.77570  0.40570  Biso   1.000  C
  C88      1.0000 0.98510  0.22430  0.90570  Biso   1.000  C
  C89      1.0000 0.34980  0.23610  0.07380  Biso   1.000  C
  C90      1.0000 0.65020  0.76390  0.57380  Biso   1.000  C
  C91      1.0000 0.65020  0.23610  0.42620  Biso   1.000  C
  C92      1.0000 0.34980  0.76390  0.92620  Biso   1.000  C
  C93      1.0000 0.84980  0.73610  0.07380  Biso   1.000  C
  C94      1.0000 0.15020  0.26390  0.57380  Biso   1.000  C
  C95      1.0000 0.15020  0.73610  0.42620  Biso   1.000  C
  C96      1.0000 0.84980  0.26390  0.92620  Biso   1.000  C
  C97      1.0000 0.28730  0.59470  0.29070  Biso   1.000  C
  C98      1.0000 0.71270  0.40530  0.79070  Biso   1.000  C
  C99      1.0000 0.71270  0.59470  0.20930  Biso   1.000  C
  C100     1.0000 0.28730  0.40530  0.70930  Biso   1.000  C
  C101     1.0000 0.78730  0.09470  0.29070  Biso   1.000  C
  C102     1.0000 0.21270  0.90530  0.79070  Biso   1.000  C
  C103     1.0000 0.21270  0.09470  0.20930  Biso   1.000  C
  C104     1.0000 0.78730  0.90530  0.70930  Biso   1.000  C
  H65      1.0000 0.33610  0.54550  0.29700  Biso   1.000  H
  H66      1.0000 0.66390  0.45450  0.79700  Biso   1.000  H
  H67      1.0000 0.66390  0.54550  0.20300  Biso   1.000  H
  H68      1.0000 0.33610  0.45450  0.70300  Biso   1.000  H
  H69      1.0000 0.83610  0.04550  0.29700  Biso   1.000  H
  H70      1.0000 0.16390  0.95450  0.79700  Biso   1.000  H
  H71      1.0000 0.16390  0.04550  0.20300  Biso   1.000  H
  H72      1.0000 0.83610  0.95450  0.70300  Biso   1.000  H
  C105     1.0000 0.37060  0.66490  0.30320  Biso   1.000  C
  C106     1.0000 0.62940  0.33510  0.80320  Biso   1.000  C
  C107     1.0000 0.62940  0.66490  0.19680  Biso   1.000  C
  C108     1.0000 0.37060  0.33510  0.69680  Biso   1.000  C
  C109     1.0000 0.87060  0.16490  0.30320  Biso   1.000  C
  C110     1.0000 0.12940  0.83510  0.80320  Biso   1.000  C
  C111     1.0000 0.12940  0.16490  0.19680  Biso   1.000  C
  C112     1.0000 0.87060  0.83510  0.69680  Biso   1.000  C
  H73      1.0000 0.47060  0.66250  0.31820  Biso   1.000  H
  H74      1.0000 0.52940  0.33750  0.81820  Biso   1.000  H
  H75      1.0000 0.52940  0.66250  0.18180  Biso   1.000  H
  H76      1.0000 0.47060  0.33750  0.68180  Biso   1.000  H
  H77      1.0000 0.97060  0.16250  0.31820  Biso   1.000  H
  H78      1.0000 0.02940  0.83750  0.81820  Biso   1.000  H
  H79      1.0000 0.02940  0.16250  0.18180  Biso   1.000  H
  H80      1.0000 0.97060  0.83750  0.68180  Biso   1.000  H
  C113     1.0000 0.30090  0.73610  0.29270  Biso   1.000  C
  C114     1.0000 0.69910  0.26390  0.79270  Biso   1.000  C
  C115     1.0000 0.69910  0.73610  0.20730  Biso   1.000  C
  C116     1.0000 0.30090  0.26390  0.70730  Biso   1.000  C
  C117     1.0000 0.80090  0.23610  0.29270  Biso   1.000  C
  C118     1.0000 0.19910  0.76390  0.79270  Biso   1.000  C
  C119     1.0000 0.19910  0.23610  0.20730  Biso   1.000  C
  C120     1.0000 0.80090  0.76390  0.70730  Biso   1.000  C
  H81      1.0000 0.35590  0.78330  0.29960  Biso   1.000  H
  H82      1.0000 0.64410  0.21670  0.79960  Biso   1.000  H
  H83      1.0000 0.64410  0.78330  0.20040  Biso   1.000  H
  H84      1.0000 0.35590  0.21670  0.70040  Biso   1.000  H
  H85      1.0000 0.85590  0.28330  0.29960  Biso   1.000  H
  H86      1.0000 0.14410  0.71670  0.79960  Biso   1.000  H
  H87      1.0000 0.14410  0.28330  0.20040  Biso   1.000  H
  H88      1.0000 0.85590  0.71670  0.70040  Biso   1.000  H
  C121     1.0000 0.15100  0.74110  0.27200  Biso   1.000  C
  C122     1.0000 0.84900  0.25890  0.77200  Biso   1.000  C
  C123     1.0000 0.84900  0.74110  0.22800  Biso   1.000  C
  C124     1.0000 0.15100  0.25890  0.72800  Biso   1.000  C
  C125     1.0000 0.65100  0.24110  0.27200  Biso   1.000  C
  C126     1.0000 0.34900  0.75890  0.77200  Biso   1.000  C
  C127     1.0000 0.34900  0.24110  0.22800  Biso   1.000  C
  C128     1.0000 0.65100  0.75890  0.72800  Biso   1.000  C
  C129     1.0000 0.07730  0.66640  0.26130  Biso   1.000  C
  C130     1.0000 0.92270  0.33360  0.76130  Biso   1.000  C
  C131     1.0000 0.92270  0.66640  0.23870  Biso   1.000  C
  C132     1.0000 0.07730  0.33360  0.73870  Biso   1.000  C
  C133     1.0000 0.57730  0.16640  0.26130  Biso   1.000  C
  C134     1.0000 0.42270  0.83360  0.76130  Biso   1.000  C
  C135     1.0000 0.42270  0.16640  0.23870  Biso   1.000  C
  C136     1.0000 0.57730  0.83360  0.73870  Biso   1.000  C
  C137     1.0000 0.07260  0.81630  0.26090  Biso   1.000  C
  C138     1.0000 0.92740  0.18370  0.76090  Biso   1.000  C
  C139     1.0000 0.92740  0.81630  0.23910  Biso   1.000  C
  C140     1.0000 0.07260  0.18370  0.73910  Biso   1.000  C
  C141     1.0000 0.57260  0.31630  0.26090  Biso   1.000  C
  C142     1.0000 0.42740  0.68370  0.76090  Biso   1.000  C
  C143     1.0000 0.42740  0.31630  0.23910  Biso   1.000  C
  C144     1.0000 0.57260  0.68370  0.73910  Biso   1.000  C
  C145     1.0000 0.15600  0.43120  0.14380  Biso   1.000  C
  C146     1.0000 0.84400  0.56880  0.64380  Biso   1.000  C
  C147     1.0000 0.84400  0.43120  0.35620  Biso   1.000  C
  C148     1.0000 0.15600  0.56880  0.85620  Biso   1.000  C
  C149     1.0000 0.65600  0.93120  0.14380  Biso   1.000  C
  C150     1.0000 0.34400  0.06880  0.64380  Biso   1.000  C
  C151     1.0000 0.34400  0.93120  0.35620  Biso   1.000  C
  C152     1.0000 0.65600  0.06880  0.85620  Biso   1.000  C
