data_image0
_cell_length_a       8.515
_cell_length_b       16.616
_cell_length_c       24.485
_cell_angle_alpha    90
_cell_angle_beta     90
_cell_angle_gamma    90

_symmetry_space_group_name_H-M    "P 1"
_symmetry_int_tables_number       1

loop_
  _symmetry_equiv_pos_as_xyz
  'x, y, z'

loop_
  _atom_site_label
  _atom_site_occupancy
  _atom_site_fract_x
  _atom_site_fract_y
  _atom_site_fract_z
  _atom_site_thermal_displace_type
  _atom_site_B_iso_or_equiv
  _atom_site_type_symbol
  Cu1      1.0000 0.26086  0.90648  0.42115  Biso   1.000  Cu
  Cu2      1.0000 0.73914  0.09352  0.92115  Biso   1.000  Cu
  Cu3      1.0000 0.73914  0.90648  0.07885  Biso   1.000  Cu
  Cu4      1.0000 0.26086  0.09352  0.57885  Biso   1.000  Cu
  Cu5      1.0000 0.76086  0.40648  0.42115  Biso   1.000  Cu
  Cu6      1.0000 0.23914  0.59352  0.92115  Biso   1.000  Cu
  Cu7      1.0000 0.23914  0.40648  0.07885  Biso   1.000  Cu
  Cu8      1.0000 0.76086  0.59352  0.57885  Biso   1.000  Cu
  Cu9      1.0000 0.00000  0.99397  0.25000  Biso   1.000  Cu
  Cu10     1.0000 0.00000  0.00603  0.75000  Biso   1.000  Cu
  Cu11     1.0000 0.50000  0.49397  0.25000  Biso   1.000  Cu
  Cu12     1.0000 0.50000  0.50603  0.75000  Biso   1.000  Cu
  C1       1.0000 0.27820  0.97780  0.48210  Biso   1.000  C
  C2       1.0000 0.72180  0.02220  0.98210  Biso   1.000  C
  C3       1.0000 0.72180  0.97780  0.01790  Biso   1.000  C
  C4       1.0000 0.27820  0.02220  0.51790  Biso   1.000  C
  C5       1.0000 0.77820  0.47780  0.48210  Biso   1.000  C
  C6       1.0000 0.22180  0.52220  0.98210  Biso   1.000  C
  C7       1.0000 0.22180  0.47780  0.01790  Biso   1.000  C
  C8       1.0000 0.77820  0.52220  0.51790  Biso   1.000  C
  C9       1.0000 0.34480  0.73610  0.42600  Biso   1.000  C
  C10      1.0000 0.65520  0.26390  0.92600  Biso   1.000  C
  C11      1.0000 0.65520  0.73610  0.07400  Biso   1.000  C
  C12      1.0000 0.34480  0.26390  0.57400  Biso   1.000  C
  C13      1.0000 0.84480  0.23610  0.42600  Biso   1.000  C
  C14      1.0000 0.15520  0.76390  0.92600  Biso   1.000  C
  C15      1.0000 0.15520  0.23610  0.07400  Biso   1.000  C
  C16      1.0000 0.84480  0.76390  0.57400  Biso   1.000  C
  C17      1.0000 0.07940  0.16630  0.23910  Biso   1.000  C
  C18      1.0000 0.92060  0.83370  0.73910  Biso   1.000  C
  C19      1.0000 0.92060  0.16630  0.26090  Biso   1.000  C
  C20      1.0000 0.07940  0.83370  0.76090  Biso   1.000  C
  C21      1.0000 0.57940  0.66630  0.23910  Biso   1.000  C
  C22      1.0000 0.42060  0.33370  0.73910  Biso   1.000  C
  C23      1.0000 0.42060  0.66630  0.26090  Biso   1.000  C
  C24      1.0000 0.57940  0.33370  0.76090  Biso   1.000  C
  C25      1.0000 0.48570  0.77810  0.40520  Biso   1.000  C
  C26      1.0000 0.51430  0.22190  0.90520  Biso   1.000  C
  C27      1.0000 0.51430  0.77810  0.09480  Biso   1.000  C
  C28      1.0000 0.48570  0.22190  0.59480  Biso   1.000  C
  C29      1.0000 0.98570  0.27810  0.40520  Biso   1.000  C
  C30      1.0000 0.01430  0.72190  0.90520  Biso   1.000  C
  C31      1.0000 0.01430  0.27810  0.09480  Biso   1.000  C
  C32      1.0000 0.98570  0.72190  0.59480  Biso   1.000  C
  C33      1.0000 0.09130  0.95120  0.31450  Biso   1.000  C
  C34      1.0000 0.90870  0.04880  0.81450  Biso   1.000  C
  C35      1.0000 0.90870  0.95120  0.18550  Biso   1.000  C
  C36      1.0000 0.09130  0.04880  0.68550  Biso   1.000  C
  C37      1.0000 0.59130  0.45120  0.31450  Biso   1.000  C
  C38      1.0000 0.40870  0.54880  0.81450  Biso   1.000  C
  C39      1.0000 0.40870  0.45120  0.18550  Biso   1.000  C
  C40      1.0000 0.59130  0.54880  0.68550  Biso   1.000  C
  C41      1.0000 0.15110  0.24320  0.22770  Biso   1.000  C
  C42      1.0000 0.84890  0.75680  0.72770  Biso   1.000  C
  C43      1.0000 0.84890  0.24320  0.27230  Biso   1.000  C
  C44      1.0000 0.15110  0.75680  0.77230  Biso   1.000  C
  C45      1.0000 0.65110  0.74320  0.22770  Biso   1.000  C
  C46      1.0000 0.34890  0.25680  0.72770  Biso   1.000  C
  C47      1.0000 0.34890  0.74320  0.27230  Biso   1.000  C
  C48      1.0000 0.65110  0.25680  0.77230  Biso   1.000  C
  C49      1.0000 0.30380  0.23640  0.20670  Biso   1.000  C
  C50      1.0000 0.69620  0.76360  0.70670  Biso   1.000  C
  C51      1.0000 0.69620  0.23640  0.29330  Biso   1.000  C
  C52      1.0000 0.30380  0.76360  0.79330  Biso   1.000  C
  C53      1.0000 0.80380  0.73640  0.20670  Biso   1.000  C
  C54      1.0000 0.19620  0.26360  0.70670  Biso   1.000  C
  C55      1.0000 0.19620  0.73640  0.29330  Biso   1.000  C
  C56      1.0000 0.80380  0.26360  0.79330  Biso   1.000  C
  H1       1.0000 0.36020  0.28300  0.19920  Biso   1.000  H
  H2       1.0000 0.63980  0.71700  0.69920  Biso   1.000  H
  H3       1.0000 0.63980  0.28300  0.30080  Biso   1.000  H
  H4       1.0000 0.36020  0.71700  0.80080  Biso   1.000  H
  H5       1.0000 0.86020  0.78300  0.19920  Biso   1.000  H
  H6       1.0000 0.13980  0.21700  0.69920  Biso   1.000  H
  H7       1.0000 0.13980  0.78300  0.30080  Biso   1.000  H
  H8       1.0000 0.86020  0.21700  0.80080  Biso   1.000  H
  C57      1.0000 0.29270  0.09430  0.20900  Biso   1.000  C
  C58      1.0000 0.70730  0.90570  0.70900  Biso   1.000  C
  C59      1.0000 0.70730  0.09430  0.29100  Biso   1.000  C
  C60      1.0000 0.29270  0.90570  0.79100  Biso   1.000  C
  C61      1.0000 0.79270  0.59430  0.20900  Biso   1.000  C
  C62      1.0000 0.20730  0.40570  0.70900  Biso   1.000  C
  C63      1.0000 0.20730  0.59430  0.29100  Biso   1.000  C
  C64      1.0000 0.79270  0.40570  0.79100  Biso   1.000  C
  H9       1.0000 0.34260  0.04540  0.20270  Biso   1.000  H
  H10      1.0000 0.65740  0.95460  0.70270  Biso   1.000  H
  H11      1.0000 0.65740  0.04540  0.29730  Biso   1.000  H
  H12      1.0000 0.34260  0.95460  0.79730  Biso   1.000  H
  H13      1.0000 0.84260  0.54540  0.20270  Biso   1.000  H
  H14      1.0000 0.15740  0.45460  0.70270  Biso   1.000  H
  H15      1.0000 0.15740  0.54540  0.29730  Biso   1.000  H
  H16      1.0000 0.84260  0.45460  0.79730  Biso   1.000  H
  C65      1.0000 0.74900  0.84920  0.36820  Biso   1.000  C
  C66      1.0000 0.25100  0.15080  0.86820  Biso   1.000  C
  C67      1.0000 0.25100  0.84920  0.13180  Biso   1.000  C
  C68      1.0000 0.74900  0.15080  0.63180  Biso   1.000  C
  C69      1.0000 0.24900  0.34920  0.36820  Biso   1.000  C
  C70      1.0000 0.75100  0.65080  0.86820  Biso   1.000  C
  C71      1.0000 0.75100  0.34920  0.13180  Biso   1.000  C
  C72      1.0000 0.24900  0.65080  0.63180  Biso   1.000  C
  H17      1.0000 0.83830  0.87410  0.35410  Biso   1.000  H
  H18      1.0000 0.16170  0.12590  0.85410  Biso   1.000  H
  H19      1.0000 0.16170  0.87410  0.14590  Biso   1.000  H
  H20      1.0000 0.83830  0.12590  0.64590  Biso   1.000  H
  H21      1.0000 0.33830  0.37410  0.35410  Biso   1.000  H
  H22      1.0000 0.66170  0.62590  0.85410  Biso   1.000  H
  H23      1.0000 0.66170  0.37410  0.14590  Biso   1.000  H
  H24      1.0000 0.33830  0.62590  0.64590  Biso   1.000  H
  C73      1.0000 0.37080  0.16500  0.19710  Biso   1.000  C
  C74      1.0000 0.62920  0.83500  0.69710  Biso   1.000  C
  C75      1.0000 0.62920  0.16500  0.30290  Biso   1.000  C
  C76      1.0000 0.37080  0.83500  0.80290  Biso   1.000  C
  C77      1.0000 0.87080  0.66500  0.19710  Biso   1.000  C
  C78      1.0000 0.12920  0.33500  0.69710  Biso   1.000  C
  C79      1.0000 0.12920  0.66500  0.30290  Biso   1.000  C
  C80      1.0000 0.87080  0.33500  0.80290  Biso   1.000  C
  H25      1.0000 0.47130  0.16290  0.18230  Biso   1.000  H
  H26      1.0000 0.52870  0.83710  0.68230  Biso   1.000  H
  H27      1.0000 0.52870  0.16290  0.31770  Biso   1.000  H
  H28      1.0000 0.47130  0.83710  0.81770  Biso   1.000  H
  H29      1.0000 0.97130  0.66290  0.18230  Biso   1.000  H
  H30      1.0000 0.02870  0.33710  0.68230  Biso   1.000  H
  H31      1.0000 0.02870  0.66290  0.31770  Biso   1.000  H
  H32      1.0000 0.97130  0.33710  0.81770  Biso   1.000  H
  C81      1.0000 0.07140  0.31280  0.24020  Biso   1.000  C
  C82      1.0000 0.92860  0.68720  0.74020  Biso   1.000  C
  C83      1.0000 0.92860  0.31280  0.25980  Biso   1.000  C
  C84      1.0000 0.07140  0.68720  0.75980  Biso   1.000  C
  C85      1.0000 0.57140  0.81280  0.24020  Biso   1.000  C
  C86      1.0000 0.42860  0.18720  0.74020  Biso   1.000  C
  C87      1.0000 0.42860  0.81280  0.25980  Biso   1.000  C
  C88      1.0000 0.57140  0.18720  0.75980  Biso   1.000  C
  H33      1.0000 0.12120  0.36190  0.23440  Biso   1.000  H
  H34      1.0000 0.87880  0.63810  0.73440  Biso   1.000  H
  H35      1.0000 0.87880  0.36190  0.26560  Biso   1.000  H
  H36      1.0000 0.12120  0.63810  0.76560  Biso   1.000  H
  H37      1.0000 0.62120  0.86190  0.23440  Biso   1.000  H
  H38      1.0000 0.37880  0.13810  0.73440  Biso   1.000  H
  H39      1.0000 0.37880  0.86190  0.26560  Biso   1.000  H
  H40      1.0000 0.62120  0.13810  0.76560  Biso   1.000  H
  C89      1.0000 0.07600  0.66050  0.46300  Biso   1.000  C
  C90      1.0000 0.92400  0.33950  0.96300  Biso   1.000  C
  C91      1.0000 0.92400  0.66050  0.03700  Biso   1.000  C
  C92      1.0000 0.07600  0.33950  0.53700  Biso   1.000  C
  C93      1.0000 0.57600  0.16050  0.46300  Biso   1.000  C
  C94      1.0000 0.42400  0.83950  0.96300  Biso   1.000  C
  C95      1.0000 0.42400  0.16050  0.03700  Biso   1.000  C
  C96      1.0000 0.57600  0.83950  0.53700  Biso   1.000  C
  H41      1.0000 0.98490  0.63510  0.47490  Biso   1.000  H
  H42      1.0000 0.01510  0.36490  0.97490  Biso   1.000  H
  H43      1.0000 0.01510  0.63510  0.02510  Biso   1.000  H
  H44      1.0000 0.98490  0.36490  0.52510  Biso   1.000  H
  H45      1.0000 0.48490  0.13510  0.47490  Biso   1.000  H
  H46      1.0000 0.51510  0.86490  0.97490  Biso   1.000  H
  H47      1.0000 0.51510  0.13510  0.02510  Biso   1.000  H
  H48      1.0000 0.48490  0.86490  0.52510  Biso   1.000  H
  C97      1.0000 0.20840  0.62180  0.44930  Biso   1.000  C
  C98      1.0000 0.79160  0.37820  0.94930  Biso   1.000  C
  C99      1.0000 0.79160  0.62180  0.05070  Biso   1.000  C
  C100     1.0000 0.20840  0.37820  0.55070  Biso   1.000  C
  C101     1.0000 0.70840  0.12180  0.44930  Biso   1.000  C
  C102     1.0000 0.29160  0.87820  0.94930  Biso   1.000  C
  C103     1.0000 0.29160  0.12180  0.05070  Biso   1.000  C
  C104     1.0000 0.70840  0.87820  0.55070  Biso   1.000  C
  H49      1.0000 0.20260  0.56610  0.45230  Biso   1.000  H
  H50      1.0000 0.79740  0.43390  0.95230  Biso   1.000  H
  H51      1.0000 0.79740  0.56610  0.04770  Biso   1.000  H
  H52      1.0000 0.20260  0.43390  0.54770  Biso   1.000  H
  H53      1.0000 0.70260  0.06610  0.45230  Biso   1.000  H
  H54      1.0000 0.29740  0.93390  0.95230  Biso   1.000  H
  H55      1.0000 0.29740  0.06610  0.04770  Biso   1.000  H
  H56      1.0000 0.70260  0.93390  0.54770  Biso   1.000  H
  C105     1.0000 0.34300  0.64850  0.43260  Biso   1.000  C
  C106     1.0000 0.65700  0.35150  0.93260  Biso   1.000  C
  C107     1.0000 0.65700  0.64850  0.06740  Biso   1.000  C
  C108     1.0000 0.34300  0.35150  0.56740  Biso   1.000  C
  C109     1.0000 0.84300  0.14850  0.43260  Biso   1.000  C
  C110     1.0000 0.15700  0.85150  0.93260  Biso   1.000  C
  C111     1.0000 0.15700  0.14850  0.06740  Biso   1.000  C
  C112     1.0000 0.84300  0.85150  0.56740  Biso   1.000  C
  C113     1.0000 0.60550  0.89870  0.38370  Biso   1.000  C
  C114     1.0000 0.39450  0.10130  0.88370  Biso   1.000  C
  C115     1.0000 0.39450  0.89870  0.11630  Biso   1.000  C
  C116     1.0000 0.60550  0.10130  0.61630  Biso   1.000  C
  C117     1.0000 0.10550  0.39870  0.38370  Biso   1.000  C
  C118     1.0000 0.89450  0.60130  0.88370  Biso   1.000  C
  C119     1.0000 0.89450  0.39870  0.11630  Biso   1.000  C
  C120     1.0000 0.10550  0.60130  0.61630  Biso   1.000  C
  H57      1.0000 0.60520  0.95450  0.38150  Biso   1.000  H
  H58      1.0000 0.39480  0.04550  0.88150  Biso   1.000  H
  H59      1.0000 0.39480  0.95450  0.11850  Biso   1.000  H
  H60      1.0000 0.60520  0.04550  0.61850  Biso   1.000  H
  H61      1.0000 0.10520  0.45450  0.38150  Biso   1.000  H
  H62      1.0000 0.89480  0.54550  0.88150  Biso   1.000  H
  H63      1.0000 0.89480  0.45450  0.11850  Biso   1.000  H
  H64      1.0000 0.10520  0.54550  0.61850  Biso   1.000  H
  C121     1.0000 0.61780  0.72350  0.39380  Biso   1.000  C
  C122     1.0000 0.38220  0.27650  0.89380  Biso   1.000  C
  C123     1.0000 0.38220  0.72350  0.10620  Biso   1.000  C
  C124     1.0000 0.61780  0.27650  0.60620  Biso   1.000  C
  C125     1.0000 0.11780  0.22350  0.39380  Biso   1.000  C
  C126     1.0000 0.88220  0.77650  0.89380  Biso   1.000  C
  C127     1.0000 0.88220  0.22350  0.10620  Biso   1.000  C
  C128     1.0000 0.11780  0.77650  0.60620  Biso   1.000  C
  C129     1.0000 0.09250  0.74670  0.45700  Biso   1.000  C
  C130     1.0000 0.90750  0.25330  0.95700  Biso   1.000  C
  C131     1.0000 0.90750  0.74670  0.04300  Biso   1.000  C
  C132     1.0000 0.09250  0.25330  0.54300  Biso   1.000  C
  C133     1.0000 0.59250  0.24670  0.45700  Biso   1.000  C
  C134     1.0000 0.40750  0.75330  0.95700  Biso   1.000  C
  C135     1.0000 0.40750  0.24670  0.04300  Biso   1.000  C
  C136     1.0000 0.59250  0.75330  0.54300  Biso   1.000  C
  H65      1.0000 0.00780  0.77870  0.46720  Biso   1.000  H
  H66      1.0000 0.99220  0.22130  0.96720  Biso   1.000  H
  H67      1.0000 0.99220  0.77870  0.03280  Biso   1.000  H
  H68      1.0000 0.00780  0.22130  0.53280  Biso   1.000  H
  H69      1.0000 0.50780  0.27870  0.46720  Biso   1.000  H
  H70      1.0000 0.49220  0.72130  0.96720  Biso   1.000  H
  H71      1.0000 0.49220  0.27870  0.03280  Biso   1.000  H
  H72      1.0000 0.50780  0.72130  0.53280  Biso   1.000  H
  C137     1.0000 0.58700  0.63950  0.40050  Biso   1.000  C
  C138     1.0000 0.41300  0.36050  0.90050  Biso   1.000  C
  C139     1.0000 0.41300  0.63950  0.09950  Biso   1.000  C
  C140     1.0000 0.58700  0.36050  0.59950  Biso   1.000  C
  C141     1.0000 0.08700  0.13950  0.40050  Biso   1.000  C
  C142     1.0000 0.91300  0.86050  0.90050  Biso   1.000  C
  C143     1.0000 0.91300  0.13950  0.09950  Biso   1.000  C
  C144     1.0000 0.08700  0.86050  0.59950  Biso   1.000  C
  H73      1.0000 0.66720  0.60550  0.38880  Biso   1.000  H
  H74      1.0000 0.33280  0.39450  0.88880  Biso   1.000  H
  H75      1.0000 0.33280  0.60550  0.11120  Biso   1.000  H
  H76      1.0000 0.66720  0.39450  0.61120  Biso   1.000  H
  H77      1.0000 0.16720  0.10550  0.38880  Biso   1.000  H
  H78      1.0000 0.83280  0.89450  0.88880  Biso   1.000  H
  H79      1.0000 0.83280  0.10550  0.11120  Biso   1.000  H
  H80      1.0000 0.16720  0.89450  0.61120  Biso   1.000  H
  C145     1.0000 0.48100  0.60810  0.41790  Biso   1.000  C
  C146     1.0000 0.51900  0.39190  0.91790  Biso   1.000  C
  C147     1.0000 0.51900  0.60810  0.08210  Biso   1.000  C
  C148     1.0000 0.48100  0.39190  0.58210  Biso   1.000  C
  C149     1.0000 0.98100  0.10810  0.41790  Biso   1.000  C
  C150     1.0000 0.01900  0.89190  0.91790  Biso   1.000  C
  C151     1.0000 0.01900  0.10810  0.08210  Biso   1.000  C
  C152     1.0000 0.98100  0.89190  0.58210  Biso   1.000  C
  H81      1.0000 0.48500  0.55260  0.42260  Biso   1.000  H
  H82      1.0000 0.51500  0.44740  0.92260  Biso   1.000  H
  H83      1.0000 0.51500  0.55260  0.07740  Biso   1.000  H
  H84      1.0000 0.48500  0.44740  0.57740  Biso   1.000  H
  H85      1.0000 0.98500  0.05260  0.42260  Biso   1.000  H
  H86      1.0000 0.01500  0.94740  0.92260  Biso   1.000  H
  H87      1.0000 0.01500  0.05260  0.07740  Biso   1.000  H
  H88      1.0000 0.98500  0.94740  0.57740  Biso   1.000  H
  C153     1.0000 0.74600  0.77420  0.37470  Biso   1.000  C
  C154     1.0000 0.25400  0.22580  0.87470  Biso   1.000  C
  C155     1.0000 0.25400  0.77420  0.12530  Biso   1.000  C
  C156     1.0000 0.74600  0.22580  0.62530  Biso   1.000  C
  C157     1.0000 0.24600  0.27420  0.37470  Biso   1.000  C
  C158     1.0000 0.75400  0.72580  0.87470  Biso   1.000  C
  C159     1.0000 0.75400  0.27420  0.12530  Biso   1.000  C
  C160     1.0000 0.24600  0.72580  0.62530  Biso   1.000  C
  H89      1.0000 0.83860  0.74730  0.36620  Biso   1.000  H
  H90      1.0000 0.16140  0.25270  0.86620  Biso   1.000  H
  H91      1.0000 0.16140  0.74730  0.13380  Biso   1.000  H
  H92      1.0000 0.83860  0.25270  0.63380  Biso   1.000  H
  H93      1.0000 0.33860  0.24730  0.36620  Biso   1.000  H
  H94      1.0000 0.66140  0.75270  0.86620  Biso   1.000  H
  H95      1.0000 0.66140  0.24730  0.13380  Biso   1.000  H
  H96      1.0000 0.33860  0.75270  0.63380  Biso   1.000  H
  N1       1.0000 0.21940  0.78330  0.43800  Biso   1.000  N
  N2       1.0000 0.78060  0.21670  0.93800  Biso   1.000  N
  N3       1.0000 0.78060  0.78330  0.06200  Biso   1.000  N
  N4       1.0000 0.21940  0.21670  0.56200  Biso   1.000  N
  N5       1.0000 0.71940  0.28330  0.43800  Biso   1.000  N
  N6       1.0000 0.28060  0.71670  0.93800  Biso   1.000  N
  N7       1.0000 0.28060  0.28330  0.06200  Biso   1.000  N
  N8       1.0000 0.71940  0.71670  0.56200  Biso   1.000  N
  N9       1.0000 0.14640  0.09450  0.22940  Biso   1.000  N
  N10      1.0000 0.85360  0.90550  0.72940  Biso   1.000  N
  N11      1.0000 0.85360  0.09450  0.27060  Biso   1.000  N
  N12      1.0000 0.14640  0.90550  0.77060  Biso   1.000  N
  N13      1.0000 0.64640  0.59450  0.22940  Biso   1.000  N
  N14      1.0000 0.35360  0.40550  0.72940  Biso   1.000  N
  N15      1.0000 0.35360  0.59450  0.27060  Biso   1.000  N
  N16      1.0000 0.64640  0.40550  0.77060  Biso   1.000  N
  N17      1.0000 0.47780  0.85680  0.40080  Biso   1.000  N
  N18      1.0000 0.52220  0.14320  0.90080  Biso   1.000  N
  N19      1.0000 0.52220  0.85680  0.09920  Biso   1.000  N
  N20      1.0000 0.47780  0.14320  0.59920  Biso   1.000  N
  N21      1.0000 0.97780  0.35680  0.40080  Biso   1.000  N
  N22      1.0000 0.02220  0.64320  0.90080  Biso   1.000  N
  N23      1.0000 0.02220  0.35680  0.09920  Biso   1.000  N
  N24      1.0000 0.97780  0.64320  0.59920  Biso   1.000  N
  N25      1.0000 0.14990  0.93290  0.35460  Biso   1.000  N
  N26      1.0000 0.85010  0.06710  0.85460  Biso   1.000  N
  N27      1.0000 0.85010  0.93290  0.14540  Biso   1.000  N
  N28      1.0000 0.14990  0.06710  0.64540  Biso   1.000  N
  N29      1.0000 0.64990  0.43290  0.35460  Biso   1.000  N
  N30      1.0000 0.35010  0.56710  0.85460  Biso   1.000  N
  N31      1.0000 0.35010  0.43290  0.14540  Biso   1.000  N
  N32      1.0000 0.64990  0.56710  0.64540  Biso   1.000  N
