data_image0
_cell_length_a       4.337
_cell_length_b       11.999
_cell_length_c       16.12
_cell_angle_alpha    90
_cell_angle_beta     97.54
_cell_angle_gamma    90

_symmetry_space_group_name_H-M    "P 1"
_symmetry_int_tables_number       1

loop_
  _symmetry_equiv_pos_as_xyz
  'x, y, z'

loop_
  _atom_site_label
  _atom_site_occupancy
  _atom_site_fract_x
  _atom_site_fract_y
  _atom_site_fract_z
  _atom_site_thermal_displace_type
  _atom_site_B_iso_or_equiv
  _atom_site_type_symbol
  I1       1.0000 0.74690  0.66100  0.48370  Biso   1.000  I
  I2       1.0000 0.25310  0.16100  0.01630  Biso   1.000  I
  I3       1.0000 0.25310  0.33900  0.51630  Biso   1.000  I
  I4       1.0000 0.74690  0.83900  0.98370  Biso   1.000  I
  Cu1      1.0000 0.72360  0.44620  0.45080  Biso   1.000  Cu
  Cu2      1.0000 0.27640  0.94620  0.04920  Biso   1.000  Cu
  Cu3      1.0000 0.27640  0.55380  0.54920  Biso   1.000  Cu
  Cu4      1.0000 0.72360  0.05380  0.95080  Biso   1.000  Cu
  N1       1.0000 0.64850  0.41110  0.32780  Biso   1.000  N
  N2       1.0000 0.35150  0.91110  0.17220  Biso   1.000  N
  N3       1.0000 0.35150  0.58890  0.67220  Biso   1.000  N
  N4       1.0000 0.64850  0.08890  0.82780  Biso   1.000  N
  C1       1.0000 0.45780  0.33140  0.29380  Biso   1.000  C
  C2       1.0000 0.54220  0.83140  0.20620  Biso   1.000  C
  C3       1.0000 0.54220  0.66860  0.70620  Biso   1.000  C
  C4       1.0000 0.45780  0.16860  0.79380  Biso   1.000  C
  N5       1.0000 0.45110  0.32670  0.20880  Biso   1.000  N
  N6       1.0000 0.54890  0.82670  0.29120  Biso   1.000  N
  N7       1.0000 0.54890  0.67330  0.79120  Biso   1.000  N
  N8       1.0000 0.45110  0.17330  0.70880  Biso   1.000  N
  C5       1.0000 0.70870  0.44700  0.10780  Biso   1.000  C
  C6       1.0000 0.29130  0.94700  0.39220  Biso   1.000  C
  C7       1.0000 0.29130  0.55300  0.89220  Biso   1.000  C
  C8       1.0000 0.70870  0.05300  0.60780  Biso   1.000  C
  C9       1.0000 0.90740  0.53850  0.10830  Biso   1.000  C
  C10      1.0000 0.09260  0.03850  0.39170  Biso   1.000  C
  C11      1.0000 0.09260  0.46150  0.89170  Biso   1.000  C
  C12      1.0000 0.90740  0.96150  0.60830  Biso   1.000  C
  C13      1.0000 0.02980  0.58930  0.18340  Biso   1.000  C
  C14      1.0000 0.97020  0.08930  0.31660  Biso   1.000  C
  C15      1.0000 0.97020  0.41070  0.81660  Biso   1.000  C
  C16      1.0000 0.02980  0.91070  0.68340  Biso   1.000  C
  C17      1.0000 0.96460  0.55350  0.26050  Biso   1.000  C
  C18      1.0000 0.03540  0.05350  0.23950  Biso   1.000  C
  C19      1.0000 0.03540  0.44650  0.73950  Biso   1.000  C
  C20      1.0000 0.96460  0.94650  0.76050  Biso   1.000  C
  C21      1.0000 0.76160  0.46270  0.26140  Biso   1.000  C
  C22      1.0000 0.23840  0.96270  0.23860  Biso   1.000  C
  C23      1.0000 0.23840  0.53730  0.73860  Biso   1.000  C
  C24      1.0000 0.76160  0.03730  0.76140  Biso   1.000  C
  C25      1.0000 0.64420  0.41230  0.18570  Biso   1.000  C
  C26      1.0000 0.35580  0.91230  0.31430  Biso   1.000  C
  C27      1.0000 0.35580  0.58770  0.81430  Biso   1.000  C
  C28      1.0000 0.64420  0.08770  0.68570  Biso   1.000  C
  H1       1.0000 0.35260  0.27010  0.33240  Biso   1.000  H
  H2       1.0000 0.64740  0.77010  0.16760  Biso   1.000  H
  H3       1.0000 0.64740  0.72990  0.66760  Biso   1.000  H
  H4       1.0000 0.35260  0.22990  0.83240  Biso   1.000  H
  H5       1.0000 0.25550  0.30480  0.16490  Biso   1.000  H
  H6       1.0000 0.74450  0.80480  0.33510  Biso   1.000  H
  H7       1.0000 0.74450  0.69520  0.83510  Biso   1.000  H
  H8       1.0000 0.25550  0.19520  0.66490  Biso   1.000  H
  H9       1.0000 0.60460  0.39800  0.05410  Biso   1.000  H
  H10      1.0000 0.39540  0.89800  0.44590  Biso   1.000  H
  H11      1.0000 0.39540  0.60200  0.94590  Biso   1.000  H
  H12      1.0000 0.60460  0.10200  0.55410  Biso   1.000  H
  H13      1.0000 0.98280  0.56290  0.05280  Biso   1.000  H
  H14      1.0000 0.01720  0.06290  0.44720  Biso   1.000  H
  H15      1.0000 0.01720  0.43710  0.94720  Biso   1.000  H
  H16      1.0000 0.98280  0.93710  0.55280  Biso   1.000  H
  H17      1.0000 0.19170  0.66000  0.18210  Biso   1.000  H
  H18      1.0000 0.80830  0.16000  0.31790  Biso   1.000  H
  H19      1.0000 0.80830  0.34000  0.81790  Biso   1.000  H
  H20      1.0000 0.19170  0.84000  0.68210  Biso   1.000  H
  H21      1.0000 0.04660  0.57990  0.31990  Biso   1.000  H
  H22      1.0000 0.95340  0.07990  0.18010  Biso   1.000  H
  H23      1.0000 0.95340  0.42010  0.68010  Biso   1.000  H
  H24      1.0000 0.04660  0.92010  0.81990  Biso   1.000  H
