data_image0
_cell_length_a       11.0004
_cell_length_b       18.6159
_cell_length_c       7.2158
_cell_angle_alpha    90
_cell_angle_beta     118.241
_cell_angle_gamma    90

_symmetry_space_group_name_H-M    "P 1"
_symmetry_int_tables_number       1

loop_
  _symmetry_equiv_pos_as_xyz
  'x, y, z'

loop_
  _atom_site_label
  _atom_site_occupancy
  _atom_site_fract_x
  _atom_site_fract_y
  _atom_site_fract_z
  _atom_site_thermal_displace_type
  _atom_site_B_iso_or_equiv
  _atom_site_type_symbol
  Cu1      1.0000 0.50000  0.47831  0.75000  Biso   1.000  Cu
  Cu2      1.0000 0.00000  0.97831  0.75000  Biso   1.000  Cu
  Cu3      1.0000 0.50000  0.52169  0.25000  Biso   1.000  Cu
  Cu4      1.0000 0.00000  0.02169  0.25000  Biso   1.000  Cu
  N1       1.0000 0.39586  0.42270  0.86560  Biso   1.000  N
  N2       1.0000 0.60414  0.42270  0.63440  Biso   1.000  N
  N3       1.0000 0.89586  0.92270  0.86560  Biso   1.000  N
  N4       1.0000 0.10414  0.92270  0.63440  Biso   1.000  N
  N5       1.0000 0.60414  0.57730  0.13440  Biso   1.000  N
  N6       1.0000 0.39586  0.57730  0.36560  Biso   1.000  N
  N7       1.0000 0.10414  0.07730  0.13440  Biso   1.000  N
  N8       1.0000 0.89586  0.07730  0.36560  Biso   1.000  N
  N9       1.0000 0.37536  0.44637  0.03020  Biso   1.000  N
  N10      1.0000 0.62464  0.44637  0.46980  Biso   1.000  N
  N11      1.0000 0.87536  0.94637  0.03020  Biso   1.000  N
  N12      1.0000 0.12464  0.94637  0.46980  Biso   1.000  N
  N13      1.0000 0.62464  0.55363  0.96980  Biso   1.000  N
  N14      1.0000 0.37536  0.55363  0.53020  Biso   1.000  N
  N15      1.0000 0.12464  0.05363  0.96980  Biso   1.000  N
  N16      1.0000 0.87536  0.05363  0.53020  Biso   1.000  N
  N17      1.0000 0.27350  0.34262  0.92320  Biso   1.000  N
  N18      1.0000 0.72650  0.34262  0.57680  Biso   1.000  N
  N19      1.0000 0.77350  0.84262  0.92320  Biso   1.000  N
  N20      1.0000 0.22650  0.84262  0.57680  Biso   1.000  N
  N21      1.0000 0.72650  0.65738  0.07680  Biso   1.000  N
  N22      1.0000 0.27350  0.65738  0.42320  Biso   1.000  N
  N23      1.0000 0.22650  0.15738  0.07680  Biso   1.000  N
  N24      1.0000 0.77350  0.15738  0.42320  Biso   1.000  N
  C1       1.0000 0.33400  0.36072  0.80570  Biso   1.000  C
  C2       1.0000 0.66600  0.36072  0.69430  Biso   1.000  C
  C3       1.0000 0.83400  0.86072  0.80570  Biso   1.000  C
  C4       1.0000 0.16600  0.86072  0.69430  Biso   1.000  C
  C5       1.0000 0.66600  0.63928  0.19430  Biso   1.000  C
  C6       1.0000 0.33400  0.63928  0.30570  Biso   1.000  C
  C7       1.0000 0.16600  0.13928  0.19430  Biso   1.000  C
  C8       1.0000 0.83400  0.13928  0.30570  Biso   1.000  C
  H1       1.0000 0.33200  0.33270  0.69600  Biso   1.000  H
  H2       1.0000 0.66800  0.33270  0.80400  Biso   1.000  H
  H3       1.0000 0.83200  0.83270  0.69600  Biso   1.000  H
  H4       1.0000 0.16800  0.83270  0.80400  Biso   1.000  H
  H5       1.0000 0.66800  0.66730  0.30400  Biso   1.000  H
  H6       1.0000 0.33200  0.66730  0.19600  Biso   1.000  H
  H7       1.0000 0.16800  0.16730  0.30400  Biso   1.000  H
  H8       1.0000 0.83200  0.16730  0.19600  Biso   1.000  H
  C9       1.0000 0.30200  0.39744  0.05980  Biso   1.000  C
  C10      1.0000 0.69800  0.39744  0.44020  Biso   1.000  C
  C11      1.0000 0.80200  0.89744  0.05980  Biso   1.000  C
  C12      1.0000 0.19800  0.89744  0.44020  Biso   1.000  C
  C13      1.0000 0.69800  0.60256  0.94020  Biso   1.000  C
  C14      1.0000 0.30200  0.60256  0.55980  Biso   1.000  C
  C15      1.0000 0.19800  0.10256  0.94020  Biso   1.000  C
  C16      1.0000 0.80200  0.10256  0.55980  Biso   1.000  C
  H9       1.0000 0.27270  0.39990  0.16260  Biso   1.000  H
  H10      1.0000 0.72730  0.39990  0.33740  Biso   1.000  H
  H11      1.0000 0.77270  0.89990  0.16260  Biso   1.000  H
  H12      1.0000 0.22730  0.89990  0.33740  Biso   1.000  H
  H13      1.0000 0.72730  0.60010  0.83740  Biso   1.000  H
  H14      1.0000 0.27270  0.60010  0.66260  Biso   1.000  H
  H15      1.0000 0.22730  0.10010  0.83740  Biso   1.000  H
  H16      1.0000 0.77270  0.10010  0.66260  Biso   1.000  H
  C17      1.0000 0.20230  0.27511  0.91510  Biso   1.000  C
  C18      1.0000 0.79770  0.27511  0.58490  Biso   1.000  C
  C19      1.0000 0.70230  0.77511  0.91510  Biso   1.000  C
  C20      1.0000 0.29770  0.77511  0.58490  Biso   1.000  C
  C21      1.0000 0.79770  0.72489  0.08490  Biso   1.000  C
  C22      1.0000 0.20230  0.72489  0.41510  Biso   1.000  C
  C23      1.0000 0.29770  0.22489  0.08490  Biso   1.000  C
  C24      1.0000 0.70230  0.22489  0.41510  Biso   1.000  C
  H17      1.0000 0.12130  0.28510  0.93370  Biso   1.000  H
  H18      1.0000 0.87870  0.28510  0.56630  Biso   1.000  H
  H19      1.0000 0.62130  0.78510  0.93370  Biso   1.000  H
  H20      1.0000 0.37870  0.78510  0.56630  Biso   1.000  H
  H21      1.0000 0.87870  0.71490  0.06630  Biso   1.000  H
  H22      1.0000 0.12130  0.71490  0.43370  Biso   1.000  H
  H23      1.0000 0.37870  0.21490  0.06630  Biso   1.000  H
  H24      1.0000 0.62130  0.21490  0.43370  Biso   1.000  H
  H25      1.0000 0.17070  0.25250  0.77730  Biso   1.000  H
  H26      1.0000 0.82930  0.25250  0.72270  Biso   1.000  H
  H27      1.0000 0.67070  0.75250  0.77730  Biso   1.000  H
  H28      1.0000 0.32930  0.75250  0.72270  Biso   1.000  H
  H29      1.0000 0.82930  0.74750  0.22270  Biso   1.000  H
  H30      1.0000 0.17070  0.74750  0.27730  Biso   1.000  H
  H31      1.0000 0.32930  0.24750  0.22270  Biso   1.000  H
  H32      1.0000 0.67070  0.24750  0.27730  Biso   1.000  H
  Cl1      1.0000 0.50000  0.81968  0.25000  Biso   1.000  Cl
  Cl2      1.0000 0.00000  0.31968  0.25000  Biso   1.000  Cl
  Cl3      1.0000 0.50000  0.18032  0.75000  Biso   1.000  Cl
  Cl4      1.0000 0.00000  0.68032  0.75000  Biso   1.000  Cl
  O1       1.0000 0.55310  0.76550  0.42750  Biso   1.000  O
  O2       1.0000 0.44690  0.76550  0.07250  Biso   1.000  O
  O3       1.0000 0.05310  0.26550  0.42750  Biso   1.000  O
  O4       1.0000 0.94690  0.26550  0.07250  Biso   1.000  O
  O5       1.0000 0.44690  0.23450  0.57250  Biso   1.000  O
  O6       1.0000 0.55310  0.23450  0.92750  Biso   1.000  O
  O7       1.0000 0.94690  0.73450  0.57250  Biso   1.000  O
  O8       1.0000 0.05310  0.73450  0.92750  Biso   1.000  O
  O9       1.0000 0.41620  0.86070  0.27000  Biso   1.000  O
  O10      1.0000 0.58380  0.86070  0.23000  Biso   1.000  O
  O11      1.0000 0.91620  0.36070  0.27000  Biso   1.000  O
  O12      1.0000 0.08380  0.36070  0.23000  Biso   1.000  O
  O13      1.0000 0.58380  0.13930  0.73000  Biso   1.000  O
  O14      1.0000 0.41620  0.13930  0.77000  Biso   1.000  O
  O15      1.0000 0.08380  0.63930  0.73000  Biso   1.000  O
  O16      1.0000 0.91620  0.63930  0.77000  Biso   1.000  O
  O17      1.0000 0.36580  0.83930  0.21200  Biso   1.000  O
  O18      1.0000 0.63420  0.83930  0.28800  Biso   1.000  O
  O19      1.0000 0.86580  0.33930  0.21200  Biso   1.000  O
  O20      1.0000 0.13420  0.33930  0.28800  Biso   1.000  O
  O21      1.0000 0.63420  0.16070  0.78800  Biso   1.000  O
  O22      1.0000 0.36580  0.16070  0.71200  Biso   1.000  O
  O23      1.0000 0.13420  0.66070  0.78800  Biso   1.000  O
  O24      1.0000 0.86580  0.66070  0.71200  Biso   1.000  O
  O25      1.0000 0.49810  0.87710  0.41170  Biso   1.000  O
  O26      1.0000 0.50190  0.87710  0.08830  Biso   1.000  O
  O27      1.0000 0.99810  0.37710  0.41170  Biso   1.000  O
  O28      1.0000 0.00190  0.37710  0.08830  Biso   1.000  O
  O29      1.0000 0.50190  0.12290  0.58830  Biso   1.000  O
  O30      1.0000 0.49810  0.12290  0.91170  Biso   1.000  O
  O31      1.0000 0.00190  0.62290  0.58830  Biso   1.000  O
  O32      1.0000 0.99810  0.62290  0.91170  Biso   1.000  O
  O33      1.0000 0.51700  0.80500  0.44200  Biso   1.000  O
  O34      1.0000 0.48300  0.80500  0.05800  Biso   1.000  O
  O35      1.0000 0.01700  0.30500  0.44200  Biso   1.000  O
  O36      1.0000 0.98300  0.30500  0.05800  Biso   1.000  O
  O37      1.0000 0.48300  0.19500  0.55800  Biso   1.000  O
  O38      1.0000 0.51700  0.19500  0.94200  Biso   1.000  O
  O39      1.0000 0.98300  0.69500  0.55800  Biso   1.000  O
  O40      1.0000 0.01700  0.69500  0.94200  Biso   1.000  O
  O41      1.0000 0.38480  0.78970  0.13790  Biso   1.000  O
  O42      1.0000 0.61520  0.78970  0.36210  Biso   1.000  O
  O43      1.0000 0.88480  0.28970  0.13790  Biso   1.000  O
  O44      1.0000 0.11520  0.28970  0.36210  Biso   1.000  O
  O45      1.0000 0.61520  0.21030  0.86210  Biso   1.000  O
  O46      1.0000 0.38480  0.21030  0.63790  Biso   1.000  O
  O47      1.0000 0.11520  0.71030  0.86210  Biso   1.000  O
  O48      1.0000 0.88480  0.71030  0.63790  Biso   1.000  O
  O49      1.0000 0.51300  0.95700  0.66100  Biso   1.000  O
  O50      1.0000 0.48700  0.95700  0.83900  Biso   1.000  O
  O51      1.0000 0.01300  0.45700  0.66100  Biso   1.000  O
  O52      1.0000 0.98700  0.45700  0.83900  Biso   1.000  O
  O53      1.0000 0.48700  0.04300  0.33900  Biso   1.000  O
  O54      1.0000 0.51300  0.04300  0.16100  Biso   1.000  O
  O55      1.0000 0.98700  0.54300  0.33900  Biso   1.000  O
  O56      1.0000 0.01300  0.54300  0.16100  Biso   1.000  O
