data_image0
_cell_length_a       6.1253
_cell_length_b       12.9739
_cell_length_c       7.6245
_cell_angle_alpha    90
_cell_angle_beta     103.989
_cell_angle_gamma    90

_symmetry_space_group_name_H-M    "P 1"
_symmetry_int_tables_number       1

loop_
  _symmetry_equiv_pos_as_xyz
  'x, y, z'

loop_
  _atom_site_label
  _atom_site_occupancy
  _atom_site_fract_x
  _atom_site_fract_y
  _atom_site_fract_z
  _atom_site_thermal_displace_type
  _atom_site_B_iso_or_equiv
  _atom_site_type_symbol
  Cu1      1.0000 0.03735  0.65104  0.50354  Biso   1.000  Cu
  Cu2      1.0000 0.46265  0.15104  0.99646  Biso   1.000  Cu
  Cu3      1.0000 0.96265  0.34896  0.49646  Biso   1.000  Cu
  Cu4      1.0000 0.53735  0.84896  0.00354  Biso   1.000  Cu
  N1       1.0000 0.21350  0.53987  0.39600  Biso   1.000  N
  N2       1.0000 0.28650  0.03987  0.10400  Biso   1.000  N
  N3       1.0000 0.78650  0.46013  0.60400  Biso   1.000  N
  N4       1.0000 0.71350  0.96013  0.89600  Biso   1.000  N
  N5       1.0000 0.15790  0.43664  0.36400  Biso   1.000  N
  N6       1.0000 0.34210  0.93664  0.13600  Biso   1.000  N
  N7       1.0000 0.84210  0.56336  0.63600  Biso   1.000  N
  N8       1.0000 0.65790  0.06336  0.86400  Biso   1.000  N
  N9       1.0000 0.40380  0.47891  0.21030  Biso   1.000  N
  N10      1.0000 0.09620  0.97891  0.28970  Biso   1.000  N
  N11      1.0000 0.59620  0.52109  0.78970  Biso   1.000  N
  N12      1.0000 0.90380  0.02109  0.71030  Biso   1.000  N
  C1       1.0000 0.36080  0.56180  0.30340  Biso   1.000  C
  C2       1.0000 0.13920  0.06180  0.19660  Biso   1.000  C
  C3       1.0000 0.63920  0.43820  0.69660  Biso   1.000  C
  C4       1.0000 0.86080  0.93820  0.80340  Biso   1.000  C
  H1       1.0000 0.42810  0.62680  0.30180  Biso   1.000  H
  H2       1.0000 0.07190  0.12680  0.19820  Biso   1.000  H
  H3       1.0000 0.57190  0.37320  0.69820  Biso   1.000  H
  H4       1.0000 0.92810  0.87320  0.80180  Biso   1.000  H
  C5       1.0000 0.27460  0.40300  0.25260  Biso   1.000  C
  C6       1.0000 0.22540  0.90300  0.24740  Biso   1.000  C
  C7       1.0000 0.72540  0.59700  0.74740  Biso   1.000  C
  C8       1.0000 0.77460  0.09700  0.75260  Biso   1.000  C
  H5       1.0000 0.26920  0.33520  0.20820  Biso   1.000  H
  H6       1.0000 0.23080  0.83520  0.29180  Biso   1.000  H
  H7       1.0000 0.73080  0.66480  0.79180  Biso   1.000  H
  H8       1.0000 0.76920  0.16480  0.70820  Biso   1.000  H
  C9       1.0000 0.55500  0.47330  0.08820  Biso   1.000  C
  C10      1.0000 0.94500  0.97330  0.41180  Biso   1.000  C
  C11      1.0000 0.44500  0.52670  0.91180  Biso   1.000  C
  C12      1.0000 0.05500  0.02670  0.58820  Biso   1.000  C
  H9       1.0000 0.58580  0.40110  0.06510  Biso   1.000  H
  H10      1.0000 0.91420  0.90110  0.43490  Biso   1.000  H
  H11      1.0000 0.41420  0.59890  0.93490  Biso   1.000  H
  H12      1.0000 0.08580  0.09890  0.56510  Biso   1.000  H
  H13      1.0000 0.69820  0.50700  0.14390  Biso   1.000  H
  H14      1.0000 0.80180  0.00700  0.35610  Biso   1.000  H
  H15      1.0000 0.30180  0.49300  0.85610  Biso   1.000  H
  H16      1.0000 0.19820  0.99300  0.64390  Biso   1.000  H
  C13      1.0000 0.22070  0.74490  0.66790  Biso   1.000  C
  C14      1.0000 0.27930  0.24490  0.83210  Biso   1.000  C
  C15      1.0000 0.77930  0.25510  0.33210  Biso   1.000  C
  C16      1.0000 0.72070  0.75510  0.16790  Biso   1.000  C
  N13      1.0000 0.32850  0.79520  0.77920  Biso   1.000  N
  N14      1.0000 0.17150  0.29520  0.72080  Biso   1.000  N
  N15      1.0000 0.67150  0.20480  0.22080  Biso   1.000  N
  N16      1.0000 0.82850  0.70480  0.27920  Biso   1.000  N
