data_image0
_cell_length_a       13.6922
_cell_length_b       12.5729
_cell_length_c       18.8804
_cell_angle_alpha    90
_cell_angle_beta     94.395
_cell_angle_gamma    90

_symmetry_space_group_name_H-M    "P 1"
_symmetry_int_tables_number       1

loop_
  _symmetry_equiv_pos_as_xyz
  'x, y, z'

loop_
  _atom_site_label
  _atom_site_occupancy
  _atom_site_fract_x
  _atom_site_fract_y
  _atom_site_fract_z
  _atom_site_thermal_displace_type
  _atom_site_B_iso_or_equiv
  _atom_site_type_symbol
  Cu1      1.0000 0.84077  0.17713  0.14299  Biso   1.000  Cu
  Cu2      1.0000 0.65923  0.67713  0.35701  Biso   1.000  Cu
  Cu3      1.0000 0.15923  0.82287  0.85701  Biso   1.000  Cu
  Cu4      1.0000 0.34077  0.32287  0.64299  Biso   1.000  Cu
  P1       1.0000 0.00098  0.18095  0.18615  Biso   1.000  P
  P2       1.0000 0.49902  0.68095  0.31385  Biso   1.000  P
  P3       1.0000 0.99902  0.81905  0.81385  Biso   1.000  P
  P4       1.0000 0.50098  0.31905  0.68615  Biso   1.000  P
  C1       1.0000 0.03040  0.31270  0.22233  Biso   1.000  C
  C2       1.0000 0.46960  0.81270  0.27767  Biso   1.000  C
  C3       1.0000 0.96960  0.68730  0.77767  Biso   1.000  C
  C4       1.0000 0.53040  0.18730  0.72233  Biso   1.000  C
  C5       1.0000 0.04340  0.33320  0.29420  Biso   1.000  C
  C6       1.0000 0.45660  0.83320  0.20580  Biso   1.000  C
  C7       1.0000 0.95660  0.66680  0.70580  Biso   1.000  C
  C8       1.0000 0.54340  0.16680  0.79420  Biso   1.000  C
  H1       1.0000 0.04350  0.27680  0.32690  Biso   1.000  H
  H2       1.0000 0.45650  0.77680  0.17310  Biso   1.000  H
  H3       1.0000 0.95650  0.72320  0.67310  Biso   1.000  H
  H4       1.0000 0.54350  0.22320  0.82690  Biso   1.000  H
  C9       1.0000 0.05620  0.43650  0.31820  Biso   1.000  C
  C10      1.0000 0.44380  0.93650  0.18180  Biso   1.000  C
  C11      1.0000 0.94380  0.56350  0.68180  Biso   1.000  C
  C12      1.0000 0.55620  0.06350  0.81820  Biso   1.000  C
  H5       1.0000 0.06370  0.45000  0.36720  Biso   1.000  H
  H6       1.0000 0.43630  0.95000  0.13280  Biso   1.000  H
  H7       1.0000 0.93630  0.55000  0.63280  Biso   1.000  H
  H8       1.0000 0.56370  0.05000  0.86720  Biso   1.000  H
  C13      1.0000 0.05820  0.52010  0.27100  Biso   1.000  C
  C14      1.0000 0.44180  0.02010  0.22900  Biso   1.000  C
  C15      1.0000 0.94180  0.47990  0.72900  Biso   1.000  C
  C16      1.0000 0.55820  0.97990  0.77100  Biso   1.000  C
  H9       1.0000 0.06890  0.58980  0.28780  Biso   1.000  H
  H10      1.0000 0.43110  0.08980  0.21220  Biso   1.000  H
  H11      1.0000 0.93110  0.41020  0.71220  Biso   1.000  H
  H12      1.0000 0.56890  0.91020  0.78780  Biso   1.000  H
  C17      1.0000 0.04460  0.50090  0.20010  Biso   1.000  C
  C18      1.0000 0.45540  0.00090  0.29990  Biso   1.000  C
  C19      1.0000 0.95540  0.49910  0.79990  Biso   1.000  C
  C20      1.0000 0.54460  0.99910  0.70010  Biso   1.000  C
  H13      1.0000 0.04450  0.55770  0.16780  Biso   1.000  H
  H14      1.0000 0.45550  0.05770  0.33220  Biso   1.000  H
  H15      1.0000 0.95550  0.44230  0.83220  Biso   1.000  H
  H16      1.0000 0.54450  0.94230  0.66780  Biso   1.000  H
  C21      1.0000 0.03090  0.39870  0.17554  Biso   1.000  C
  C22      1.0000 0.46910  0.89870  0.32446  Biso   1.000  C
  C23      1.0000 0.96910  0.60130  0.82446  Biso   1.000  C
  C24      1.0000 0.53090  0.10130  0.67554  Biso   1.000  C
  H17      1.0000 0.02160  0.38640  0.12640  Biso   1.000  H
  H18      1.0000 0.47840  0.88640  0.37360  Biso   1.000  H
  H19      1.0000 0.97840  0.61360  0.87360  Biso   1.000  H
  H20      1.0000 0.52160  0.11360  0.62640  Biso   1.000  H
  C25      1.0000 0.09860  0.15370  0.12766  Biso   1.000  C
  C26      1.0000 0.40140  0.65370  0.37234  Biso   1.000  C
  C27      1.0000 0.90140  0.84630  0.87234  Biso   1.000  C
  C28      1.0000 0.59860  0.34630  0.62766  Biso   1.000  C
  C29      1.0000 0.08000  0.07800  0.07509  Biso   1.000  C
  C30      1.0000 0.42000  0.57800  0.42491  Biso   1.000  C
  C31      1.0000 0.92000  0.92200  0.92491  Biso   1.000  C
  C32      1.0000 0.58000  0.42200  0.57509  Biso   1.000  C
  H21      1.0000 0.01760  0.04650  0.06890  Biso   1.000  H
  H22      1.0000 0.48240  0.54650  0.43110  Biso   1.000  H
  H23      1.0000 0.98240  0.95350  0.93110  Biso   1.000  H
  H24      1.0000 0.51760  0.45350  0.56890  Biso   1.000  H
  C33      1.0000 0.15220  0.04790  0.03150  Biso   1.000  C
  C34      1.0000 0.34780  0.54790  0.46850  Biso   1.000  C
  C35      1.0000 0.84780  0.95210  0.96850  Biso   1.000  C
  C36      1.0000 0.65220  0.45210  0.53150  Biso   1.000  C
  H25      1.0000 0.13840  0.99680  0.99580  Biso   1.000  H
  H26      1.0000 0.36160  0.49680  0.50420  Biso   1.000  H
  H27      1.0000 0.86160  0.00320  0.00420  Biso   1.000  H
  H28      1.0000 0.63840  0.50320  0.49580  Biso   1.000  H
  C37      1.0000 0.24380  0.09260  0.04035  Biso   1.000  C
  C38      1.0000 0.25620  0.59260  0.45965  Biso   1.000  C
  C39      1.0000 0.75620  0.90740  0.95965  Biso   1.000  C
  C40      1.0000 0.74380  0.40740  0.54035  Biso   1.000  C
  H29      1.0000 0.29290  0.07170  0.01110  Biso   1.000  H
  H30      1.0000 0.20710  0.57170  0.48890  Biso   1.000  H
  H31      1.0000 0.70710  0.92830  0.98890  Biso   1.000  H
  H32      1.0000 0.79290  0.42830  0.51110  Biso   1.000  H
  C41      1.0000 0.26340  0.16870  0.09263  Biso   1.000  C
  C42      1.0000 0.23660  0.66870  0.40737  Biso   1.000  C
  C43      1.0000 0.73660  0.83130  0.90737  Biso   1.000  C
  C44      1.0000 0.76340  0.33130  0.59263  Biso   1.000  C
  H33      1.0000 0.32610  0.19960  0.09870  Biso   1.000  H
  H34      1.0000 0.17390  0.69960  0.40130  Biso   1.000  H
  H35      1.0000 0.67390  0.80040  0.90130  Biso   1.000  H
  H36      1.0000 0.82610  0.30040  0.59870  Biso   1.000  H
  C45      1.0000 0.19130  0.19970  0.13607  Biso   1.000  C
  C46      1.0000 0.30870  0.69970  0.36393  Biso   1.000  C
  C47      1.0000 0.80870  0.80030  0.86393  Biso   1.000  C
  C48      1.0000 0.69130  0.30030  0.63607  Biso   1.000  C
  H37      1.0000 0.20490  0.25170  0.17120  Biso   1.000  H
  H38      1.0000 0.29510  0.75170  0.32880  Biso   1.000  H
  H39      1.0000 0.79510  0.74830  0.82880  Biso   1.000  H
  H40      1.0000 0.70490  0.24830  0.67120  Biso   1.000  H
  C49      1.0000 0.03380  0.08750  0.25913  Biso   1.000  C
  C50      1.0000 0.46620  0.58750  0.24087  Biso   1.000  C
  C51      1.0000 0.96620  0.91250  0.74087  Biso   1.000  C
  C52      1.0000 0.53380  0.41250  0.75913  Biso   1.000  C
  C53      1.0000 0.95940  0.03290  0.28904  Biso   1.000  C
  C54      1.0000 0.54060  0.53290  0.21096  Biso   1.000  C
  C55      1.0000 0.04060  0.96710  0.71096  Biso   1.000  C
  C56      1.0000 0.45940  0.46710  0.78904  Biso   1.000  C
  H41      1.0000 0.89360  0.04800  0.27460  Biso   1.000  H
  H42      1.0000 0.60640  0.54800  0.22540  Biso   1.000  H
  H43      1.0000 0.10640  0.95200  0.72540  Biso   1.000  H
  H44      1.0000 0.39360  0.45200  0.77460  Biso   1.000  H
  C57      1.0000 0.98200  0.95550  0.34063  Biso   1.000  C
  C58      1.0000 0.51800  0.45550  0.15937  Biso   1.000  C
  C59      1.0000 0.01800  0.04450  0.65937  Biso   1.000  C
  C60      1.0000 0.48200  0.54450  0.84063  Biso   1.000  C
  H45      1.0000 0.93140  0.91840  0.36080  Biso   1.000  H
  H46      1.0000 0.56860  0.41840  0.13920  Biso   1.000  H
  H47      1.0000 0.06860  0.08160  0.63920  Biso   1.000  H
  H48      1.0000 0.43140  0.58160  0.86080  Biso   1.000  H
  C61      1.0000 0.07840  0.93310  0.36222  Biso   1.000  C
  C62      1.0000 0.42160  0.43310  0.13778  Biso   1.000  C
  C63      1.0000 0.92160  0.06690  0.63778  Biso   1.000  C
  C64      1.0000 0.57840  0.56690  0.86222  Biso   1.000  C
  H49      1.0000 0.09350  0.88120  0.39710  Biso   1.000  H
  H50      1.0000 0.40650  0.38120  0.10290  Biso   1.000  H
  H51      1.0000 0.90650  0.11880  0.60290  Biso   1.000  H
  H52      1.0000 0.59350  0.61880  0.89710  Biso   1.000  H
  C65      1.0000 0.15210  0.98730  0.33243  Biso   1.000  C
  C66      1.0000 0.34790  0.48730  0.16757  Biso   1.000  C
  C67      1.0000 0.84790  0.01270  0.66757  Biso   1.000  C
  C68      1.0000 0.65210  0.51270  0.83243  Biso   1.000  C
  H53      1.0000 0.21780  0.97190  0.34700  Biso   1.000  H
  H54      1.0000 0.28220  0.47190  0.15300  Biso   1.000  H
  H55      1.0000 0.78220  0.02810  0.65300  Biso   1.000  H
  H56      1.0000 0.71780  0.52810  0.84700  Biso   1.000  H
  C69      1.0000 0.13060  0.06420  0.28118  Biso   1.000  C
  C70      1.0000 0.36940  0.56420  0.21882  Biso   1.000  C
  C71      1.0000 0.86940  0.93580  0.71882  Biso   1.000  C
  C72      1.0000 0.63060  0.43580  0.78118  Biso   1.000  C
  H57      1.0000 0.18170  0.10090  0.26120  Biso   1.000  H
  H58      1.0000 0.31830  0.60090  0.23880  Biso   1.000  H
  H59      1.0000 0.81830  0.89910  0.73880  Biso   1.000  H
  H60      1.0000 0.68170  0.39910  0.76120  Biso   1.000  H
  P5       1.0000 0.78778  0.26774  0.04374  Biso   1.000  P
  P6       1.0000 0.71222  0.76774  0.45626  Biso   1.000  P
  P7       1.0000 0.21222  0.73226  0.95626  Biso   1.000  P
  P8       1.0000 0.28778  0.23226  0.54374  Biso   1.000  P
  C73      1.0000 0.80480  0.41140  0.04857  Biso   1.000  C
  C74      1.0000 0.69520  0.91140  0.45143  Biso   1.000  C
  C75      1.0000 0.19520  0.58860  0.95143  Biso   1.000  C
  C76      1.0000 0.30480  0.08860  0.54857  Biso   1.000  C
  C77      1.0000 0.78550  0.46220  0.11093  Biso   1.000  C
  C78      1.0000 0.71450  0.96220  0.38907  Biso   1.000  C
  C79      1.0000 0.21450  0.53780  0.88907  Biso   1.000  C
  C80      1.0000 0.28550  0.03780  0.61093  Biso   1.000  C
  H61      1.0000 0.77170  0.42140  0.15070  Biso   1.000  H
  H62      1.0000 0.72830  0.92140  0.34930  Biso   1.000  H
  H63      1.0000 0.22830  0.57860  0.84930  Biso   1.000  H
  H64      1.0000 0.27170  0.07860  0.65070  Biso   1.000  H
  C81      1.0000 0.78620  0.57270  0.11590  Biso   1.000  C
  C82      1.0000 0.71380  0.07270  0.38410  Biso   1.000  C
  C83      1.0000 0.21380  0.42730  0.88410  Biso   1.000  C
  C84      1.0000 0.28620  0.92730  0.61590  Biso   1.000  C
  H65      1.0000 0.77200  0.60600  0.15840  Biso   1.000  H
  H66      1.0000 0.72800  0.10600  0.34160  Biso   1.000  H
  H67      1.0000 0.22800  0.39400  0.84160  Biso   1.000  H
  H68      1.0000 0.27200  0.89400  0.65840  Biso   1.000  H
  C85      1.0000 0.80770  0.63250  0.05880  Biso   1.000  C
  C86      1.0000 0.69230  0.13250  0.44120  Biso   1.000  C
  C87      1.0000 0.19230  0.36750  0.94120  Biso   1.000  C
  C88      1.0000 0.30770  0.86750  0.55880  Biso   1.000  C
  H69      1.0000 0.80700  0.70710  0.06160  Biso   1.000  H
  H70      1.0000 0.69300  0.20710  0.43840  Biso   1.000  H
  H71      1.0000 0.19300  0.29290  0.93840  Biso   1.000  H
  H72      1.0000 0.30700  0.79290  0.56160  Biso   1.000  H
  C89      1.0000 0.83030  0.58330  0.99690  Biso   1.000  C
  C90      1.0000 0.66970  0.08330  0.50310  Biso   1.000  C
  C91      1.0000 0.16970  0.41670  0.00310  Biso   1.000  C
  C92      1.0000 0.33030  0.91670  0.49690  Biso   1.000  C
  H73      1.0000 0.84650  0.62450  0.95800  Biso   1.000  H
  H74      1.0000 0.65350  0.12450  0.54200  Biso   1.000  H
  H75      1.0000 0.15350  0.37550  0.04200  Biso   1.000  H
  H76      1.0000 0.34650  0.87550  0.45800  Biso   1.000  H
  C93      1.0000 0.82930  0.47330  0.99176  Biso   1.000  C
  C94      1.0000 0.67070  0.97330  0.50824  Biso   1.000  C
  C95      1.0000 0.17070  0.52670  0.00824  Biso   1.000  C
  C96      1.0000 0.32930  0.02670  0.49176  Biso   1.000  C
  H77      1.0000 0.84540  0.44040  0.94950  Biso   1.000  H
  H78      1.0000 0.65460  0.94040  0.55050  Biso   1.000  H
  H79      1.0000 0.15460  0.55960  0.05050  Biso   1.000  H
  H80      1.0000 0.34540  0.05960  0.44950  Biso   1.000  H
  C97      1.0000 0.65510  0.25850  0.02244  Biso   1.000  C
  C98      1.0000 0.84490  0.75850  0.47756  Biso   1.000  C
  C99      1.0000 0.34490  0.74150  0.97756  Biso   1.000  C
  C100     1.0000 0.15510  0.24150  0.52244  Biso   1.000  C
  C101     1.0000 0.60100  0.33800  0.98603  Biso   1.000  C
  C102     1.0000 0.89900  0.83800  0.51397  Biso   1.000  C
  C103     1.0000 0.39900  0.66200  0.01397  Biso   1.000  C
  C104     1.0000 0.10100  0.16200  0.48603  Biso   1.000  C
  H81      1.0000 0.63170  0.40210  0.97490  Biso   1.000  H
  H82      1.0000 0.86830  0.90210  0.52510  Biso   1.000  H
  H83      1.0000 0.36830  0.59790  0.02510  Biso   1.000  H
  H84      1.0000 0.13170  0.09790  0.47490  Biso   1.000  H
  C105     1.0000 0.50290  0.32360  0.96619  Biso   1.000  C
  C106     1.0000 0.99710  0.82360  0.53381  Biso   1.000  C
  C107     1.0000 0.49710  0.67640  0.03381  Biso   1.000  C
  C108     1.0000 0.00290  0.17640  0.46619  Biso   1.000  C
  H85      1.0000 0.46720  0.37810  0.94190  Biso   1.000  H
  H86      1.0000 0.03280  0.87810  0.55810  Biso   1.000  H
  H87      1.0000 0.53280  0.62190  0.05810  Biso   1.000  H
  H88      1.0000 0.96720  0.12190  0.44190  Biso   1.000  H
  C109     1.0000 0.45660  0.23000  0.98158  Biso   1.000  C
  C110     1.0000 0.04340  0.73000  0.51842  Biso   1.000  C
  C111     1.0000 0.54340  0.77000  0.01842  Biso   1.000  C
  C112     1.0000 0.95660  0.27000  0.48158  Biso   1.000  C
  H89      1.0000 0.39040  0.21930  0.96630  Biso   1.000  H
  H90      1.0000 0.10960  0.71930  0.53370  Biso   1.000  H
  H91      1.0000 0.60960  0.78070  0.03370  Biso   1.000  H
  H92      1.0000 0.89040  0.28070  0.46630  Biso   1.000  H
  C113     1.0000 0.50860  0.15220  0.01970  Biso   1.000  C
  C114     1.0000 0.99140  0.65220  0.48030  Biso   1.000  C
  C115     1.0000 0.49140  0.84780  0.98030  Biso   1.000  C
  C116     1.0000 0.00860  0.34780  0.51970  Biso   1.000  C
  H93      1.0000 0.47680  0.08940  0.03210  Biso   1.000  H
  H94      1.0000 0.02320  0.58940  0.46790  Biso   1.000  H
  H95      1.0000 0.52320  0.91060  0.96790  Biso   1.000  H
  H96      1.0000 0.97680  0.41060  0.53210  Biso   1.000  H
  C117     1.0000 0.60710  0.16580  0.04001  Biso   1.000  C
  C118     1.0000 0.89290  0.66580  0.45999  Biso   1.000  C
  C119     1.0000 0.39290  0.83420  0.95999  Biso   1.000  C
  C120     1.0000 0.10710  0.33420  0.54001  Biso   1.000  C
  H97      1.0000 0.64170  0.11200  0.06580  Biso   1.000  H
  H98      1.0000 0.85830  0.61200  0.43420  Biso   1.000  H
  H99      1.0000 0.35830  0.88800  0.93420  Biso   1.000  H
  H100     1.0000 0.14170  0.38800  0.56580  Biso   1.000  H
  C121     1.0000 0.83670  0.23320  0.95923  Biso   1.000  C
  C122     1.0000 0.66330  0.73320  0.54077  Biso   1.000  C
  C123     1.0000 0.16330  0.76680  0.04077  Biso   1.000  C
  C124     1.0000 0.33670  0.26680  0.45923  Biso   1.000  C
  C125     1.0000 0.77760  0.20620  0.89864  Biso   1.000  C
  C126     1.0000 0.72240  0.70620  0.60136  Biso   1.000  C
  C127     1.0000 0.22240  0.79380  0.10136  Biso   1.000  C
  C128     1.0000 0.27760  0.29380  0.39864  Biso   1.000  C
  H101     1.0000 0.70910  0.20720  0.90000  Biso   1.000  H
  H102     1.0000 0.79090  0.70720  0.60000  Biso   1.000  H
  H103     1.0000 0.29090  0.79280  0.10000  Biso   1.000  H
  H104     1.0000 0.20910  0.29280  0.40000  Biso   1.000  H
  C129     1.0000 0.81840  0.17800  0.83630  Biso   1.000  C
  C130     1.0000 0.68160  0.67800  0.66370  Biso   1.000  C
  C131     1.0000 0.18160  0.82200  0.16370  Biso   1.000  C
  C132     1.0000 0.31840  0.32200  0.33630  Biso   1.000  C
  H105     1.0000 0.77750  0.15920  0.79600  Biso   1.000  H
  H106     1.0000 0.72250  0.65920  0.70400  Biso   1.000  H
  H107     1.0000 0.22250  0.84080  0.20400  Biso   1.000  H
  H108     1.0000 0.27750  0.34080  0.29600  Biso   1.000  H
  C133     1.0000 0.91840  0.17730  0.83328  Biso   1.000  C
  C134     1.0000 0.58160  0.67730  0.66672  Biso   1.000  C
  C135     1.0000 0.08160  0.82270  0.16672  Biso   1.000  C
  C136     1.0000 0.41840  0.32270  0.33328  Biso   1.000  C
  H109     1.0000 0.94610  0.15890  0.79090  Biso   1.000  H
  H110     1.0000 0.55390  0.65890  0.70910  Biso   1.000  H
  H111     1.0000 0.05390  0.84110  0.20910  Biso   1.000  H
  H112     1.0000 0.44610  0.34110  0.29090  Biso   1.000  H
  C137     1.0000 0.97770  0.20400  0.89310  Biso   1.000  C
  C138     1.0000 0.52230  0.70400  0.60690  Biso   1.000  C
  C139     1.0000 0.02230  0.79600  0.10690  Biso   1.000  C
  C140     1.0000 0.47770  0.29600  0.39310  Biso   1.000  C
  H113     1.0000 0.04610  0.20340  0.89140  Biso   1.000  H
  H114     1.0000 0.45390  0.70340  0.60860  Biso   1.000  H
  H115     1.0000 0.95390  0.79660  0.10860  Biso   1.000  H
  H116     1.0000 0.54610  0.29660  0.39140  Biso   1.000  H
  C141     1.0000 0.93740  0.23150  0.95524  Biso   1.000  C
  C142     1.0000 0.56260  0.73150  0.54476  Biso   1.000  C
  C143     1.0000 0.06260  0.76850  0.04476  Biso   1.000  C
  C144     1.0000 0.43740  0.26850  0.45524  Biso   1.000  C
  H117     1.0000 0.97880  0.24940  0.99550  Biso   1.000  H
  H118     1.0000 0.52120  0.74940  0.50450  Biso   1.000  H
  H119     1.0000 0.02120  0.75060  0.00450  Biso   1.000  H
  H120     1.0000 0.47880  0.25060  0.49550  Biso   1.000  H
  N1       1.0000 0.74940  0.84040  0.16146  Biso   1.000  N
  N2       1.0000 0.75060  0.34040  0.33854  Biso   1.000  N
  N3       1.0000 0.25060  0.15960  0.83854  Biso   1.000  N
  N4       1.0000 0.24940  0.65960  0.66146  Biso   1.000  N
  C145     1.0000 0.77020  0.93990  0.15691  Biso   1.000  C
  C146     1.0000 0.72980  0.43990  0.34309  Biso   1.000  C
  C147     1.0000 0.22980  0.06010  0.84309  Biso   1.000  C
  C148     1.0000 0.27020  0.56010  0.65691  Biso   1.000  C
  N5       1.0000 0.78960  0.02670  0.14445  Biso   1.000  N
  N6       1.0000 0.71040  0.52670  0.35555  Biso   1.000  N
  N7       1.0000 0.21040  0.97330  0.85555  Biso   1.000  N
  N8       1.0000 0.28960  0.47330  0.64445  Biso   1.000  N
  C149     1.0000 0.73490  0.79520  0.22269  Biso   1.000  C
  C150     1.0000 0.76510  0.29520  0.27731  Biso   1.000  C
  C151     1.0000 0.26510  0.20480  0.77731  Biso   1.000  C
  C152     1.0000 0.23490  0.70480  0.72269  Biso   1.000  C
  N9       1.0000 0.72040  0.74600  0.27184  Biso   1.000  N
  N10      1.0000 0.77960  0.24600  0.22816  Biso   1.000  N
  N11      1.0000 0.27960  0.25400  0.72816  Biso   1.000  N
  N12      1.0000 0.22040  0.75400  0.77184  Biso   1.000  N
