data_image0
_cell_length_a       8.952
_cell_length_b       14.573
_cell_length_c       9.912
_cell_angle_alpha    90
_cell_angle_beta     94.61
_cell_angle_gamma    90

_symmetry_space_group_name_H-M    "P 1"
_symmetry_int_tables_number       1

loop_
  _symmetry_equiv_pos_as_xyz
  'x, y, z'

loop_
  _atom_site_label
  _atom_site_occupancy
  _atom_site_fract_x
  _atom_site_fract_y
  _atom_site_fract_z
  _atom_site_thermal_displace_type
  _atom_site_B_iso_or_equiv
  _atom_site_type_symbol
  Cu1      1.0000 0.51360  0.75850  0.14580  Biso   1.000  Cu
  Cu2      1.0000 0.48640  0.25850  0.85420  Biso   1.000  Cu
  Cu3      1.0000 0.09040  0.14440  0.26300  Biso   1.000  Cu
  Cu4      1.0000 0.90960  0.64440  0.73700  Biso   1.000  Cu
  Cl1      1.0000 0.83500  0.82880  0.95350  Biso   1.000  Cl
  Cl2      1.0000 0.16500  0.32880  0.04650  Biso   1.000  Cl
  Cl3      1.0000 0.38710  0.53990  0.51620  Biso   1.000  Cl
  Cl4      1.0000 0.61290  0.03990  0.48380  Biso   1.000  Cl
  O1       1.0000 0.98810  0.83170  0.99060  Biso   1.000  O
  O2       1.0000 0.01190  0.33170  0.00940  Biso   1.000  O
  O3       1.0000 0.74740  0.83250  0.06610  Biso   1.000  O
  O4       1.0000 0.25260  0.33250  0.93390  Biso   1.000  O
  O5       1.0000 0.79120  0.75240  0.87450  Biso   1.000  O
  O6       1.0000 0.20880  0.25240  0.12550  Biso   1.000  O
  O7       1.0000 0.79540  0.90510  0.87270  Biso   1.000  O
  O8       1.0000 0.20460  0.40510  0.12730  Biso   1.000  O
  O9       1.0000 0.53320  0.50560  0.53030  Biso   1.000  O
  O10      1.0000 0.46680  0.00560  0.46970  Biso   1.000  O
  O11      1.0000 0.34970  0.57720  0.38990  Biso   1.000  O
  O12      1.0000 0.65030  0.07720  0.61010  Biso   1.000  O
  O13      1.0000 0.37810  0.60670  0.61350  Biso   1.000  O
  O14      1.0000 0.62190  0.10670  0.38650  Biso   1.000  O
  O15      1.0000 0.29070  0.47460  0.53780  Biso   1.000  O
  O16      1.0000 0.70930  0.97460  0.46220  Biso   1.000  O
  N1       1.0000 0.62930  0.71900  0.31470  Biso   1.000  N
  N2       1.0000 0.37070  0.21900  0.68530  Biso   1.000  N
  N3       1.0000 0.80580  0.67940  0.55790  Biso   1.000  N
  N4       1.0000 0.19420  0.17940  0.44210  Biso   1.000  N
  N5       1.0000 0.40580  0.88330  0.18240  Biso   1.000  N
  N6       1.0000 0.59420  0.38330  0.81760  Biso   1.000  N
  N7       1.0000 0.21270  0.03460  0.19930  Biso   1.000  N
  N8       1.0000 0.78730  0.53460  0.80070  Biso   1.000  N
  N9       1.0000 0.37420  0.70520  0.99960  Biso   1.000  N
  N10      1.0000 0.62580  0.20520  0.00040  Biso   1.000  N
  N11      1.0000 0.11330  0.66250  0.83160  Biso   1.000  N
  N12      1.0000 0.88670  0.16250  0.16840  Biso   1.000  N
  C1       1.0000 0.60920  0.76210  0.42950  Biso   1.000  C
  C2       1.0000 0.39080  0.26210  0.57050  Biso   1.000  C
  C3       1.0000 0.69810  0.74200  0.55260  Biso   1.000  C
  C4       1.0000 0.30190  0.24200  0.44740  Biso   1.000  C
  C5       1.0000 0.82770  0.63240  0.44010  Biso   1.000  C
  C6       1.0000 0.17230  0.13240  0.55990  Biso   1.000  C
  C7       1.0000 0.94510  0.56820  0.43930  Biso   1.000  C
  C8       1.0000 0.05490  0.06820  0.56070  Biso   1.000  C
  C9       1.0000 0.97020  0.52470  0.32010  Biso   1.000  C
  C10      1.0000 0.02980  0.02470  0.67990  Biso   1.000  C
  C11      1.0000 0.87780  0.54130  0.19930  Biso   1.000  C
  C12      1.0000 0.12220  0.04130  0.80070  Biso   1.000  C
  C13      1.0000 0.76340  0.60510  0.19770  Biso   1.000  C
  C14      1.0000 0.23660  0.10510  0.80230  Biso   1.000  C
  C15      1.0000 0.73900  0.65230  0.31950  Biso   1.000  C
  C16      1.0000 0.26100  0.15230  0.68050  Biso   1.000  C
  C17      1.0000 0.44270  0.96750  0.14740  Biso   1.000  C
  C18      1.0000 0.55730  0.46750  0.85260  Biso   1.000  C
  C19      1.0000 0.34940  0.04230  0.15850  Biso   1.000  C
  C20      1.0000 0.65060  0.54230  0.84150  Biso   1.000  C
  C21      1.0000 0.16850  0.94860  0.23800  Biso   1.000  C
  C22      1.0000 0.83150  0.44860  0.76200  Biso   1.000  C
  C23      1.0000 0.02500  0.93490  0.28450  Biso   1.000  C
  C24      1.0000 0.97500  0.43490  0.71550  Biso   1.000  C
  C25      1.0000 0.98400  0.84980  0.32780  Biso   1.000  C
  C26      1.0000 0.01600  0.34980  0.67220  Biso   1.000  C
  C27      1.0000 0.08350  0.77630  0.32690  Biso   1.000  C
  C28      1.0000 0.91650  0.27630  0.67310  Biso   1.000  C
  C29      1.0000 0.22680  0.78750  0.28130  Biso   1.000  C
  C30      1.0000 0.77320  0.28750  0.71870  Biso   1.000  C
  C31      1.0000 0.26890  0.87310  0.23220  Biso   1.000  C
  C32      1.0000 0.73110  0.37310  0.76780  Biso   1.000  C
  C33      1.0000 0.28660  0.63580  0.02590  Biso   1.000  C
  C34      1.0000 0.71340  0.13580  0.97410  Biso   1.000  C
  C35      1.0000 0.15490  0.61440  0.94030  Biso   1.000  C
  C36      1.0000 0.84510  0.11440  0.05970  Biso   1.000  C
  C37      1.0000 0.20780  0.73110  0.79670  Biso   1.000  C
  C38      1.0000 0.79220  0.23110  0.20330  Biso   1.000  C
  C39      1.0000 0.17390  0.78220  0.67640  Biso   1.000  C
  C40      1.0000 0.82610  0.28220  0.32360  Biso   1.000  C
  C41      1.0000 0.26960  0.85080  0.64410  Biso   1.000  C
  C42      1.0000 0.73040  0.35080  0.35590  Biso   1.000  C
  C43      1.0000 0.39960  0.87290  0.72800  Biso   1.000  C
  C44      1.0000 0.60040  0.37290  0.27200  Biso   1.000  C
  C45      1.0000 0.43240  0.82670  0.84490  Biso   1.000  C
  C46      1.0000 0.56760  0.32670  0.15510  Biso   1.000  C
  C47      1.0000 0.33850  0.75300  0.88130  Biso   1.000  C
  C48      1.0000 0.66150  0.25300  0.11870  Biso   1.000  C
  H1       1.0000 0.52980  0.81030  0.42990  Biso   1.000  H
  H2       1.0000 0.47020  0.31030  0.57010  Biso   1.000  H
  H3       1.0000 0.67830  0.77630  0.63700  Biso   1.000  H
  H4       1.0000 0.32170  0.27630  0.36300  Biso   1.000  H
  H5       1.0000 0.00960  0.55470  0.52400  Biso   1.000  H
  H6       1.0000 0.99040  0.05470  0.47600  Biso   1.000  H
  H7       1.0000 0.05510  0.48030  0.31860  Biso   1.000  H
  H8       1.0000 0.94490  0.98030  0.68140  Biso   1.000  H
  H9       1.0000 0.89550  0.50670  0.11480  Biso   1.000  H
  H10      1.0000 0.10450  0.00670  0.88520  Biso   1.000  H
  H11      1.0000 0.69930  0.61800  0.11260  Biso   1.000  H
  H12      1.0000 0.30070  0.11800  0.88740  Biso   1.000  H
  H13      1.0000 0.54250  0.97740  0.11140  Biso   1.000  H
  H14      1.0000 0.45750  0.47740  0.88860  Biso   1.000  H
  H15      1.0000 0.38640  0.10440  0.13490  Biso   1.000  H
  H16      1.0000 0.61360  0.60440  0.86510  Biso   1.000  H
  H17      1.0000 0.95310  0.98730  0.28620  Biso   1.000  H
  H18      1.0000 0.04690  0.48730  0.71380  Biso   1.000  H
  H19      1.0000 0.88230  0.84030  0.36030  Biso   1.000  H
  H20      1.0000 0.11770  0.34030  0.63970  Biso   1.000  H
  H21      1.0000 0.05230  0.71490  0.35960  Biso   1.000  H
  H22      1.0000 0.94770  0.21490  0.64040  Biso   1.000  H
  H23      1.0000 0.29840  0.73460  0.28360  Biso   1.000  H
  H24      1.0000 0.70160  0.23460  0.71640  Biso   1.000  H
  H25      1.0000 0.31270  0.59750  0.10790  Biso   1.000  H
  H26      1.0000 0.68730  0.09750  0.89210  Biso   1.000  H
  H27      1.0000 0.09220  0.56080  0.96390  Biso   1.000  H
  H28      1.0000 0.90780  0.06080  0.03610  Biso   1.000  H
  H29      1.0000 0.08140  0.76860  0.61620  Biso   1.000  H
  H30      1.0000 0.91860  0.26860  0.38380  Biso   1.000  H
  H31      1.0000 0.24720  0.88590  0.55810  Biso   1.000  H
  H32      1.0000 0.75280  0.38590  0.44190  Biso   1.000  H
  H33      1.0000 0.46750  0.92320  0.70120  Biso   1.000  H
  H34      1.0000 0.53250  0.42320  0.29880  Biso   1.000  H
  H35      1.0000 0.52230  0.84400  0.90590  Biso   1.000  H
  H36      1.0000 0.47770  0.34400  0.09410  Biso   1.000  H
