data_image0
_cell_length_a       8.968
_cell_length_b       15.964
_cell_length_c       19.737
_cell_angle_alpha    77.56
_cell_angle_beta     85.31
_cell_angle_gamma    81.57

_symmetry_space_group_name_H-M    "P 1"
_symmetry_int_tables_number       1

loop_
  _symmetry_equiv_pos_as_xyz
  'x, y, z'

loop_
  _atom_site_label
  _atom_site_occupancy
  _atom_site_fract_x
  _atom_site_fract_y
  _atom_site_fract_z
  _atom_site_thermal_displace_type
  _atom_site_B_iso_or_equiv
  _atom_site_type_symbol
  Cu1      1.0000 0.16269  0.91718  0.01937  Biso   1.000  Cu
  Cu2      1.0000 0.83731  0.08282  0.98063  Biso   1.000  Cu
  Cu3      1.0000 0.30519  0.44284  0.67417  Biso   1.000  Cu
  Cu4      1.0000 0.69481  0.55716  0.32583  Biso   1.000  Cu
  Cl1      1.0000 0.53074  0.93563  0.21682  Biso   1.000  Cl
  Cl2      1.0000 0.46926  0.06437  0.78318  Biso   1.000  Cl
  Cl3      1.0000 0.76143  0.26159  0.20450  Biso   1.000  Cl
  Cl4      1.0000 0.23857  0.73841  0.79550  Biso   1.000  Cl
  Cl5      1.0000 0.32715  0.96608  0.41715  Biso   1.000  Cl
  Cl6      1.0000 0.67285  0.03392  0.58285  Biso   1.000  Cl
  O1       1.0000 0.41220  0.88963  0.20515  Biso   1.000  O
  O2       1.0000 0.58780  0.11037  0.79485  Biso   1.000  O
  O3       1.0000 0.67330  0.88917  0.20193  Biso   1.000  O
  O4       1.0000 0.32670  0.11083  0.79807  Biso   1.000  O
  O5       1.0000 0.51430  0.01889  0.17063  Biso   1.000  O
  O6       1.0000 0.48570  0.98111  0.82937  Biso   1.000  O
  O7       1.0000 0.51790  0.94670  0.28629  Biso   1.000  O
  O8       1.0000 0.48210  0.05330  0.71371  Biso   1.000  O
  O9       1.0000 0.62430  0.22609  0.22155  Biso   1.000  O
  O10      1.0000 0.37570  0.77391  0.77845  Biso   1.000  O
  O11      1.0000 0.84880  0.24653  0.26468  Biso   1.000  O
  O12      1.0000 0.15120  0.75347  0.73532  Biso   1.000  O
  O13      1.0000 0.74070  0.35261  0.17509  Biso   1.000  O
  O14      1.0000 0.25930  0.64739  0.82491  Biso   1.000  O
  O15      1.0000 0.84490  0.21807  0.15522  Biso   1.000  O
  O16      1.0000 0.15510  0.78193  0.84478  Biso   1.000  O
  N1       1.0000 0.07660  0.96831  0.92425  Biso   1.000  N
  N2       1.0000 0.92340  0.03169  0.07575  Biso   1.000  N
  N3       1.0000 0.92730  0.00676  0.91350  Biso   1.000  N
  N4       1.0000 0.07270  0.99324  0.08650  Biso   1.000  N
  N5       1.0000 0.03950  0.99189  0.81315  Biso   1.000  N
  N6       1.0000 0.96050  0.00811  0.18685  Biso   1.000  N
  N7       1.0000 0.05390  0.00121  0.74026  Biso   1.000  N
  N8       1.0000 0.94610  0.99879  0.25974  Biso   1.000  N
  N9       1.0000 0.38320  0.87546  0.00409  Biso   1.000  N
  N10      1.0000 0.61680  0.12454  0.99591  Biso   1.000  N
  N11      1.0000 0.74180  0.69357  0.88807  Biso   1.000  N
  N12      1.0000 0.25820  0.30643  0.11193  Biso   1.000  N
  N13      1.0000 0.74500  0.63020  0.84733  Biso   1.000  N
  N14      1.0000 0.25500  0.36980  0.15267  Biso   1.000  N
  N15      1.0000 0.08690  0.48051  0.69952  Biso   1.000  N
  N16      1.0000 0.91310  0.51949  0.30048  Biso   1.000  N
  N17      1.0000 0.05320  0.80614  0.05888  Biso   1.000  N
  N18      1.0000 0.94680  0.19386  0.94112  Biso   1.000  N
  N19      1.0000 0.98320  0.52642  0.02456  Biso   1.000  N
  N20      1.0000 0.01680  0.47358  0.97544  Biso   1.000  N
  N21      1.0000 0.45480  0.52455  0.62931  Biso   1.000  N
  N22      1.0000 0.54520  0.47545  0.37069  Biso   1.000  N
  N23      1.0000 0.94940  0.52318  0.52130  Biso   1.000  N
  N24      1.0000 0.05060  0.47682  0.47870  Biso   1.000  N
  N25      1.0000 0.40120  0.39394  0.77065  Biso   1.000  N
  N26      1.0000 0.59880  0.60606  0.22935  Biso   1.000  N
  N27      1.0000 0.51630  0.46598  0.98179  Biso   1.000  N
  N28      1.0000 0.48370  0.53402  0.01821  Biso   1.000  N
  N29      1.0000 0.32110  0.34190  0.62876  Biso   1.000  N
  N30      1.0000 0.67890  0.65810  0.37124  Biso   1.000  N
  N31      1.0000 0.64250  0.30126  0.51181  Biso   1.000  N
  N32      1.0000 0.35750  0.69874  0.48819  Biso   1.000  N
  N33      1.0000 0.99270  0.26320  0.59348  Biso   1.000  N
  N34      1.0000 0.00730  0.73680  0.40652  Biso   1.000  N
  N35      1.0000 0.20580  0.20170  0.37221  Biso   1.000  N
  N36      1.0000 0.79420  0.79830  0.62779  Biso   1.000  N
  C1       1.0000 0.17800  0.96424  0.71758  Biso   1.000  C
  C2       1.0000 0.82200  0.03576  0.28242  Biso   1.000  C
  H1       1.0000 0.25050  0.93340  0.74960  Biso   1.000  H
  H2       1.0000 0.74950  0.06660  0.25040  Biso   1.000  H
  C3       1.0000 0.21060  0.96864  0.64308  Biso   1.000  C
  C4       1.0000 0.78940  0.03136  0.35692  Biso   1.000  C
  C5       1.0000 0.33670  0.91620  0.62298  Biso   1.000  C
  C6       1.0000 0.66330  0.08380  0.37702  Biso   1.000  C
  H3       1.0000 0.39850  0.88000  0.65750  Biso   1.000  H
  H4       1.0000 0.60150  0.12000  0.34250  Biso   1.000  H
  C7       1.0000 0.37380  0.91550  0.55383  Biso   1.000  C
  C8       1.0000 0.62620  0.08450  0.44617  Biso   1.000  C
  H5       1.0000 0.45960  0.87900  0.54060  Biso   1.000  H
  H6       1.0000 0.54040  0.12100  0.45940  Biso   1.000  H
  C9       1.0000 0.28460  0.96862  0.50457  Biso   1.000  C
  C10      1.0000 0.71540  0.03138  0.49543  Biso   1.000  C
  C11      1.0000 0.16230  0.02416  0.52236  Biso   1.000  C
  C12      1.0000 0.83770  0.97584  0.47764  Biso   1.000  C
  H7       1.0000 0.10460  0.06270  0.48750  Biso   1.000  H
  H8       1.0000 0.89540  0.93730  0.51250  Biso   1.000  H
  C13      1.0000 0.12500  0.02278  0.59235  Biso   1.000  C
  C14      1.0000 0.87500  0.97722  0.40765  Biso   1.000  C
  H9       1.0000 0.03930  0.05960  0.60530  Biso   1.000  H
  H10      1.0000 0.96070  0.94040  0.39470  Biso   1.000  H
  C15      1.0000 0.90890  0.01912  0.84683  Biso   1.000  C
  C16      1.0000 0.09110  0.98088  0.15317  Biso   1.000  C
  H11      1.0000 0.81730  0.04360  0.82510  Biso   1.000  H
  H12      1.0000 0.18270  0.95640  0.17490  Biso   1.000  H
  C17      1.0000 0.14000  0.96099  0.86341  Biso   1.000  C
  C18      1.0000 0.86000  0.03901  0.13659  Biso   1.000  C
  H13      1.0000 0.24180  0.93740  0.85550  Biso   1.000  H
  H14      1.0000 0.75820  0.06260  0.14450  Biso   1.000  H
  C19      1.0000 0.49310  0.90222  0.03333  Biso   1.000  C
  C20      1.0000 0.50690  0.09778  0.96667  Biso   1.000  C
  H15      1.0000 0.46530  0.94050  0.06440  Biso   1.000  H
  H16      1.0000 0.53470  0.05950  0.93560  Biso   1.000  H
  C21      1.0000 0.64460  0.87631  0.02014  Biso   1.000  C
  C22      1.0000 0.35540  0.12369  0.97986  Biso   1.000  C
  H17      1.0000 0.71900  0.89820  0.04060  Biso   1.000  H
  H18      1.0000 0.28100  0.10180  0.95940  Biso   1.000  H
  C23      1.0000 0.68680  0.81871  0.97723  Biso   1.000  C
  C24      1.0000 0.31320  0.18129  0.02277  Biso   1.000  C
  H19      1.0000 0.79050  0.80090  0.96720  Biso   1.000  H
  H20      1.0000 0.20950  0.19910  0.03280  Biso   1.000  H
  C25      1.0000 0.57540  0.78674  0.94851  Biso   1.000  C
  C26      1.0000 0.42460  0.21326  0.05149  Biso   1.000  C
  C27      1.0000 0.42630  0.81863  0.96235  Biso   1.000  C
  C28      1.0000 0.57370  0.18137  0.03765  Biso   1.000  C
  H21      1.0000 0.35000  0.79930  0.94120  Biso   1.000  H
  H22      1.0000 0.65000  0.20070  0.05880  Biso   1.000  H
  C29      1.0000 0.60700  0.72087  0.90590  Biso   1.000  C
  C30      1.0000 0.39300  0.27913  0.09410  Biso   1.000  C
  H23      1.0000 0.52560  0.69820  0.89140  Biso   1.000  H
  H24      1.0000 0.47440  0.30180  0.10860  Biso   1.000  H
  C31      1.0000 0.87490  0.61496  0.81778  Biso   1.000  C
  C32      1.0000 0.12510  0.38504  0.18222  Biso   1.000  C
  H25      1.0000 0.95380  0.64550  0.82460  Biso   1.000  H
  H26      1.0000 0.04620  0.35450  0.17540  Biso   1.000  H
  C33      1.0000 0.90450  0.55133  0.77358  Biso   1.000  C
  C34      1.0000 0.09550  0.44867  0.22642  Biso   1.000  C
  C35      1.0000 0.79910  0.49922  0.76472  Biso   1.000  C
  C36      1.0000 0.20090  0.50078  0.23528  Biso   1.000  C
  H27      1.0000 0.70150  0.50450  0.78730  Biso   1.000  H
  H28      1.0000 0.29850  0.49550  0.21270  Biso   1.000  H
  C37      1.0000 0.83790  0.43984  0.72278  Biso   1.000  C
  C38      1.0000 0.16210  0.56016  0.27722  Biso   1.000  C
  H29      1.0000 0.76650  0.40450  0.71560  Biso   1.000  H
  H30      1.0000 0.23350  0.59550  0.28440  Biso   1.000  H
  C39      1.0000 0.98190  0.43191  0.69113  Biso   1.000  C
  C40      1.0000 0.01810  0.56809  0.30887  Biso   1.000  C
  H31      1.0000 0.00730  0.39060  0.66250  Biso   1.000  H
  H32      1.0000 0.99270  0.60940  0.33750  Biso   1.000  H
  C41      1.0000 0.04520  0.53998  0.73946  Biso   1.000  C
  C42      1.0000 0.95480  0.46002  0.26054  Biso   1.000  C
  H33      1.0000 0.11690  0.57630  0.74450  Biso   1.000  H
  H34      1.0000 0.88310  0.42370  0.25550  Biso   1.000  H
  C43      1.0000 0.97540  0.79312  0.12058  Biso   1.000  C
  C44      1.0000 0.02460  0.20688  0.87942  Biso   1.000  C
  H35      1.0000 0.96270  0.83770  0.14640  Biso   1.000  H
  H36      1.0000 0.03730  0.16230  0.85360  Biso   1.000  H
  C45      1.0000 0.91300  0.71803  0.14846  Biso   1.000  C
  C46      1.0000 0.08700  0.28197  0.85154  Biso   1.000  C
  H37      1.0000 0.85840  0.71180  0.19220  Biso   1.000  H
  H38      1.0000 0.14160  0.28820  0.80780  Biso   1.000  H
  C47      1.0000 0.93110  0.65233  0.11200  Biso   1.000  C
  C48      1.0000 0.06890  0.34767  0.88800  Biso   1.000  C
  H39      1.0000 0.89040  0.59990  0.13050  Biso   1.000  H
  H40      1.0000 0.10960  0.40010  0.86950  Biso   1.000  H
  C49      1.0000 0.01050  0.66408  0.04697  Biso   1.000  C
  C50      1.0000 0.98950  0.33592  0.95303  Biso   1.000  C
  C51      1.0000 0.06700  0.74235  0.02340  Biso   1.000  C
  C52      1.0000 0.93300  0.25765  0.97660  Biso   1.000  C
  H41      1.0000 0.11900  0.75130  0.97910  Biso   1.000  H
  H42      1.0000 0.88100  0.24870  0.02090  Biso   1.000  H
  C53      1.0000 0.03360  0.59917  0.00370  Biso   1.000  C
  C54      1.0000 0.96640  0.40083  0.99630  Biso   1.000  C
  H43      1.0000 0.08660  0.61100  0.95970  Biso   1.000  H
  H44      1.0000 0.91340  0.38900  0.04030  Biso   1.000  H
  C55      1.0000 0.46700  0.59600  0.65266  Biso   1.000  C
  C56      1.0000 0.53300  0.40400  0.34734  Biso   1.000  C
  H45      1.0000 0.38830  0.61540  0.68320  Biso   1.000  H
  H46      1.0000 0.61170  0.38460  0.31680  Biso   1.000  H
  C57      1.0000 0.58640  0.64295  0.63510  Biso   1.000  C
  C58      1.0000 0.41360  0.35705  0.36490  Biso   1.000  C
  H47      1.0000 0.58880  0.69370  0.65260  Biso   1.000  H
  H48      1.0000 0.41120  0.30630  0.34740  Biso   1.000  H
  C59      1.0000 0.70300  0.61502  0.59152  Biso   1.000  C
  C60      1.0000 0.29700  0.38498  0.40848  Biso   1.000  C
  H49      1.0000 0.78750  0.64570  0.57910  Biso   1.000  H
  H50      1.0000 0.21250  0.35430  0.42090  Biso   1.000  H
  C61      1.0000 0.69420  0.54092  0.56611  Biso   1.000  C
  C62      1.0000 0.30580  0.45908  0.43389  Biso   1.000  C
  C63      1.0000 0.56660  0.49854  0.58566  Biso   1.000  C
  C64      1.0000 0.43340  0.50146  0.41434  Biso   1.000  C
  H51      1.0000 0.55860  0.44910  0.56730  Biso   1.000  H
  H52      1.0000 0.44140  0.55090  0.43270  Biso   1.000  H
  C65      1.0000 0.81660  0.50261  0.52361  Biso   1.000  C
  C66      1.0000 0.18340  0.49739  0.47639  Biso   1.000  C
  H53      1.0000 0.79680  0.46220  0.49760  Biso   1.000  H
  H54      1.0000 0.20320  0.53780  0.50240  Biso   1.000  H
  C67      1.0000 0.48240  0.31561  0.78687  Biso   1.000  C
  C68      1.0000 0.51760  0.68439  0.21313  Biso   1.000  C
  H55      1.0000 0.48250  0.27650  0.75680  Biso   1.000  H
  H56      1.0000 0.51750  0.72350  0.24320  Biso   1.000  H
  C69      1.0000 0.56600  0.28901  0.84539  Biso   1.000  C
  C70      1.0000 0.43400  0.71099  0.15461  Biso   1.000  C
  H57      1.0000 0.62530  0.23370  0.85390  Biso   1.000  H
  H58      1.0000 0.37470  0.76630  0.14610  Biso   1.000  H
  C71      1.0000 0.56270  0.34347  0.89140  Biso   1.000  C
  C72      1.0000 0.43730  0.65653  0.10860  Biso   1.000  C
  H59      1.0000 0.61990  0.32660  0.93170  Biso   1.000  H
  H60      1.0000 0.38010  0.67340  0.06830  Biso   1.000  H
  C73      1.0000 0.47320  0.42393  0.87730  Biso   1.000  C
  C74      1.0000 0.52680  0.57607  0.12270  Biso   1.000  C
  C75      1.0000 0.39820  0.44586  0.81584  Biso   1.000  C
  C76      1.0000 0.60180  0.55414  0.18416  Biso   1.000  C
  H61      1.0000 0.34080  0.50160  0.80510  Biso   1.000  H
  H62      1.0000 0.65920  0.49840  0.19490  Biso   1.000  H
  C77      1.0000 0.45570  0.48530  0.92389  Biso   1.000  C
  C78      1.0000 0.54430  0.51470  0.07611  Biso   1.000  C
  H63      1.0000 0.39800  0.54050  0.91030  Biso   1.000  H
  H64      1.0000 0.60200  0.45950  0.08970  Biso   1.000  H
  C79      1.0000 0.33010  0.28263  0.60501  Biso   1.000  C
  C80      1.0000 0.66990  0.71737  0.39499  Biso   1.000  C
  C81      1.0000 0.34420  0.20620  0.57445  Biso   1.000  C
  C82      1.0000 0.65580  0.79380  0.42555  Biso   1.000  C
  H65      1.0000 0.44710  0.19520  0.55450  Biso   1.000  H
  H66      1.0000 0.55290  0.80480  0.44550  Biso   1.000  H
  H67      1.0000 0.27230  0.21590  0.53780  Biso   1.000  H
  H68      1.0000 0.72770  0.78410  0.46220  Biso   1.000  H
  H69      1.0000 0.32270  0.15610  0.61050  Biso   1.000  H
  H70      1.0000 0.67730  0.84390  0.38950  Biso   1.000  H
  C83      1.0000 0.74440  0.29060  0.47489  Biso   1.000  C
  C84      1.0000 0.25560  0.70940  0.52511  Biso   1.000  C
  C85      1.0000 0.87450  0.28000  0.42857  Biso   1.000  C
  C86      1.0000 0.12550  0.72000  0.57143  Biso   1.000  C
  H71      1.0000 0.90880  0.33640  0.40980  Biso   1.000  H
  H72      1.0000 0.09120  0.66360  0.59020  Biso   1.000  H
  H73      1.0000 0.84820  0.25560  0.39030  Biso   1.000  H
  H74      1.0000 0.15180  0.74440  0.60970  Biso   1.000  H
  H75      1.0000 0.95550  0.24080  0.45390  Biso   1.000  H
  H76      1.0000 0.04450  0.75920  0.54610  Biso   1.000  H
  C87      1.0000 0.89560  0.23610  0.62919  Biso   1.000  C
  C88      1.0000 0.10440  0.76390  0.37081  Biso   1.000  C
  C89      1.0000 0.77460  0.20280  0.67279  Biso   1.000  C
  C90      1.0000 0.22540  0.79720  0.32721  Biso   1.000  C
  H77      1.0000 0.67840  0.22970  0.65270  Biso   1.000  H
  H78      1.0000 0.32160  0.77030  0.34730  Biso   1.000  H
  H79      1.0000 0.77770  0.21570  0.71900  Biso   1.000  H
  H80      1.0000 0.22230  0.78430  0.28100  Biso   1.000  H
  H81      1.0000 0.78430  0.14000  0.67680  Biso   1.000  H
  H82      1.0000 0.21570  0.86000  0.32320  Biso   1.000  H
  C91      1.0000 0.21550  0.17429  0.32330  Biso   1.000  C
  C92      1.0000 0.78450  0.82571  0.67670  Biso   1.000  C
  C93      1.0000 0.22700  0.13810  0.26088  Biso   1.000  C
  C94      1.0000 0.77300  0.86190  0.73912  Biso   1.000  C
  H83      1.0000 0.22060  0.07590  0.27410  Biso   1.000  H
  H84      1.0000 0.77940  0.92410  0.72590  Biso   1.000  H
  H85      1.0000 0.32380  0.14750  0.23560  Biso   1.000  H
  H86      1.0000 0.67620  0.85250  0.76440  Biso   1.000  H
  H87      1.0000 0.14420  0.16660  0.23110  Biso   1.000  H
  H88      1.0000 0.85580  0.83340  0.76890  Biso   1.000  H
  O17      1.0000 0.90390  0.20960  0.21640  Biso   1.000  O
  O18      1.0000 0.09610  0.79040  0.78360  Biso   1.000  O
  O19      1.0000 0.69200  0.33630  0.22930  Biso   1.000  O
  O20      1.0000 0.30800  0.66370  0.77070  Biso   1.000  O
  O21      1.0000 0.77300  0.29390  0.13020  Biso   1.000  O
  O22      1.0000 0.22700  0.70610  0.86980  Biso   1.000  O
