data_image0
_cell_length_a       14.545
_cell_length_b       28.78
_cell_length_c       8.028
_cell_angle_alpha    90
_cell_angle_beta     113.22
_cell_angle_gamma    90

_symmetry_space_group_name_H-M    "P 1"
_symmetry_int_tables_number       1

loop_
  _symmetry_equiv_pos_as_xyz
  'x, y, z'

loop_
  _atom_site_label
  _atom_site_occupancy
  _atom_site_fract_x
  _atom_site_fract_y
  _atom_site_fract_z
  _atom_site_thermal_displace_type
  _atom_site_B_iso_or_equiv
  _atom_site_type_symbol
  Cu1      1.0000 0.00000  0.15132  0.75000  Biso   1.000  Cu
  Cu2      1.0000 0.50000  0.65132  0.75000  Biso   1.000  Cu
  Cu3      1.0000 0.00000  0.84868  0.25000  Biso   1.000  Cu
  Cu4      1.0000 0.50000  0.34868  0.25000  Biso   1.000  Cu
  Cl1      1.0000 0.49251  0.82644  0.49490  Biso   1.000  Cl
  Cl2      1.0000 0.50749  0.82644  0.00510  Biso   1.000  Cl
  Cl3      1.0000 0.99251  0.32644  0.49490  Biso   1.000  Cl
  Cl4      1.0000 0.00749  0.32644  0.00510  Biso   1.000  Cl
  Cl5      1.0000 0.50749  0.17356  0.50510  Biso   1.000  Cl
  Cl6      1.0000 0.49251  0.17356  0.99490  Biso   1.000  Cl
  Cl7      1.0000 0.00749  0.67356  0.50510  Biso   1.000  Cl
  Cl8      1.0000 0.99251  0.67356  0.99490  Biso   1.000  Cl
  N1       1.0000 0.11530  0.12065  0.94130  Biso   1.000  N
  N2       1.0000 0.88470  0.12065  0.55870  Biso   1.000  N
  N3       1.0000 0.61530  0.62065  0.94130  Biso   1.000  N
  N4       1.0000 0.38470  0.62065  0.55870  Biso   1.000  N
  N5       1.0000 0.88470  0.87935  0.05870  Biso   1.000  N
  N6       1.0000 0.11530  0.87935  0.44130  Biso   1.000  N
  N7       1.0000 0.38470  0.37935  0.05870  Biso   1.000  N
  N8       1.0000 0.61530  0.37935  0.44130  Biso   1.000  N
  N9       1.0000 0.19060  0.14733  0.07390  Biso   1.000  N
  N10      1.0000 0.80940  0.14733  0.42610  Biso   1.000  N
  N11      1.0000 0.69060  0.64733  0.07390  Biso   1.000  N
  N12      1.0000 0.30940  0.64733  0.42610  Biso   1.000  N
  N13      1.0000 0.80940  0.85267  0.92610  Biso   1.000  N
  N14      1.0000 0.19060  0.85267  0.57390  Biso   1.000  N
  N15      1.0000 0.30940  0.35267  0.92610  Biso   1.000  N
  N16      1.0000 0.69060  0.35267  0.57390  Biso   1.000  N
  N17      1.0000 0.23240  0.07389  0.11790  Biso   1.000  N
  N18      1.0000 0.76760  0.07389  0.38210  Biso   1.000  N
  N19      1.0000 0.73240  0.57389  0.11790  Biso   1.000  N
  N20      1.0000 0.26760  0.57389  0.38210  Biso   1.000  N
  N21      1.0000 0.76760  0.92611  0.88210  Biso   1.000  N
  N22      1.0000 0.23240  0.92611  0.61790  Biso   1.000  N
  N23      1.0000 0.26760  0.42611  0.88210  Biso   1.000  N
  N24      1.0000 0.73240  0.42611  0.61790  Biso   1.000  N
  N25      1.0000 0.29340  0.03627  0.20670  Biso   1.000  N
  N26      1.0000 0.70660  0.03627  0.29330  Biso   1.000  N
  N27      1.0000 0.79340  0.53627  0.20670  Biso   1.000  N
  N28      1.0000 0.20660  0.53627  0.29330  Biso   1.000  N
  N29      1.0000 0.70660  0.96373  0.79330  Biso   1.000  N
  N30      1.0000 0.29340  0.96373  0.70670  Biso   1.000  N
  N31      1.0000 0.20660  0.46373  0.79330  Biso   1.000  N
  N32      1.0000 0.79340  0.46373  0.70670  Biso   1.000  N
  N33      1.0000 0.07200  0.19568  0.63860  Biso   1.000  N
  N34      1.0000 0.92800  0.19568  0.86140  Biso   1.000  N
  N35      1.0000 0.57200  0.69568  0.63860  Biso   1.000  N
  N36      1.0000 0.42800  0.69568  0.86140  Biso   1.000  N
  N37      1.0000 0.92800  0.80432  0.36140  Biso   1.000  N
  N38      1.0000 0.07200  0.80432  0.13860  Biso   1.000  N
  N39      1.0000 0.42800  0.30432  0.36140  Biso   1.000  N
  N40      1.0000 0.57200  0.30432  0.13860  Biso   1.000  N
  C1       1.0000 0.25630  0.99604  0.15450  Biso   1.000  C
  C2       1.0000 0.74370  0.99604  0.34550  Biso   1.000  C
  C3       1.0000 0.75630  0.49604  0.15450  Biso   1.000  C
  C4       1.0000 0.24370  0.49604  0.34550  Biso   1.000  C
  C5       1.0000 0.74370  0.00396  0.84550  Biso   1.000  C
  C6       1.0000 0.25630  0.00396  0.65450  Biso   1.000  C
  C7       1.0000 0.24370  0.50396  0.84550  Biso   1.000  C
  C8       1.0000 0.75630  0.50396  0.65450  Biso   1.000  C
  H1       1.0000 0.19160  0.99250  0.06090  Biso   1.000  H
  H2       1.0000 0.80840  0.99250  0.43910  Biso   1.000  H
  H3       1.0000 0.69160  0.49250  0.06090  Biso   1.000  H
  H4       1.0000 0.30840  0.49250  0.43910  Biso   1.000  H
  H5       1.0000 0.80840  0.00750  0.93910  Biso   1.000  H
  H6       1.0000 0.19160  0.00750  0.56090  Biso   1.000  H
  H7       1.0000 0.30840  0.50750  0.93910  Biso   1.000  H
  H8       1.0000 0.69160  0.50750  0.56090  Biso   1.000  H
  C9       1.0000 0.31710  0.95507  0.24420  Biso   1.000  C
  C10      1.0000 0.68290  0.95507  0.25580  Biso   1.000  C
  C11      1.0000 0.81710  0.45507  0.24420  Biso   1.000  C
  C12      1.0000 0.18290  0.45507  0.25580  Biso   1.000  C
  C13      1.0000 0.68290  0.04493  0.75580  Biso   1.000  C
  C14      1.0000 0.31710  0.04493  0.74420  Biso   1.000  C
  C15      1.0000 0.18290  0.54493  0.75580  Biso   1.000  C
  C16      1.0000 0.81710  0.54493  0.74420  Biso   1.000  C
  C17      1.0000 0.27470  0.91163  0.18650  Biso   1.000  C
  C18      1.0000 0.72530  0.91163  0.31350  Biso   1.000  C
  C19      1.0000 0.77470  0.41163  0.18650  Biso   1.000  C
  C20      1.0000 0.22530  0.41163  0.31350  Biso   1.000  C
  C21      1.0000 0.72530  0.08837  0.81350  Biso   1.000  C
  C22      1.0000 0.27470  0.08837  0.68650  Biso   1.000  C
  C23      1.0000 0.22530  0.58837  0.81350  Biso   1.000  C
  C24      1.0000 0.77470  0.58837  0.68650  Biso   1.000  C
  H9       1.0000 0.21010  0.90880  0.09220  Biso   1.000  H
  H10      1.0000 0.78990  0.90880  0.40780  Biso   1.000  H
  H11      1.0000 0.71010  0.40880  0.09220  Biso   1.000  H
  H12      1.0000 0.28990  0.40880  0.40780  Biso   1.000  H
  H13      1.0000 0.78990  0.09120  0.90780  Biso   1.000  H
  H14      1.0000 0.21010  0.09120  0.59220  Biso   1.000  H
  H15      1.0000 0.28990  0.59120  0.90780  Biso   1.000  H
  H16      1.0000 0.71010  0.59120  0.59220  Biso   1.000  H
  C25      1.0000 0.33000  0.87200  0.27120  Biso   1.000  C
  C26      1.0000 0.67000  0.87200  0.22880  Biso   1.000  C
  C27      1.0000 0.83000  0.37200  0.27120  Biso   1.000  C
  C28      1.0000 0.17000  0.37200  0.22880  Biso   1.000  C
  C29      1.0000 0.67000  0.12800  0.72880  Biso   1.000  C
  C30      1.0000 0.33000  0.12800  0.77120  Biso   1.000  C
  C31      1.0000 0.17000  0.62800  0.72880  Biso   1.000  C
  C32      1.0000 0.83000  0.62800  0.77120  Biso   1.000  C
  H17      1.0000 0.30100  0.84210  0.23790  Biso   1.000  H
  H18      1.0000 0.69900  0.84210  0.26210  Biso   1.000  H
  H19      1.0000 0.80100  0.34210  0.23790  Biso   1.000  H
  H20      1.0000 0.19900  0.34210  0.26210  Biso   1.000  H
  H21      1.0000 0.69900  0.15790  0.76210  Biso   1.000  H
  H22      1.0000 0.30100  0.15790  0.73790  Biso   1.000  H
  H23      1.0000 0.19900  0.65790  0.76210  Biso   1.000  H
  H24      1.0000 0.80100  0.65790  0.73790  Biso   1.000  H
  C33      1.0000 0.42280  0.87589  0.39780  Biso   1.000  C
  C34      1.0000 0.57720  0.87589  0.10220  Biso   1.000  C
  C35      1.0000 0.92280  0.37589  0.39780  Biso   1.000  C
  C36      1.0000 0.07720  0.37589  0.10220  Biso   1.000  C
  C37      1.0000 0.57720  0.12411  0.60220  Biso   1.000  C
  C38      1.0000 0.42280  0.12411  0.89780  Biso   1.000  C
  C39      1.0000 0.07720  0.62411  0.60220  Biso   1.000  C
  C40      1.0000 0.92280  0.62411  0.89780  Biso   1.000  C
  C41      1.0000 0.47010  0.91940  0.46080  Biso   1.000  C
  C42      1.0000 0.52990  0.91940  0.03920  Biso   1.000  C
  C43      1.0000 0.97010  0.41940  0.46080  Biso   1.000  C
  C44      1.0000 0.02990  0.41940  0.03920  Biso   1.000  C
  C45      1.0000 0.52990  0.08060  0.53920  Biso   1.000  C
  C46      1.0000 0.47010  0.08060  0.96080  Biso   1.000  C
  C47      1.0000 0.02990  0.58060  0.53920  Biso   1.000  C
  C48      1.0000 0.97010  0.58060  0.96080  Biso   1.000  C
  H25      1.0000 0.53540  0.92140  0.55350  Biso   1.000  H
  H26      1.0000 0.46460  0.92140  0.94650  Biso   1.000  H
  H27      1.0000 0.03540  0.42140  0.55350  Biso   1.000  H
  H28      1.0000 0.96460  0.42140  0.94650  Biso   1.000  H
  H29      1.0000 0.46460  0.07860  0.44650  Biso   1.000  H
  H30      1.0000 0.53540  0.07860  0.05350  Biso   1.000  H
  H31      1.0000 0.96460  0.57860  0.44650  Biso   1.000  H
  H32      1.0000 0.03540  0.57860  0.05350  Biso   1.000  H
  C49      1.0000 0.41620  0.95820  0.38000  Biso   1.000  C
  C50      1.0000 0.58380  0.95820  0.12000  Biso   1.000  C
  C51      1.0000 0.91620  0.45820  0.38000  Biso   1.000  C
  C52      1.0000 0.08380  0.45820  0.12000  Biso   1.000  C
  C53      1.0000 0.58380  0.04180  0.62000  Biso   1.000  C
  C54      1.0000 0.41620  0.04180  0.88000  Biso   1.000  C
  C55      1.0000 0.08380  0.54180  0.62000  Biso   1.000  C
  C56      1.0000 0.91620  0.54180  0.88000  Biso   1.000  C
  H33      1.0000 0.44560  0.98800  0.41610  Biso   1.000  H
  H34      1.0000 0.55440  0.98800  0.08390  Biso   1.000  H
  H35      1.0000 0.94560  0.48800  0.41610  Biso   1.000  H
  H36      1.0000 0.05440  0.48800  0.08390  Biso   1.000  H
  H37      1.0000 0.55440  0.01200  0.58390  Biso   1.000  H
  H38      1.0000 0.44560  0.01200  0.91610  Biso   1.000  H
  H39      1.0000 0.05440  0.51200  0.58390  Biso   1.000  H
  H40      1.0000 0.94560  0.51200  0.91610  Biso   1.000  H
  C57      1.0000 0.47450  0.91870  0.37600  Biso   1.000  C
  C58      1.0000 0.52550  0.91870  0.12400  Biso   1.000  C
  C59      1.0000 0.97450  0.41870  0.37600  Biso   1.000  C
  C60      1.0000 0.02550  0.41870  0.12400  Biso   1.000  C
  C61      1.0000 0.52550  0.08130  0.62400  Biso   1.000  C
  C62      1.0000 0.47450  0.08130  0.87600  Biso   1.000  C
  C63      1.0000 0.02550  0.58130  0.62400  Biso   1.000  C
  C64      1.0000 0.97450  0.58130  0.87600  Biso   1.000  C
  H41      1.0000 0.54520  0.91980  0.41470  Biso   1.000  H
  H42      1.0000 0.45480  0.91980  0.08530  Biso   1.000  H
  H43      1.0000 0.04520  0.41980  0.41470  Biso   1.000  H
  H44      1.0000 0.95480  0.41980  0.08530  Biso   1.000  H
  H45      1.0000 0.45480  0.08020  0.58530  Biso   1.000  H
  H46      1.0000 0.54520  0.08020  0.91470  Biso   1.000  H
  H47      1.0000 0.95480  0.58020  0.58530  Biso   1.000  H
  H48      1.0000 0.04520  0.58020  0.91470  Biso   1.000  H
  C65      1.0000 0.41450  0.95730  0.29700  Biso   1.000  C
  C66      1.0000 0.58550  0.95730  0.20300  Biso   1.000  C
  C67      1.0000 0.91450  0.45730  0.29700  Biso   1.000  C
  C68      1.0000 0.08550  0.45730  0.20300  Biso   1.000  C
  C69      1.0000 0.58550  0.04270  0.70300  Biso   1.000  C
  C70      1.0000 0.41450  0.04270  0.79700  Biso   1.000  C
  C71      1.0000 0.08550  0.54270  0.70300  Biso   1.000  C
  C72      1.0000 0.91450  0.54270  0.79700  Biso   1.000  C
  H49      1.0000 0.44470  0.98530  0.28050  Biso   1.000  H
  H50      1.0000 0.55530  0.98530  0.21950  Biso   1.000  H
  H51      1.0000 0.94470  0.48530  0.28050  Biso   1.000  H
  H52      1.0000 0.05530  0.48530  0.21950  Biso   1.000  H
  H53      1.0000 0.55530  0.01470  0.71950  Biso   1.000  H
  H54      1.0000 0.44470  0.01470  0.78050  Biso   1.000  H
  H55      1.0000 0.05530  0.51470  0.71950  Biso   1.000  H
  H56      1.0000 0.94470  0.51470  0.78050  Biso   1.000  H
  C73      1.0000 0.44210  0.91830  0.50800  Biso   1.000  C
  C74      1.0000 0.55790  0.91830  0.99200  Biso   1.000  C
  C75      1.0000 0.94210  0.41830  0.50800  Biso   1.000  C
  C76      1.0000 0.05790  0.41830  0.99200  Biso   1.000  C
  C77      1.0000 0.55790  0.08170  0.49200  Biso   1.000  C
  C78      1.0000 0.44210  0.08170  0.00800  Biso   1.000  C
  C79      1.0000 0.05790  0.58170  0.49200  Biso   1.000  C
  C80      1.0000 0.94210  0.58170  0.00800  Biso   1.000  C
  H57      1.0000 0.48480  0.91830  0.63340  Biso   1.000  H
  H58      1.0000 0.51520  0.91830  0.86660  Biso   1.000  H
  H59      1.0000 0.98480  0.41830  0.63340  Biso   1.000  H
  H60      1.0000 0.01520  0.41830  0.86660  Biso   1.000  H
  H61      1.0000 0.51520  0.08170  0.36660  Biso   1.000  H
  H62      1.0000 0.48480  0.08170  0.13340  Biso   1.000  H
  H63      1.0000 0.01520  0.58170  0.36660  Biso   1.000  H
  H64      1.0000 0.98480  0.58170  0.13340  Biso   1.000  H
  C81      1.0000 0.39540  0.95750  0.42200  Biso   1.000  C
  C82      1.0000 0.60460  0.95750  0.07800  Biso   1.000  C
  C83      1.0000 0.89540  0.45750  0.42200  Biso   1.000  C
  C84      1.0000 0.10460  0.45750  0.07800  Biso   1.000  C
  C85      1.0000 0.60460  0.04250  0.57800  Biso   1.000  C
  C86      1.0000 0.39540  0.04250  0.92200  Biso   1.000  C
  C87      1.0000 0.10460  0.54250  0.57800  Biso   1.000  C
  C88      1.0000 0.89540  0.54250  0.92200  Biso   1.000  C
  H65      1.0000 0.41490  0.98680  0.47920  Biso   1.000  H
  H66      1.0000 0.58510  0.98680  0.02080  Biso   1.000  H
  H67      1.0000 0.91490  0.48680  0.47920  Biso   1.000  H
  H68      1.0000 0.08510  0.48680  0.02080  Biso   1.000  H
  H69      1.0000 0.58510  0.01320  0.52080  Biso   1.000  H
  H70      1.0000 0.41490  0.01320  0.97920  Biso   1.000  H
  H71      1.0000 0.08510  0.51320  0.52080  Biso   1.000  H
  H72      1.0000 0.91490  0.51320  0.97920  Biso   1.000  H
  C89      1.0000 0.25730  0.11873  0.17200  Biso   1.000  C
  C90      1.0000 0.74270  0.11873  0.32800  Biso   1.000  C
  C91      1.0000 0.75730  0.61873  0.17200  Biso   1.000  C
  C92      1.0000 0.24270  0.61873  0.32800  Biso   1.000  C
  C93      1.0000 0.74270  0.88127  0.82800  Biso   1.000  C
  C94      1.0000 0.25730  0.88127  0.67200  Biso   1.000  C
  C95      1.0000 0.24270  0.38127  0.82800  Biso   1.000  C
  C96      1.0000 0.75730  0.38127  0.67200  Biso   1.000  C
  H73      1.0000 0.31690  0.12760  0.27050  Biso   1.000  H
  H74      1.0000 0.68310  0.12760  0.22950  Biso   1.000  H
  H75      1.0000 0.81690  0.62760  0.27050  Biso   1.000  H
  H76      1.0000 0.18310  0.62760  0.22950  Biso   1.000  H
  H77      1.0000 0.68310  0.87240  0.72950  Biso   1.000  H
  H78      1.0000 0.31690  0.87240  0.77050  Biso   1.000  H
  H79      1.0000 0.18310  0.37240  0.72950  Biso   1.000  H
  H80      1.0000 0.81690  0.37240  0.77050  Biso   1.000  H
  C97      1.0000 0.14230  0.07685  0.97210  Biso   1.000  C
  C98      1.0000 0.85770  0.07685  0.52790  Biso   1.000  C
  C99      1.0000 0.64230  0.57685  0.97210  Biso   1.000  C
  C100     1.0000 0.35770  0.57685  0.52790  Biso   1.000  C
  C101     1.0000 0.85770  0.92315  0.02790  Biso   1.000  C
  C102     1.0000 0.14230  0.92315  0.47210  Biso   1.000  C
  C103     1.0000 0.35770  0.42315  0.02790  Biso   1.000  C
  C104     1.0000 0.64230  0.42315  0.47210  Biso   1.000  C
  H81      1.0000 0.10530  0.05120  0.90390  Biso   1.000  H
  H82      1.0000 0.89470  0.05120  0.59610  Biso   1.000  H
  H83      1.0000 0.60530  0.55120  0.90390  Biso   1.000  H
  H84      1.0000 0.39470  0.55120  0.59610  Biso   1.000  H
  H85      1.0000 0.89470  0.94880  0.09610  Biso   1.000  H
  H86      1.0000 0.10530  0.94880  0.40390  Biso   1.000  H
  H87      1.0000 0.39470  0.44880  0.09610  Biso   1.000  H
  H88      1.0000 0.60530  0.44880  0.40390  Biso   1.000  H
  C105     1.0000 0.13310  0.22946  0.73880  Biso   1.000  C
  C106     1.0000 0.86690  0.22946  0.76120  Biso   1.000  C
  C107     1.0000 0.63310  0.72946  0.73880  Biso   1.000  C
  C108     1.0000 0.36690  0.72946  0.76120  Biso   1.000  C
  C109     1.0000 0.86690  0.77054  0.26120  Biso   1.000  C
  C110     1.0000 0.13310  0.77054  0.23880  Biso   1.000  C
  C111     1.0000 0.36690  0.27054  0.26120  Biso   1.000  C
  C112     1.0000 0.63310  0.27054  0.23880  Biso   1.000  C
  H89      1.0000 0.12820  0.23860  0.84870  Biso   1.000  H
  H90      1.0000 0.87180  0.23860  0.65130  Biso   1.000  H
  H91      1.0000 0.62820  0.73860  0.84870  Biso   1.000  H
  H92      1.0000 0.37180  0.73860  0.65130  Biso   1.000  H
  H93      1.0000 0.87180  0.76140  0.15130  Biso   1.000  H
  H94      1.0000 0.12820  0.76140  0.34870  Biso   1.000  H
  H95      1.0000 0.37180  0.26140  0.15130  Biso   1.000  H
  H96      1.0000 0.62820  0.26140  0.34870  Biso   1.000  H
  C113     1.0000 0.20280  0.25145  0.68780  Biso   1.000  C
  C114     1.0000 0.79720  0.25145  0.81220  Biso   1.000  C
  C115     1.0000 0.70280  0.75145  0.68780  Biso   1.000  C
  C116     1.0000 0.29720  0.75145  0.81220  Biso   1.000  C
  C117     1.0000 0.79720  0.74855  0.31220  Biso   1.000  C
  C118     1.0000 0.20280  0.74855  0.18780  Biso   1.000  C
  C119     1.0000 0.29720  0.24855  0.31220  Biso   1.000  C
  C120     1.0000 0.70280  0.24855  0.18780  Biso   1.000  C
  H97      1.0000 0.24430  0.27510  0.76240  Biso   1.000  H
  H98      1.0000 0.75570  0.27510  0.73760  Biso   1.000  H
  H99      1.0000 0.74430  0.77510  0.76240  Biso   1.000  H
  H100     1.0000 0.25570  0.77510  0.73760  Biso   1.000  H
  H101     1.0000 0.75570  0.72490  0.23760  Biso   1.000  H
  H102     1.0000 0.24430  0.72490  0.26240  Biso   1.000  H
  H103     1.0000 0.25570  0.22490  0.23760  Biso   1.000  H
  H104     1.0000 0.74430  0.22490  0.26240  Biso   1.000  H
  C121     1.0000 0.21210  0.23895  0.52810  Biso   1.000  C
  C122     1.0000 0.78790  0.23895  0.97190  Biso   1.000  C
  C123     1.0000 0.71210  0.73895  0.52810  Biso   1.000  C
  C124     1.0000 0.28790  0.73895  0.97190  Biso   1.000  C
  C125     1.0000 0.78790  0.76105  0.47190  Biso   1.000  C
  C126     1.0000 0.21210  0.76105  0.02810  Biso   1.000  C
  C127     1.0000 0.28790  0.26105  0.47190  Biso   1.000  C
  C128     1.0000 0.71210  0.26105  0.02810  Biso   1.000  C
  C129     1.0000 0.14670  0.20474  0.42530  Biso   1.000  C
  C130     1.0000 0.85330  0.20474  0.07470  Biso   1.000  C
  C131     1.0000 0.64670  0.70474  0.42530  Biso   1.000  C
  C132     1.0000 0.35330  0.70474  0.07470  Biso   1.000  C
  C133     1.0000 0.85330  0.79526  0.57470  Biso   1.000  C
  C134     1.0000 0.14670  0.79526  0.92530  Biso   1.000  C
  C135     1.0000 0.35330  0.29526  0.57470  Biso   1.000  C
  C136     1.0000 0.64670  0.29526  0.92530  Biso   1.000  C
  H105     1.0000 0.14840  0.19560  0.31280  Biso   1.000  H
  H106     1.0000 0.85160  0.19560  0.18720  Biso   1.000  H
  H107     1.0000 0.64840  0.69560  0.31280  Biso   1.000  H
  H108     1.0000 0.35160  0.69560  0.18720  Biso   1.000  H
  H109     1.0000 0.85160  0.80440  0.68720  Biso   1.000  H
  H110     1.0000 0.14840  0.80440  0.81280  Biso   1.000  H
  H111     1.0000 0.35160  0.30440  0.68720  Biso   1.000  H
  H112     1.0000 0.64840  0.30440  0.81280  Biso   1.000  H
  C137     1.0000 0.08010  0.18405  0.48330  Biso   1.000  C
  C138     1.0000 0.91990  0.18405  0.01670  Biso   1.000  C
  C139     1.0000 0.58010  0.68405  0.48330  Biso   1.000  C
  C140     1.0000 0.41990  0.68405  0.01670  Biso   1.000  C
  C141     1.0000 0.91990  0.81595  0.51670  Biso   1.000  C
  C142     1.0000 0.08010  0.81595  0.98330  Biso   1.000  C
  C143     1.0000 0.41990  0.31595  0.51670  Biso   1.000  C
  C144     1.0000 0.58010  0.31595  0.98330  Biso   1.000  C
  H113     1.0000 0.03760  0.16040  0.41050  Biso   1.000  H
  H114     1.0000 0.96240  0.16040  0.08950  Biso   1.000  H
  H115     1.0000 0.53760  0.66040  0.41050  Biso   1.000  H
  H116     1.0000 0.46240  0.66040  0.08950  Biso   1.000  H
  H117     1.0000 0.96240  0.83960  0.58950  Biso   1.000  H
  H118     1.0000 0.03760  0.83960  0.91050  Biso   1.000  H
  H119     1.0000 0.46240  0.33960  0.58950  Biso   1.000  H
  H120     1.0000 0.53760  0.33960  0.91050  Biso   1.000  H
  Cl9      1.0000 0.01490  0.95090  0.79260  Biso   1.000  Cl
  Cl10     1.0000 0.98510  0.95090  0.70740  Biso   1.000  Cl
  Cl11     1.0000 0.51490  0.45090  0.79260  Biso   1.000  Cl
  Cl12     1.0000 0.48510  0.45090  0.70740  Biso   1.000  Cl
  Cl13     1.0000 0.98510  0.04910  0.20740  Biso   1.000  Cl
  Cl14     1.0000 0.01490  0.04910  0.29260  Biso   1.000  Cl
  Cl15     1.0000 0.48510  0.54910  0.20740  Biso   1.000  Cl
  Cl16     1.0000 0.51490  0.54910  0.29260  Biso   1.000  Cl
  O1       1.0000 0.04920  0.94790  0.98590  Biso   1.000  O
  O2       1.0000 0.95080  0.94790  0.51410  Biso   1.000  O
  O3       1.0000 0.54920  0.44790  0.98590  Biso   1.000  O
  O4       1.0000 0.45080  0.44790  0.51410  Biso   1.000  O
  O5       1.0000 0.95080  0.05210  0.01410  Biso   1.000  O
  O6       1.0000 0.04920  0.05210  0.48590  Biso   1.000  O
  O7       1.0000 0.45080  0.55210  0.01410  Biso   1.000  O
  O8       1.0000 0.54920  0.55210  0.48590  Biso   1.000  O
  O9       1.0000 0.05790  0.98970  0.73980  Biso   1.000  O
  O10      1.0000 0.94210  0.98970  0.76020  Biso   1.000  O
  O11      1.0000 0.55790  0.48970  0.73980  Biso   1.000  O
  O12      1.0000 0.44210  0.48970  0.76020  Biso   1.000  O
  O13      1.0000 0.94210  0.01030  0.26020  Biso   1.000  O
  O14      1.0000 0.05790  0.01030  0.23980  Biso   1.000  O
  O15      1.0000 0.44210  0.51030  0.26020  Biso   1.000  O
  O16      1.0000 0.55790  0.51030  0.23980  Biso   1.000  O
  O17      1.0000 0.91410  0.93660  0.69000  Biso   1.000  O
  O18      1.0000 0.08590  0.93660  0.81000  Biso   1.000  O
  O19      1.0000 0.41410  0.43660  0.69000  Biso   1.000  O
  O20      1.0000 0.58590  0.43660  0.81000  Biso   1.000  O
  O21      1.0000 0.08590  0.06340  0.31000  Biso   1.000  O
  O22      1.0000 0.91410  0.06340  0.19000  Biso   1.000  O
  O23      1.0000 0.58590  0.56340  0.31000  Biso   1.000  O
  O24      1.0000 0.41410  0.56340  0.19000  Biso   1.000  O
  O25      1.0000 0.07040  0.91280  0.76200  Biso   1.000  O
  O26      1.0000 0.92960  0.91280  0.73800  Biso   1.000  O
  O27      1.0000 0.57040  0.41280  0.76200  Biso   1.000  O
  O28      1.0000 0.42960  0.41280  0.73800  Biso   1.000  O
  O29      1.0000 0.92960  0.08720  0.23800  Biso   1.000  O
  O30      1.0000 0.07040  0.08720  0.26200  Biso   1.000  O
  O31      1.0000 0.42960  0.58720  0.23800  Biso   1.000  O
  O32      1.0000 0.57040  0.58720  0.26200  Biso   1.000  O
  O33      1.0000 0.01320  0.90960  0.69200  Biso   1.000  O
  O34      1.0000 0.98680  0.90960  0.80800  Biso   1.000  O
  O35      1.0000 0.51320  0.40960  0.69200  Biso   1.000  O
  O36      1.0000 0.48680  0.40960  0.80800  Biso   1.000  O
  O37      1.0000 0.98680  0.09040  0.30800  Biso   1.000  O
  O38      1.0000 0.01320  0.09040  0.19200  Biso   1.000  O
  O39      1.0000 0.48680  0.59040  0.30800  Biso   1.000  O
  O40      1.0000 0.51320  0.59040  0.19200  Biso   1.000  O
  O41      1.0000 0.91070  0.96420  0.73500  Biso   1.000  O
  O42      1.0000 0.08930  0.96420  0.76500  Biso   1.000  O
  O43      1.0000 0.41070  0.46420  0.73500  Biso   1.000  O
  O44      1.0000 0.58930  0.46420  0.76500  Biso   1.000  O
  O45      1.0000 0.08930  0.03580  0.26500  Biso   1.000  O
  O46      1.0000 0.91070  0.03580  0.23500  Biso   1.000  O
  O47      1.0000 0.58930  0.53580  0.26500  Biso   1.000  O
  O48      1.0000 0.41070  0.53580  0.23500  Biso   1.000  O
