data_image0
_cell_length_a       11.229
_cell_length_b       13.05
_cell_length_c       31.854
_cell_angle_alpha    90
_cell_angle_beta     90
_cell_angle_gamma    90

_symmetry_space_group_name_H-M    "P 1"
_symmetry_int_tables_number       1

loop_
  _symmetry_equiv_pos_as_xyz
  'x, y, z'

loop_
  _atom_site_label
  _atom_site_occupancy
  _atom_site_fract_x
  _atom_site_fract_y
  _atom_site_fract_z
  _atom_site_thermal_displace_type
  _atom_site_B_iso_or_equiv
  _atom_site_type_symbol
  Cu1      1.0000 0.50002  0.35197  0.13812  Biso   1.000  Cu
  Cu2      1.0000 0.99998  0.14803  0.63812  Biso   1.000  Cu
  Cu3      1.0000 0.49998  0.35197  0.36188  Biso   1.000  Cu
  Cu4      1.0000 0.00002  0.14803  0.86188  Biso   1.000  Cu
  Cu5      1.0000 0.49998  0.64803  0.86188  Biso   1.000  Cu
  Cu6      1.0000 0.00002  0.85197  0.36188  Biso   1.000  Cu
  Cu7      1.0000 0.50002  0.64803  0.63812  Biso   1.000  Cu
  Cu8      1.0000 0.99998  0.85197  0.13812  Biso   1.000  Cu
  Cl1      1.0000 0.02156  0.39631  0.15178  Biso   1.000  Cl
  Cl2      1.0000 0.47844  0.10369  0.65178  Biso   1.000  Cl
  Cl3      1.0000 0.97844  0.39631  0.34822  Biso   1.000  Cl
  Cl4      1.0000 0.52156  0.10369  0.84822  Biso   1.000  Cl
  Cl5      1.0000 0.97844  0.60369  0.84822  Biso   1.000  Cl
  Cl6      1.0000 0.52156  0.89631  0.34822  Biso   1.000  Cl
  Cl7      1.0000 0.02156  0.60369  0.65178  Biso   1.000  Cl
  Cl8      1.0000 0.47844  0.89631  0.15178  Biso   1.000  Cl
  Cl9      1.0000 0.36731  0.34460  0.93192  Biso   1.000  Cl
  Cl10     1.0000 0.13269  0.15540  0.43192  Biso   1.000  Cl
  Cl11     1.0000 0.63269  0.34460  0.56808  Biso   1.000  Cl
  Cl12     1.0000 0.86731  0.15540  0.06808  Biso   1.000  Cl
  Cl13     1.0000 0.63269  0.65540  0.06808  Biso   1.000  Cl
  Cl14     1.0000 0.86731  0.84460  0.56808  Biso   1.000  Cl
  Cl15     1.0000 0.36731  0.65540  0.43192  Biso   1.000  Cl
  Cl16     1.0000 0.13269  0.84460  0.93192  Biso   1.000  Cl
  O1       1.0000 0.91004  0.44036  0.13792  Biso   1.000  O
  O2       1.0000 0.58996  0.05964  0.63792  Biso   1.000  O
  O3       1.0000 0.08996  0.44036  0.36208  Biso   1.000  O
  O4       1.0000 0.41004  0.05964  0.86208  Biso   1.000  O
  O5       1.0000 0.08996  0.55964  0.86208  Biso   1.000  O
  O6       1.0000 0.41004  0.94036  0.36208  Biso   1.000  O
  O7       1.0000 0.91004  0.55964  0.63792  Biso   1.000  O
  O8       1.0000 0.58996  0.94036  0.13792  Biso   1.000  O
  O9       1.0000 0.02059  0.38489  0.19686  Biso   1.000  O
  O10      1.0000 0.47941  0.11511  0.69686  Biso   1.000  O
  O11      1.0000 0.97941  0.38489  0.30314  Biso   1.000  O
  O12      1.0000 0.52059  0.11511  0.80314  Biso   1.000  O
  O13      1.0000 0.97941  0.61511  0.80314  Biso   1.000  O
  O14      1.0000 0.52059  0.88489  0.30314  Biso   1.000  O
  O15      1.0000 0.02059  0.61511  0.69686  Biso   1.000  O
  O16      1.0000 0.47941  0.88489  0.19686  Biso   1.000  O
  O17      1.0000 0.11680  0.46320  0.13954  Biso   1.000  O
  O18      1.0000 0.38320  0.03680  0.63954  Biso   1.000  O
  O19      1.0000 0.88320  0.46320  0.36046  Biso   1.000  O
  O20      1.0000 0.61680  0.03680  0.86046  Biso   1.000  O
  O21      1.0000 0.88320  0.53680  0.86046  Biso   1.000  O
  O22      1.0000 0.61680  0.96320  0.36046  Biso   1.000  O
  O23      1.0000 0.11680  0.53680  0.63954  Biso   1.000  O
  O24      1.0000 0.38320  0.96320  0.13954  Biso   1.000  O
  O25      1.0000 0.03670  0.29745  0.13251  Biso   1.000  O
  O26      1.0000 0.46330  0.20255  0.63251  Biso   1.000  O
  O27      1.0000 0.96330  0.29745  0.36749  Biso   1.000  O
  O28      1.0000 0.53670  0.20255  0.86749  Biso   1.000  O
  O29      1.0000 0.96330  0.70255  0.86749  Biso   1.000  O
  O30      1.0000 0.53670  0.79745  0.36749  Biso   1.000  O
  O31      1.0000 0.03670  0.70255  0.63251  Biso   1.000  O
  O32      1.0000 0.46330  0.79745  0.13251  Biso   1.000  O
  N1       1.0000 0.58180  0.39214  0.08589  Biso   1.000  N
  N2       1.0000 0.91820  0.10786  0.58589  Biso   1.000  N
  N3       1.0000 0.41820  0.39214  0.41411  Biso   1.000  N
  N4       1.0000 0.08180  0.10786  0.91411  Biso   1.000  N
  N5       1.0000 0.41820  0.60786  0.91411  Biso   1.000  N
  N6       1.0000 0.08180  0.89214  0.41411  Biso   1.000  N
  N7       1.0000 0.58180  0.60786  0.58589  Biso   1.000  N
  N8       1.0000 0.91820  0.89214  0.08589  Biso   1.000  N
  N9       1.0000 0.52090  0.40773  0.04809  Biso   1.000  N
  N10      1.0000 0.97910  0.09227  0.54809  Biso   1.000  N
  N11      1.0000 0.47910  0.40773  0.45191  Biso   1.000  N
  N12      1.0000 0.02090  0.09227  0.95191  Biso   1.000  N
  N13      1.0000 0.47910  0.59227  0.95191  Biso   1.000  N
  N14      1.0000 0.02090  0.90773  0.45191  Biso   1.000  N
  N15      1.0000 0.52090  0.59227  0.54809  Biso   1.000  N
  N16      1.0000 0.97910  0.90773  0.04809  Biso   1.000  N
  N17      1.0000 0.71310  0.39550  0.03501  Biso   1.000  N
  N18      1.0000 0.78690  0.10450  0.53501  Biso   1.000  N
  N19      1.0000 0.28690  0.39550  0.46499  Biso   1.000  N
  N20      1.0000 0.21310  0.10450  0.96499  Biso   1.000  N
  N21      1.0000 0.28690  0.60450  0.96499  Biso   1.000  N
  N22      1.0000 0.21310  0.89550  0.46499  Biso   1.000  N
  N23      1.0000 0.71310  0.60450  0.53501  Biso   1.000  N
  N24      1.0000 0.78690  0.89550  0.03501  Biso   1.000  N
  N25      1.0000 0.81370  0.38890  0.00961  Biso   1.000  N
  N26      1.0000 0.68630  0.11110  0.50961  Biso   1.000  N
  N27      1.0000 0.18630  0.38890  0.49039  Biso   1.000  N
  N28      1.0000 0.31370  0.11110  0.99039  Biso   1.000  N
  N29      1.0000 0.18630  0.61110  0.99039  Biso   1.000  N
  N30      1.0000 0.31370  0.88890  0.49039  Biso   1.000  N
  N31      1.0000 0.81370  0.61110  0.50961  Biso   1.000  N
  N32      1.0000 0.68630  0.88890  0.00961  Biso   1.000  N
  N33      1.0000 0.60660  0.25850  0.17435  Biso   1.000  N
  N34      1.0000 0.89340  0.24150  0.67435  Biso   1.000  N
  N35      1.0000 0.39340  0.25850  0.32565  Biso   1.000  N
  N36      1.0000 0.10660  0.24150  0.82565  Biso   1.000  N
  N37      1.0000 0.39340  0.74150  0.82565  Biso   1.000  N
  N38      1.0000 0.10660  0.75850  0.32565  Biso   1.000  N
  N39      1.0000 0.60660  0.74150  0.67435  Biso   1.000  N
  N40      1.0000 0.89340  0.75850  0.17435  Biso   1.000  N
  N41      1.0000 0.92690  0.95200  0.32100  Biso   1.000  N
  N42      1.0000 0.57310  0.54800  0.82100  Biso   1.000  N
  N43      1.0000 0.07310  0.95200  0.17900  Biso   1.000  N
  N44      1.0000 0.42690  0.54800  0.67900  Biso   1.000  N
  N45      1.0000 0.07310  0.04800  0.67900  Biso   1.000  N
  N46      1.0000 0.42690  0.45200  0.17900  Biso   1.000  N
  N47      1.0000 0.92690  0.04800  0.82100  Biso   1.000  N
  N48      1.0000 0.57310  0.45200  0.32100  Biso   1.000  N
  N49      1.0000 0.36340  0.25620  0.12239  Biso   1.000  N
  N50      1.0000 0.13660  0.24380  0.62239  Biso   1.000  N
  N51      1.0000 0.63660  0.25620  0.37761  Biso   1.000  N
  N52      1.0000 0.86340  0.24380  0.87761  Biso   1.000  N
  N53      1.0000 0.63660  0.74380  0.87761  Biso   1.000  N
  N54      1.0000 0.86340  0.75620  0.37761  Biso   1.000  N
  N55      1.0000 0.36340  0.74380  0.62239  Biso   1.000  N
  N56      1.0000 0.13660  0.75620  0.12239  Biso   1.000  N
  C1       1.0000 0.91390  0.38310  0.02861  Biso   1.000  C
  C2       1.0000 0.58610  0.11690  0.52861  Biso   1.000  C
  C3       1.0000 0.08610  0.38310  0.47139  Biso   1.000  C
  C4       1.0000 0.41390  0.11690  0.97139  Biso   1.000  C
  C5       1.0000 0.08610  0.61690  0.97139  Biso   1.000  C
  C6       1.0000 0.41390  0.88310  0.47139  Biso   1.000  C
  C7       1.0000 0.91390  0.61690  0.52861  Biso   1.000  C
  C8       1.0000 0.58610  0.88310  0.02861  Biso   1.000  C
  H1       1.0000 0.91620  0.38470  0.05840  Biso   1.000  H
  H2       1.0000 0.58380  0.11530  0.55840  Biso   1.000  H
  H3       1.0000 0.08380  0.38470  0.44160  Biso   1.000  H
  H4       1.0000 0.41620  0.11530  0.94160  Biso   1.000  H
  H5       1.0000 0.08380  0.61530  0.94160  Biso   1.000  H
  H6       1.0000 0.41620  0.88470  0.44160  Biso   1.000  H
  H7       1.0000 0.91620  0.61530  0.55840  Biso   1.000  H
  H8       1.0000 0.58380  0.88470  0.05840  Biso   1.000  H
  C9       1.0000 0.02450  0.37410  0.00486  Biso   1.000  C
  C10      1.0000 0.47550  0.12590  0.50486  Biso   1.000  C
  C11      1.0000 0.97550  0.37410  0.49514  Biso   1.000  C
  C12      1.0000 0.52450  0.12590  0.99514  Biso   1.000  C
  C13      1.0000 0.97550  0.62590  0.99514  Biso   1.000  C
  C14      1.0000 0.52450  0.87410  0.49514  Biso   1.000  C
  C15      1.0000 0.02450  0.62590  0.50486  Biso   1.000  C
  C16      1.0000 0.47550  0.87410  0.00486  Biso   1.000  C
  C17      1.0000 0.13280  0.36540  0.02602  Biso   1.000  C
  C18      1.0000 0.36720  0.13460  0.52602  Biso   1.000  C
  C19      1.0000 0.86720  0.36540  0.47398  Biso   1.000  C
  C20      1.0000 0.63280  0.13460  0.97398  Biso   1.000  C
  C21      1.0000 0.86720  0.63460  0.97398  Biso   1.000  C
  C22      1.0000 0.63280  0.86540  0.47398  Biso   1.000  C
  C23      1.0000 0.13280  0.63460  0.52602  Biso   1.000  C
  C24      1.0000 0.36720  0.86540  0.02602  Biso   1.000  C
  H9       1.0000 0.13380  0.36570  0.05580  Biso   1.000  H
  H10      1.0000 0.36620  0.13430  0.55580  Biso   1.000  H
  H11      1.0000 0.86620  0.36570  0.44420  Biso   1.000  H
  H12      1.0000 0.63380  0.13430  0.94420  Biso   1.000  H
  H13      1.0000 0.86620  0.63430  0.94420  Biso   1.000  H
  H14      1.0000 0.63380  0.86570  0.44420  Biso   1.000  H
  H15      1.0000 0.13380  0.63430  0.55580  Biso   1.000  H
  H16      1.0000 0.36620  0.86570  0.05580  Biso   1.000  H
  C25      1.0000 0.23940  0.35650  0.00393  Biso   1.000  C
  C26      1.0000 0.26060  0.14350  0.50393  Biso   1.000  C
  C27      1.0000 0.76060  0.35650  0.49607  Biso   1.000  C
  C28      1.0000 0.73940  0.14350  0.99607  Biso   1.000  C
  C29      1.0000 0.76060  0.64350  0.99607  Biso   1.000  C
  C30      1.0000 0.73940  0.85650  0.49607  Biso   1.000  C
  C31      1.0000 0.23940  0.64350  0.50393  Biso   1.000  C
  C32      1.0000 0.26060  0.85650  0.00393  Biso   1.000  C
  H17      1.0000 0.31310  0.35050  0.01840  Biso   1.000  H
  H18      1.0000 0.18690  0.14950  0.51840  Biso   1.000  H
  H19      1.0000 0.68690  0.35050  0.48160  Biso   1.000  H
  H20      1.0000 0.81310  0.14950  0.98160  Biso   1.000  H
  H21      1.0000 0.68690  0.64950  0.98160  Biso   1.000  H
  H22      1.0000 0.81310  0.85050  0.48160  Biso   1.000  H
  H23      1.0000 0.31310  0.64950  0.51840  Biso   1.000  H
  H24      1.0000 0.18690  0.85050  0.01840  Biso   1.000  H
  C33      1.0000 0.23540  0.35670  0.96059  Biso   1.000  C
  C34      1.0000 0.26460  0.14330  0.46059  Biso   1.000  C
  C35      1.0000 0.76460  0.35670  0.53941  Biso   1.000  C
  C36      1.0000 0.73540  0.14330  0.03941  Biso   1.000  C
  C37      1.0000 0.76460  0.64330  0.03941  Biso   1.000  C
  C38      1.0000 0.73540  0.85670  0.53941  Biso   1.000  C
  C39      1.0000 0.23540  0.64330  0.46059  Biso   1.000  C
  C40      1.0000 0.26460  0.85670  0.96059  Biso   1.000  C
  C41      1.0000 0.12900  0.36690  0.93881  Biso   1.000  C
  C42      1.0000 0.37100  0.13310  0.43881  Biso   1.000  C
  C43      1.0000 0.87100  0.36690  0.56119  Biso   1.000  C
  C44      1.0000 0.62900  0.13310  0.06119  Biso   1.000  C
  C45      1.0000 0.87100  0.63310  0.06119  Biso   1.000  C
  C46      1.0000 0.62900  0.86690  0.56119  Biso   1.000  C
  C47      1.0000 0.12900  0.63310  0.43881  Biso   1.000  C
  C48      1.0000 0.37100  0.86690  0.93881  Biso   1.000  C
  H25      1.0000 0.12830  0.36820  0.90900  Biso   1.000  H
  H26      1.0000 0.37170  0.13180  0.40900  Biso   1.000  H
  H27      1.0000 0.87170  0.36820  0.59100  Biso   1.000  H
  H28      1.0000 0.62830  0.13180  0.09100  Biso   1.000  H
  H29      1.0000 0.87170  0.63180  0.09100  Biso   1.000  H
  H30      1.0000 0.62830  0.86820  0.59100  Biso   1.000  H
  H31      1.0000 0.12830  0.63180  0.40900  Biso   1.000  H
  H32      1.0000 0.37170  0.86820  0.90900  Biso   1.000  H
  C49      1.0000 0.02480  0.37500  0.96106  Biso   1.000  C
  C50      1.0000 0.47520  0.12500  0.46106  Biso   1.000  C
  C51      1.0000 0.97520  0.37500  0.53894  Biso   1.000  C
  C52      1.0000 0.52480  0.12500  0.03894  Biso   1.000  C
  C53      1.0000 0.97520  0.62500  0.03894  Biso   1.000  C
  C54      1.0000 0.52480  0.87500  0.53894  Biso   1.000  C
  C55      1.0000 0.02480  0.62500  0.46106  Biso   1.000  C
  C56      1.0000 0.47520  0.87500  0.96106  Biso   1.000  C
  H33      1.0000 0.95150  0.38140  0.94640  Biso   1.000  H
  H34      1.0000 0.54850  0.11860  0.44640  Biso   1.000  H
  H35      1.0000 0.04850  0.38140  0.55360  Biso   1.000  H
  H36      1.0000 0.45150  0.11860  0.05360  Biso   1.000  H
  H37      1.0000 0.04850  0.61860  0.05360  Biso   1.000  H
  H38      1.0000 0.45150  0.88140  0.55360  Biso   1.000  H
  H39      1.0000 0.95150  0.61860  0.44640  Biso   1.000  H
  H40      1.0000 0.54850  0.88140  0.94640  Biso   1.000  H
  C57      1.0000 0.60210  0.40880  0.01889  Biso   1.000  C
  C58      1.0000 0.89790  0.09120  0.51889  Biso   1.000  C
  C59      1.0000 0.39790  0.40880  0.48111  Biso   1.000  C
  C60      1.0000 0.10210  0.09120  0.98111  Biso   1.000  C
  C61      1.0000 0.39790  0.59120  0.98111  Biso   1.000  C
  C62      1.0000 0.10210  0.90880  0.48111  Biso   1.000  C
  C63      1.0000 0.60210  0.59120  0.51889  Biso   1.000  C
  C64      1.0000 0.89790  0.90880  0.01889  Biso   1.000  C
  H41      1.0000 0.58570  0.41780  0.98990  Biso   1.000  H
  H42      1.0000 0.91430  0.08220  0.48990  Biso   1.000  H
  H43      1.0000 0.41430  0.41780  0.51010  Biso   1.000  H
  H44      1.0000 0.08570  0.08220  0.01010  Biso   1.000  H
  H45      1.0000 0.41430  0.58220  0.01010  Biso   1.000  H
  H46      1.0000 0.08570  0.91780  0.51010  Biso   1.000  H
  H47      1.0000 0.58570  0.58220  0.48990  Biso   1.000  H
  H48      1.0000 0.91430  0.91780  0.98990  Biso   1.000  H
  C65      1.0000 0.69550  0.38580  0.07698  Biso   1.000  C
  C66      1.0000 0.80450  0.11420  0.57698  Biso   1.000  C
  C67      1.0000 0.30450  0.38580  0.42302  Biso   1.000  C
  C68      1.0000 0.19550  0.11420  0.92302  Biso   1.000  C
  C69      1.0000 0.30450  0.61420  0.92302  Biso   1.000  C
  C70      1.0000 0.19550  0.88580  0.42302  Biso   1.000  C
  C71      1.0000 0.69550  0.61420  0.57698  Biso   1.000  C
  C72      1.0000 0.80450  0.88580  0.07698  Biso   1.000  C
  H49      1.0000 0.75690  0.37590  0.09710  Biso   1.000  H
  H50      1.0000 0.74310  0.12410  0.59710  Biso   1.000  H
  H51      1.0000 0.24310  0.37590  0.40290  Biso   1.000  H
  H52      1.0000 0.25690  0.12410  0.90290  Biso   1.000  H
  H53      1.0000 0.24310  0.62410  0.90290  Biso   1.000  H
  H54      1.0000 0.25690  0.87590  0.40290  Biso   1.000  H
  H55      1.0000 0.75690  0.62410  0.59710  Biso   1.000  H
  H56      1.0000 0.74310  0.87590  0.09710  Biso   1.000  H
  C73      1.0000 0.71510  0.28750  0.18815  Biso   1.000  C
  C74      1.0000 0.78490  0.21250  0.68815  Biso   1.000  C
  C75      1.0000 0.28490  0.28750  0.31185  Biso   1.000  C
  C76      1.0000 0.21510  0.21250  0.81185  Biso   1.000  C
  C77      1.0000 0.28490  0.71250  0.81185  Biso   1.000  C
  C78      1.0000 0.21510  0.78750  0.31185  Biso   1.000  C
  C79      1.0000 0.71510  0.71250  0.68815  Biso   1.000  C
  C80      1.0000 0.78490  0.78750  0.18815  Biso   1.000  C
  H57      1.0000 0.74750  0.34980  0.17780  Biso   1.000  H
  H58      1.0000 0.75250  0.15020  0.67780  Biso   1.000  H
  H59      1.0000 0.25250  0.34980  0.32220  Biso   1.000  H
  H60      1.0000 0.24750  0.15020  0.82220  Biso   1.000  H
  H61      1.0000 0.25250  0.65020  0.82220  Biso   1.000  H
  H62      1.0000 0.24750  0.84980  0.32220  Biso   1.000  H
  H63      1.0000 0.74750  0.65020  0.67780  Biso   1.000  H
  H64      1.0000 0.75250  0.84980  0.17780  Biso   1.000  H
  C81      1.0000 0.78200  0.23140  0.21658  Biso   1.000  C
  C82      1.0000 0.71800  0.26860  0.71658  Biso   1.000  C
  C83      1.0000 0.21800  0.23140  0.28342  Biso   1.000  C
  C84      1.0000 0.28200  0.26860  0.78342  Biso   1.000  C
  C85      1.0000 0.21800  0.76860  0.78342  Biso   1.000  C
  C86      1.0000 0.28200  0.73140  0.28342  Biso   1.000  C
  C87      1.0000 0.78200  0.76860  0.71658  Biso   1.000  C
  C88      1.0000 0.71800  0.73140  0.21658  Biso   1.000  C
  H65      1.0000 0.85800  0.25550  0.22520  Biso   1.000  H
  H66      1.0000 0.64200  0.24450  0.72520  Biso   1.000  H
  H67      1.0000 0.14200  0.25550  0.27480  Biso   1.000  H
  H68      1.0000 0.35800  0.24450  0.77480  Biso   1.000  H
  H69      1.0000 0.14200  0.74450  0.77480  Biso   1.000  H
  H70      1.0000 0.35800  0.75550  0.27480  Biso   1.000  H
  H71      1.0000 0.85800  0.74450  0.72520  Biso   1.000  H
  H72      1.0000 0.64200  0.75550  0.22520  Biso   1.000  H
  C89      1.0000 0.73770  0.14020  0.23233  Biso   1.000  C
  C90      1.0000 0.76230  0.35980  0.73233  Biso   1.000  C
  C91      1.0000 0.26230  0.14020  0.26767  Biso   1.000  C
  C92      1.0000 0.23770  0.35980  0.76767  Biso   1.000  C
  C93      1.0000 0.26230  0.85980  0.76767  Biso   1.000  C
  C94      1.0000 0.23770  0.64020  0.26767  Biso   1.000  C
  C95      1.0000 0.73770  0.85980  0.73233  Biso   1.000  C
  C96      1.0000 0.76230  0.64020  0.23233  Biso   1.000  C
  C97      1.0000 0.62620  0.10950  0.21796  Biso   1.000  C
  C98      1.0000 0.87380  0.39050  0.71796  Biso   1.000  C
  C99      1.0000 0.37380  0.10950  0.28204  Biso   1.000  C
  C100     1.0000 0.12620  0.39050  0.78204  Biso   1.000  C
  C101     1.0000 0.37380  0.89050  0.78204  Biso   1.000  C
  C102     1.0000 0.12620  0.60950  0.28204  Biso   1.000  C
  C103     1.0000 0.62620  0.89050  0.71796  Biso   1.000  C
  C104     1.0000 0.87380  0.60950  0.21796  Biso   1.000  C
  H73      1.0000 0.59160  0.04770  0.22790  Biso   1.000  H
  H74      1.0000 0.90840  0.45230  0.72790  Biso   1.000  H
  H75      1.0000 0.40840  0.04770  0.27210  Biso   1.000  H
  H76      1.0000 0.09160  0.45230  0.77210  Biso   1.000  H
  H77      1.0000 0.40840  0.95230  0.77210  Biso   1.000  H
  H78      1.0000 0.09160  0.54770  0.27210  Biso   1.000  H
  H79      1.0000 0.59160  0.95230  0.72790  Biso   1.000  H
  H80      1.0000 0.90840  0.54770  0.22790  Biso   1.000  H
  C105     1.0000 0.56640  0.16890  0.18931  Biso   1.000  C
  C106     1.0000 0.93360  0.33110  0.68931  Biso   1.000  C
  C107     1.0000 0.43360  0.16890  0.31069  Biso   1.000  C
  C108     1.0000 0.06640  0.33110  0.81069  Biso   1.000  C
  C109     1.0000 0.43360  0.83110  0.81069  Biso   1.000  C
  C110     1.0000 0.06640  0.66890  0.31069  Biso   1.000  C
  C111     1.0000 0.56640  0.83110  0.68931  Biso   1.000  C
  C112     1.0000 0.93360  0.66890  0.18931  Biso   1.000  C
  H81      1.0000 0.49160  0.14490  0.17940  Biso   1.000  H
  H82      1.0000 0.00840  0.35510  0.67940  Biso   1.000  H
  H83      1.0000 0.50840  0.14490  0.32060  Biso   1.000  H
  H84      1.0000 0.99160  0.35510  0.82060  Biso   1.000  H
  H85      1.0000 0.50840  0.85510  0.82060  Biso   1.000  H
  H86      1.0000 0.99160  0.64490  0.32060  Biso   1.000  H
  H87      1.0000 0.49160  0.85510  0.67940  Biso   1.000  H
  H88      1.0000 0.00840  0.64490  0.17940  Biso   1.000  H
  C113     1.0000 0.95060  0.05290  0.31711  Biso   1.000  C
  C114     1.0000 0.54940  0.44710  0.81711  Biso   1.000  C
  C115     1.0000 0.04940  0.05290  0.18289  Biso   1.000  C
  C116     1.0000 0.45060  0.44710  0.68289  Biso   1.000  C
  C117     1.0000 0.04940  0.94710  0.68289  Biso   1.000  C
  C118     1.0000 0.45060  0.55290  0.18289  Biso   1.000  C
  C119     1.0000 0.95060  0.94710  0.81711  Biso   1.000  C
  C120     1.0000 0.54940  0.55290  0.31711  Biso   1.000  C
  H89      1.0000 0.01100  0.08190  0.33430  Biso   1.000  H
  H90      1.0000 0.48900  0.41810  0.83430  Biso   1.000  H
  H91      1.0000 0.98900  0.08190  0.16570  Biso   1.000  H
  H92      1.0000 0.51100  0.41810  0.66570  Biso   1.000  H
  H93      1.0000 0.98900  0.91810  0.66570  Biso   1.000  H
  H94      1.0000 0.51100  0.58190  0.16570  Biso   1.000  H
  H95      1.0000 0.01100  0.91810  0.83430  Biso   1.000  H
  H96      1.0000 0.48900  0.58190  0.33430  Biso   1.000  H
  C121     1.0000 0.89140  0.11600  0.28938  Biso   1.000  C
  C122     1.0000 0.60860  0.38400  0.78938  Biso   1.000  C
  C123     1.0000 0.10860  0.11600  0.21062  Biso   1.000  C
  C124     1.0000 0.39140  0.38400  0.71062  Biso   1.000  C
  C125     1.0000 0.10860  0.88400  0.71062  Biso   1.000  C
  C126     1.0000 0.39140  0.61600  0.21062  Biso   1.000  C
  C127     1.0000 0.89140  0.88400  0.78938  Biso   1.000  C
  C128     1.0000 0.60860  0.61600  0.28938  Biso   1.000  C
  H97      1.0000 0.91080  0.18680  0.28820  Biso   1.000  H
  H98      1.0000 0.58920  0.31320  0.78820  Biso   1.000  H
  H99      1.0000 0.08920  0.18680  0.21180  Biso   1.000  H
  H100     1.0000 0.41080  0.31320  0.71180  Biso   1.000  H
  H101     1.0000 0.08920  0.81320  0.71180  Biso   1.000  H
  H102     1.0000 0.41080  0.68680  0.21180  Biso   1.000  H
  H103     1.0000 0.91080  0.81320  0.78820  Biso   1.000  H
  H104     1.0000 0.58920  0.68680  0.28820  Biso   1.000  H
  C129     1.0000 0.80390  0.07740  0.26324  Biso   1.000  C
  C130     1.0000 0.69610  0.42260  0.76324  Biso   1.000  C
  C131     1.0000 0.19610  0.07740  0.23676  Biso   1.000  C
  C132     1.0000 0.30390  0.42260  0.73676  Biso   1.000  C
  C133     1.0000 0.19610  0.92260  0.73676  Biso   1.000  C
  C134     1.0000 0.30390  0.57740  0.23676  Biso   1.000  C
  C135     1.0000 0.80390  0.92260  0.76324  Biso   1.000  C
  C136     1.0000 0.69610  0.57740  0.26324  Biso   1.000  C
  C137     1.0000 0.77980  0.97260  0.26719  Biso   1.000  C
  C138     1.0000 0.72020  0.52740  0.76719  Biso   1.000  C
  C139     1.0000 0.22020  0.97260  0.23281  Biso   1.000  C
  C140     1.0000 0.27980  0.52740  0.73281  Biso   1.000  C
  C141     1.0000 0.22020  0.02740  0.73281  Biso   1.000  C
  C142     1.0000 0.27980  0.47260  0.23281  Biso   1.000  C
  C143     1.0000 0.77980  0.02740  0.76719  Biso   1.000  C
  C144     1.0000 0.72020  0.47260  0.26719  Biso   1.000  C
  H105     1.0000 0.72050  0.94150  0.25010  Biso   1.000  H
  H106     1.0000 0.77950  0.55850  0.75010  Biso   1.000  H
  H107     1.0000 0.27950  0.94150  0.24990  Biso   1.000  H
  H108     1.0000 0.22050  0.55850  0.74990  Biso   1.000  H
  H109     1.0000 0.27950  0.05850  0.74990  Biso   1.000  H
  H110     1.0000 0.22050  0.44150  0.24990  Biso   1.000  H
  H111     1.0000 0.72050  0.05850  0.75010  Biso   1.000  H
  H112     1.0000 0.77950  0.44150  0.25010  Biso   1.000  H
  C145     1.0000 0.84180  0.91480  0.29577  Biso   1.000  C
  C146     1.0000 0.65820  0.58520  0.79577  Biso   1.000  C
  C147     1.0000 0.15820  0.91480  0.20423  Biso   1.000  C
  C148     1.0000 0.34180  0.58520  0.70423  Biso   1.000  C
  C149     1.0000 0.15820  0.08520  0.70423  Biso   1.000  C
  C150     1.0000 0.34180  0.41480  0.20423  Biso   1.000  C
  C151     1.0000 0.84180  0.08520  0.79577  Biso   1.000  C
  C152     1.0000 0.65820  0.41480  0.29577  Biso   1.000  C
  H113     1.0000 0.82330  0.84400  0.29780  Biso   1.000  H
  H114     1.0000 0.67670  0.65600  0.79780  Biso   1.000  H
  H115     1.0000 0.17670  0.84400  0.20220  Biso   1.000  H
  H116     1.0000 0.32330  0.65600  0.70220  Biso   1.000  H
  H117     1.0000 0.17670  0.15600  0.70220  Biso   1.000  H
  H118     1.0000 0.32330  0.34400  0.20220  Biso   1.000  H
  H119     1.0000 0.82330  0.15600  0.79780  Biso   1.000  H
  H120     1.0000 0.67670  0.34400  0.29780  Biso   1.000  H
  C153     1.0000 0.29480  0.19840  0.11121  Biso   1.000  C
  C154     1.0000 0.20520  0.30160  0.61121  Biso   1.000  C
  C155     1.0000 0.70520  0.19840  0.38879  Biso   1.000  C
  C156     1.0000 0.79480  0.30160  0.88879  Biso   1.000  C
  C157     1.0000 0.70520  0.80160  0.88879  Biso   1.000  C
  C158     1.0000 0.79480  0.69840  0.38879  Biso   1.000  C
  C159     1.0000 0.29480  0.80160  0.61121  Biso   1.000  C
  C160     1.0000 0.20520  0.69840  0.11121  Biso   1.000  C
  C161     1.0000 0.20980  0.12290  0.09543  Biso   1.000  C
  C162     1.0000 0.29020  0.37710  0.59543  Biso   1.000  C
  C163     1.0000 0.79020  0.12290  0.40457  Biso   1.000  C
  C164     1.0000 0.70980  0.37710  0.90457  Biso   1.000  C
  C165     1.0000 0.79020  0.87710  0.90457  Biso   1.000  C
  C166     1.0000 0.70980  0.62290  0.40457  Biso   1.000  C
  C167     1.0000 0.20980  0.87710  0.59543  Biso   1.000  C
  C168     1.0000 0.29020  0.62290  0.09543  Biso   1.000  C
  H121     1.0000 0.22910  0.10600  0.06620  Biso   1.000  H
  H122     1.0000 0.27090  0.39400  0.56620  Biso   1.000  H
  H123     1.0000 0.77090  0.10600  0.43380  Biso   1.000  H
  H124     1.0000 0.72910  0.39400  0.93380  Biso   1.000  H
  H125     1.0000 0.77090  0.89400  0.93380  Biso   1.000  H
  H126     1.0000 0.72910  0.60600  0.43380  Biso   1.000  H
  H127     1.0000 0.22910  0.89400  0.56620  Biso   1.000  H
  H128     1.0000 0.27090  0.60600  0.06620  Biso   1.000  H
  H129     1.0000 0.12910  0.15130  0.09680  Biso   1.000  H
  H130     1.0000 0.37090  0.34870  0.59680  Biso   1.000  H
  H131     1.0000 0.87090  0.15130  0.40320  Biso   1.000  H
  H132     1.0000 0.62910  0.34870  0.90320  Biso   1.000  H
  H133     1.0000 0.87090  0.84870  0.90320  Biso   1.000  H
  H134     1.0000 0.62910  0.65130  0.40320  Biso   1.000  H
  H135     1.0000 0.12910  0.84870  0.59680  Biso   1.000  H
  H136     1.0000 0.37090  0.65130  0.09680  Biso   1.000  H
  H137     1.0000 0.21410  0.06080  0.11260  Biso   1.000  H
  H138     1.0000 0.28590  0.43920  0.61260  Biso   1.000  H
  H139     1.0000 0.78590  0.06080  0.38740  Biso   1.000  H
  H140     1.0000 0.71410  0.43920  0.88740  Biso   1.000  H
  H141     1.0000 0.78590  0.93920  0.88740  Biso   1.000  H
  H142     1.0000 0.71410  0.56080  0.38740  Biso   1.000  H
  H143     1.0000 0.21410  0.93920  0.61260  Biso   1.000  H
  H144     1.0000 0.28590  0.56080  0.11260  Biso   1.000  H
