data_image0
_cell_length_a       9.321
_cell_length_b       11.98
_cell_length_c       15.456
_cell_angle_alpha    90
_cell_angle_beta     91.99
_cell_angle_gamma    90

_symmetry_space_group_name_H-M    "P 1"
_symmetry_int_tables_number       1

loop_
  _symmetry_equiv_pos_as_xyz
  'x, y, z'

loop_
  _atom_site_label
  _atom_site_occupancy
  _atom_site_fract_x
  _atom_site_fract_y
  _atom_site_fract_z
  _atom_site_thermal_displace_type
  _atom_site_B_iso_or_equiv
  _atom_site_type_symbol
  Cu1      1.0000 0.15199  0.59171  0.02451  Biso   1.000  Cu
  Cu2      1.0000 0.34801  0.09171  0.47549  Biso   1.000  Cu
  Cu3      1.0000 0.84801  0.40829  0.97549  Biso   1.000  Cu
  Cu4      1.0000 0.65199  0.90829  0.52451  Biso   1.000  Cu
  Cl1      1.0000 0.18421  0.77520  0.27714  Biso   1.000  Cl
  Cl2      1.0000 0.31579  0.27520  0.22286  Biso   1.000  Cl
  Cl3      1.0000 0.81579  0.22480  0.72286  Biso   1.000  Cl
  Cl4      1.0000 0.68421  0.72480  0.77714  Biso   1.000  Cl
  N1       1.0000 0.06570  0.56594  0.90290  Biso   1.000  N
  N2       1.0000 0.43430  0.06594  0.59710  Biso   1.000  N
  N3       1.0000 0.93430  0.43406  0.09710  Biso   1.000  N
  N4       1.0000 0.56570  0.93406  0.40290  Biso   1.000  N
  N5       1.0000 0.95090  0.49380  0.88423  Biso   1.000  N
  N6       1.0000 0.54910  0.99380  0.61577  Biso   1.000  N
  N7       1.0000 0.04910  0.50620  0.11577  Biso   1.000  N
  N8       1.0000 0.45090  0.00620  0.38423  Biso   1.000  N
  N9       1.0000 0.01790  0.57118  0.76377  Biso   1.000  N
  N10      1.0000 0.48210  0.07118  0.73623  Biso   1.000  N
  N11      1.0000 0.98210  0.42882  0.23623  Biso   1.000  N
  N12      1.0000 0.51790  0.92882  0.26377  Biso   1.000  N
  N13      1.0000 0.01150  0.59350  0.67437  Biso   1.000  N
  N14      1.0000 0.48850  0.09350  0.82563  Biso   1.000  N
  N15      1.0000 0.98850  0.40650  0.32563  Biso   1.000  N
  N16      1.0000 0.51150  0.90650  0.17437  Biso   1.000  N
  Cl5      1.0000 0.64473  0.58661  0.29350  Biso   1.000  Cl
  Cl6      1.0000 0.85527  0.08661  0.20650  Biso   1.000  Cl
  Cl7      1.0000 0.35527  0.41339  0.70650  Biso   1.000  Cl
  Cl8      1.0000 0.14473  0.91339  0.79350  Biso   1.000  Cl
  O1       1.0000 0.76070  0.63650  0.24687  Biso   1.000  O
  O2       1.0000 0.73930  0.13650  0.25313  Biso   1.000  O
  O3       1.0000 0.23930  0.36350  0.75313  Biso   1.000  O
  O4       1.0000 0.26070  0.86350  0.74687  Biso   1.000  O
  O5       1.0000 0.68490  0.58100  0.38399  Biso   1.000  O
  O6       1.0000 0.81510  0.08100  0.11601  Biso   1.000  O
  O7       1.0000 0.31510  0.41900  0.61601  Biso   1.000  O
  O8       1.0000 0.18490  0.91900  0.88399  Biso   1.000  O
  O9       1.0000 0.61730  0.47546  0.26086  Biso   1.000  O
  O10      1.0000 0.88270  0.97546  0.23914  Biso   1.000  O
  O11      1.0000 0.38270  0.52454  0.73914  Biso   1.000  O
  O12      1.0000 0.11730  0.02454  0.76086  Biso   1.000  O
  O13      1.0000 0.51670  0.65304  0.28102  Biso   1.000  O
  O14      1.0000 0.98330  0.15304  0.21898  Biso   1.000  O
  O15      1.0000 0.48330  0.34696  0.71898  Biso   1.000  O
  O16      1.0000 0.01670  0.84696  0.78102  Biso   1.000  O
  C1       1.0000 0.12200  0.64240  0.64650  Biso   1.000  C
  C2       1.0000 0.37800  0.14240  0.85350  Biso   1.000  C
  C3       1.0000 0.87800  0.35760  0.35350  Biso   1.000  C
  C4       1.0000 0.62200  0.85760  0.14650  Biso   1.000  C
  H1       1.0000 0.19920  0.65970  0.68590  Biso   1.000  H
  H2       1.0000 0.30080  0.15970  0.81410  Biso   1.000  H
  H3       1.0000 0.80080  0.34030  0.31410  Biso   1.000  H
  H4       1.0000 0.69920  0.84030  0.18590  Biso   1.000  H
  C5       1.0000 0.13300  0.67250  0.55526  Biso   1.000  C
  C6       1.0000 0.36700  0.17250  0.94474  Biso   1.000  C
  C7       1.0000 0.86700  0.32750  0.44474  Biso   1.000  C
  C8       1.0000 0.63300  0.82750  0.05526  Biso   1.000  C
  C9       1.0000 0.02150  0.65580  0.49331  Biso   1.000  C
  C10      1.0000 0.47850  0.15580  0.00669  Biso   1.000  C
  C11      1.0000 0.97850  0.34420  0.50669  Biso   1.000  C
  C12      1.0000 0.52150  0.84420  0.99331  Biso   1.000  C
  H5       1.0000 0.93460  0.62190  0.51010  Biso   1.000  H
  H6       1.0000 0.56540  0.12190  0.98990  Biso   1.000  H
  H7       1.0000 0.06540  0.37810  0.48990  Biso   1.000  H
  H8       1.0000 0.43460  0.87810  0.01010  Biso   1.000  H
  C13      1.0000 0.03620  0.68790  0.40860  Biso   1.000  C
  C14      1.0000 0.46380  0.18790  0.09140  Biso   1.000  C
  C15      1.0000 0.96380  0.31210  0.59140  Biso   1.000  C
  C16      1.0000 0.53620  0.81210  0.90860  Biso   1.000  C
  H9       1.0000 0.95970  0.67750  0.36720  Biso   1.000  H
  H10      1.0000 0.54030  0.17750  0.13280  Biso   1.000  H
  H11      1.0000 0.04030  0.32250  0.63280  Biso   1.000  H
  H12      1.0000 0.45970  0.82250  0.86720  Biso   1.000  H
  C17      1.0000 0.16490  0.73580  0.38474  Biso   1.000  C
  C18      1.0000 0.33510  0.23580  0.11526  Biso   1.000  C
  C19      1.0000 0.83510  0.26420  0.61526  Biso   1.000  C
  C20      1.0000 0.66490  0.76420  0.88474  Biso   1.000  C
  C21      1.0000 0.27820  0.75140  0.44360  Biso   1.000  C
  C22      1.0000 0.22180  0.25140  0.05640  Biso   1.000  C
  C23      1.0000 0.72180  0.24860  0.55640  Biso   1.000  C
  C24      1.0000 0.77820  0.74860  0.94360  Biso   1.000  C
  H13      1.0000 0.36610  0.78280  0.42590  Biso   1.000  H
  H14      1.0000 0.13390  0.28280  0.07410  Biso   1.000  H
  H15      1.0000 0.63390  0.21720  0.57410  Biso   1.000  H
  H16      1.0000 0.86610  0.71720  0.92590  Biso   1.000  H
  C25      1.0000 0.26080  0.72010  0.52900  Biso   1.000  C
  C26      1.0000 0.23920  0.22010  0.97100  Biso   1.000  C
  C27      1.0000 0.73920  0.27990  0.47100  Biso   1.000  C
  C28      1.0000 0.76080  0.77990  0.02900  Biso   1.000  C
  H17      1.0000 0.33730  0.73120  0.57030  Biso   1.000  H
  H18      1.0000 0.16270  0.23120  0.92970  Biso   1.000  H
  H19      1.0000 0.66270  0.26880  0.42970  Biso   1.000  H
  H20      1.0000 0.83730  0.76880  0.07030  Biso   1.000  H
  C29      1.0000 0.10300  0.61050  0.82969  Biso   1.000  C
  C30      1.0000 0.39700  0.11050  0.67031  Biso   1.000  C
  C31      1.0000 0.89700  0.38950  0.17031  Biso   1.000  C
  C32      1.0000 0.60300  0.88950  0.32969  Biso   1.000  C
  H21      1.0000 0.17880  0.66270  0.82370  Biso   1.000  H
  H22      1.0000 0.32120  0.16270  0.67630  Biso   1.000  H
  H23      1.0000 0.82120  0.33730  0.17630  Biso   1.000  H
  H24      1.0000 0.67880  0.83730  0.32370  Biso   1.000  H
  C33      1.0000 0.92500  0.50000  0.80020  Biso   1.000  C
  C34      1.0000 0.57500  0.00000  0.69980  Biso   1.000  C
  C35      1.0000 0.07500  0.50000  0.19980  Biso   1.000  C
  C36      1.0000 0.42500  0.00000  0.30020  Biso   1.000  C
  H25      1.0000 0.85140  0.46020  0.76950  Biso   1.000  H
  H26      1.0000 0.64860  0.96020  0.73050  Biso   1.000  H
  H27      1.0000 0.14860  0.53980  0.23050  Biso   1.000  H
  H28      1.0000 0.35140  0.03980  0.26950  Biso   1.000  H
  N17      1.0000 0.15540  0.75090  0.05435  Biso   1.000  N
  N18      1.0000 0.34460  0.25090  0.44565  Biso   1.000  N
  N19      1.0000 0.84460  0.24910  0.94565  Biso   1.000  N
  N20      1.0000 0.65540  0.74910  0.55435  Biso   1.000  N
  C37      1.0000 0.15710  0.84400  0.06900  Biso   1.000  C
  C38      1.0000 0.34290  0.34400  0.43100  Biso   1.000  C
  C39      1.0000 0.84290  0.15600  0.93100  Biso   1.000  C
  C40      1.0000 0.65710  0.65600  0.56900  Biso   1.000  C
  C41      1.0000 0.16030  0.96300  0.08880  Biso   1.000  C
  C42      1.0000 0.33970  0.46300  0.41120  Biso   1.000  C
  C43      1.0000 0.83970  0.03700  0.91120  Biso   1.000  C
  C44      1.0000 0.66030  0.53700  0.58880  Biso   1.000  C
  H29      1.0000 0.10760  0.97690  0.14150  Biso   1.000  H
  H30      1.0000 0.39240  0.47690  0.35850  Biso   1.000  H
  H31      1.0000 0.89240  0.02310  0.85850  Biso   1.000  H
  H32      1.0000 0.60760  0.52310  0.64150  Biso   1.000  H
  H33      1.0000 0.11530  0.00470  0.04050  Biso   1.000  H
  H34      1.0000 0.38470  0.50470  0.45950  Biso   1.000  H
  H35      1.0000 0.88470  0.99530  0.95950  Biso   1.000  H
  H36      1.0000 0.61530  0.49530  0.54050  Biso   1.000  H
  H37      1.0000 0.26010  0.98740  0.09770  Biso   1.000  H
  H38      1.0000 0.23990  0.48740  0.40230  Biso   1.000  H
  H39      1.0000 0.73990  0.01260  0.90230  Biso   1.000  H
  H40      1.0000 0.76010  0.51260  0.59770  Biso   1.000  H
  N21      1.0000 0.35850  0.53540  0.01132  Biso   1.000  N
  N22      1.0000 0.14150  0.03540  0.48868  Biso   1.000  N
  N23      1.0000 0.64150  0.46460  0.98868  Biso   1.000  N
  N24      1.0000 0.85850  0.96460  0.51132  Biso   1.000  N
  C45      1.0000 0.39440  0.47270  0.94400  Biso   1.000  C
  C46      1.0000 0.10560  0.97270  0.55600  Biso   1.000  C
  C47      1.0000 0.60560  0.52730  0.05600  Biso   1.000  C
  C48      1.0000 0.89440  0.02730  0.44400  Biso   1.000  C
  H41      1.0000 0.32170  0.45160  0.90250  Biso   1.000  H
  H42      1.0000 0.17830  0.95160  0.59750  Biso   1.000  H
  H43      1.0000 0.67830  0.54840  0.09750  Biso   1.000  H
  H44      1.0000 0.82170  0.04840  0.40250  Biso   1.000  H
  C49      1.0000 0.46640  0.56270  0.06750  Biso   1.000  C
  C50      1.0000 0.03360  0.06270  0.43250  Biso   1.000  C
  C51      1.0000 0.53360  0.43730  0.93250  Biso   1.000  C
  C52      1.0000 0.96640  0.93730  0.56750  Biso   1.000  C
  H45      1.0000 0.44630  0.60750  0.11640  Biso   1.000  H
  H46      1.0000 0.05370  0.10750  0.38360  Biso   1.000  H
  H47      1.0000 0.55370  0.39250  0.88360  Biso   1.000  H
  H48      1.0000 0.94630  0.89250  0.61640  Biso   1.000  H
