data_image0
_cell_length_a       9.446
_cell_length_b       10.161
_cell_length_c       13.195
_cell_angle_alpha    79.16
_cell_angle_beta     80.02
_cell_angle_gamma    69.48

_symmetry_space_group_name_H-M    "P 1"
_symmetry_int_tables_number       1

loop_
  _symmetry_equiv_pos_as_xyz
  'x, y, z'

loop_
  _atom_site_label
  _atom_site_occupancy
  _atom_site_fract_x
  _atom_site_fract_y
  _atom_site_fract_z
  _atom_site_thermal_displace_type
  _atom_site_B_iso_or_equiv
  _atom_site_type_symbol
  Cu1      1.0000 0.44097  0.19697  0.46009  Biso   1.000  Cu
  Cu2      1.0000 0.55903  0.80303  0.53991  Biso   1.000  Cu
  Cl1      1.0000 0.48074  0.02893  0.16784  Biso   1.000  Cl
  Cl2      1.0000 0.51926  0.97107  0.83216  Biso   1.000  Cl
  N1       1.0000 0.63160  0.04620  0.39577  Biso   1.000  N
  N2       1.0000 0.36840  0.95380  0.60423  Biso   1.000  N
  N3       1.0000 0.31790  0.10028  0.57478  Biso   1.000  N
  N4       1.0000 0.68210  0.89972  0.42522  Biso   1.000  N
  C1       1.0000 0.19550  0.15270  0.63790  Biso   1.000  C
  C2       1.0000 0.80450  0.84730  0.36210  Biso   1.000  C
  H1       1.0000 0.13720  0.25050  0.63540  Biso   1.000  H
  H2       1.0000 0.86280  0.74950  0.36460  Biso   1.000  H
  N5       1.0000 0.16400  0.04650  0.70753  Biso   1.000  N
  N6       1.0000 0.83600  0.95350  0.29247  Biso   1.000  N
  C3       1.0000 0.72550  0.07510  0.31662  Biso   1.000  C
  C4       1.0000 0.27450  0.92490  0.68338  Biso   1.000  C
  H3       1.0000 0.71770  0.16740  0.28120  Biso   1.000  H
  H4       1.0000 0.28230  0.83260  0.71880  Biso   1.000  H
  N7       1.0000 0.03700  0.07490  0.78314  Biso   1.000  N
  N8       1.0000 0.96300  0.92510  0.21686  Biso   1.000  N
  C5       1.0000 0.01550  0.96600  0.84166  Biso   1.000  C
  C6       1.0000 0.98450  0.03400  0.15834  Biso   1.000  C
  H5       1.0000 0.08370  0.87360  0.83250  Biso   1.000  H
  H6       1.0000 0.91630  0.12640  0.16750  Biso   1.000  H
  C7       1.0000 0.88520  0.98440  0.92275  Biso   1.000  C
  C8       1.0000 0.11480  0.01560  0.07725  Biso   1.000  C
  C9       1.0000 0.79180  0.11840  0.94629  Biso   1.000  C
  C10      1.0000 0.20820  0.88160  0.05371  Biso   1.000  C
  H7       1.0000 0.81350  0.20050  0.91000  Biso   1.000  H
  H8       1.0000 0.18650  0.79950  0.09000  Biso   1.000  H
  C11      1.0000 0.66780  0.13280  0.02219  Biso   1.000  C
  C12      1.0000 0.33220  0.86720  0.97781  Biso   1.000  C
  H9       1.0000 0.60380  0.22380  0.03820  Biso   1.000  H
  H10      1.0000 0.39620  0.77620  0.96180  Biso   1.000  H
  C13      1.0000 0.63950  0.01040  0.07425  Biso   1.000  C
  C14      1.0000 0.36050  0.98960  0.92575  Biso   1.000  C
  C15      1.0000 0.73180  0.87610  0.05497  Biso   1.000  C
  C16      1.0000 0.26820  0.12390  0.94503  Biso   1.000  C
  H11      1.0000 0.71080  0.79430  0.09260  Biso   1.000  H
  H12      1.0000 0.28920  0.20570  0.90740  Biso   1.000  H
  C17      1.0000 0.85600  0.86350  0.97930  Biso   1.000  C
  C18      1.0000 0.14400  0.13650  0.02070  Biso   1.000  C
  H13      1.0000 0.92190  0.77200  0.96570  Biso   1.000  H
  H14      1.0000 0.07810  0.22800  0.03430  Biso   1.000  H
  N9       1.0000 0.54370  0.28916  0.53806  Biso   1.000  N
  N10      1.0000 0.45630  0.71084  0.46194  Biso   1.000  N
  C19      1.0000 0.64720  0.35130  0.49111  Biso   1.000  C
  C20      1.0000 0.35280  0.64870  0.50889  Biso   1.000  C
  H15      1.0000 0.65270  0.37820  0.41800  Biso   1.000  H
  H16      1.0000 0.34730  0.62180  0.58200  Biso   1.000  H
  C21      1.0000 0.74660  0.37820  0.54489  Biso   1.000  C
  C22      1.0000 0.25340  0.62180  0.45511  Biso   1.000  C
  C23      1.0000 0.73840  0.33970  0.65200  Biso   1.000  C
  C24      1.0000 0.26160  0.66030  0.34800  Biso   1.000  C
  H17      1.0000 0.80690  0.35370  0.69050  Biso   1.000  H
  H18      1.0000 0.19310  0.64630  0.30950  Biso   1.000  H
  C25      1.0000 0.62910  0.28100  0.70120  Biso   1.000  C
  C26      1.0000 0.37090  0.71900  0.29880  Biso   1.000  C
  H19      1.0000 0.61930  0.25580  0.77460  Biso   1.000  H
  H20      1.0000 0.38070  0.74420  0.22540  Biso   1.000  H
  C27      1.0000 0.53340  0.25910  0.64190  Biso   1.000  C
  C28      1.0000 0.46660  0.74090  0.35810  Biso   1.000  C
  H21      1.0000 0.45670  0.22080  0.67680  Biso   1.000  H
  H22      1.0000 0.54330  0.77920  0.32320  Biso   1.000  H
  C29      1.0000 0.85300  0.45010  0.48740  Biso   1.000  C
  C30      1.0000 0.14700  0.54990  0.51260  Biso   1.000  C
  H23      1.0000 0.84550  0.48760  0.41620  Biso   1.000  H
  H24      1.0000 0.15450  0.51240  0.58380  Biso   1.000  H
  N11      1.0000 0.95640  0.46210  0.53348  Biso   1.000  N
  N12      1.0000 0.04360  0.53790  0.46652  Biso   1.000  N
  N13      1.0000 0.32580  0.28060  0.33630  Biso   1.000  N
  N14      1.0000 0.67420  0.71940  0.66370  Biso   1.000  N
  C31      1.0000 0.36810  0.35270  0.25110  Biso   1.000  C
  C32      1.0000 0.63190  0.64730  0.74890  Biso   1.000  C
  H25      1.0000 0.46210  0.36890  0.24770  Biso   1.000  H
  H26      1.0000 0.53790  0.63110  0.75230  Biso   1.000  H
  C33      1.0000 0.28670  0.41000  0.16210  Biso   1.000  C
  C34      1.0000 0.71330  0.59000  0.83790  Biso   1.000  C
  C35      1.0000 0.13920  0.39360  0.17670  Biso   1.000  C
  C36      1.0000 0.86080  0.60640  0.82330  Biso   1.000  C
  H27      1.0000 0.07170  0.43740  0.12520  Biso   1.000  H
  H28      1.0000 0.92830  0.56260  0.87480  Biso   1.000  H
  C37      1.0000 0.09570  0.31410  0.26550  Biso   1.000  C
  C38      1.0000 0.90430  0.68590  0.73450  Biso   1.000  C
  H29      1.0000 0.00210  0.29610  0.27260  Biso   1.000  H
  H30      1.0000 0.99790  0.70390  0.72740  Biso   1.000  H
  C39      1.0000 0.18760  0.26140  0.34310  Biso   1.000  C
  C40      1.0000 0.81240  0.73860  0.65690  Biso   1.000  C
  H31      1.0000 0.15430  0.20920  0.40440  Biso   1.000  H
  H32      1.0000 0.84570  0.79080  0.59560  Biso   1.000  H
  C41      1.0000 0.33940  0.48160  0.06940  Biso   1.000  C
  C42      1.0000 0.66060  0.51840  0.93060  Biso   1.000  C
  H33      1.0000 0.27020  0.54270  0.02280  Biso   1.000  H
  H34      1.0000 0.72980  0.45730  0.97720  Biso   1.000  H
  N15      1.0000 0.48250  0.46320  0.04880  Biso   1.000  N
  N16      1.0000 0.51750  0.53680  0.95120  Biso   1.000  N
  Cl3      1.0000 0.69820  0.49007  0.15331  Biso   1.000  Cl
  Cl4      1.0000 0.30180  0.50993  0.84669  Biso   1.000  Cl
  O1       1.0000 0.58480  0.59260  0.09360  Biso   1.000  O
  O2       1.0000 0.41520  0.40740  0.90640  Biso   1.000  O
  O3       1.0000 0.75540  0.56010  0.21090  Biso   1.000  O
  O4       1.0000 0.24460  0.43990  0.78910  Biso   1.000  O
  O5       1.0000 0.81970  0.40550  0.08600  Biso   1.000  O
  O6       1.0000 0.18030  0.59450  0.91400  Biso   1.000  O
  O7       1.0000 0.62770  0.39830  0.22470  Biso   1.000  O
  O8       1.0000 0.37230  0.60170  0.77530  Biso   1.000  O
  N17      1.0000 0.01400  0.95040  0.53830  Biso   1.000  N
  N18      1.0000 0.98600  0.04960  0.46170  Biso   1.000  N
  C43      1.0000 0.07280  0.99890  0.46830  Biso   1.000  C
  C44      1.0000 0.92720  0.00110  0.53170  Biso   1.000  C
  C45      1.0000 0.15920  0.05460  0.37990  Biso   1.000  C
  C46      1.0000 0.84080  0.94540  0.62010  Biso   1.000  C
  H35      1.0000 0.21520  0.97970  0.33670  Biso   1.000  H
  H36      1.0000 0.78480  0.02030  0.66330  Biso   1.000  H
  H37      1.0000 0.23130  0.08800  0.40420  Biso   1.000  H
  H38      1.0000 0.76870  0.91200  0.59580  Biso   1.000  H
  H39      1.0000 0.08970  0.13370  0.33890  Biso   1.000  H
  H40      1.0000 0.91030  0.86630  0.66110  Biso   1.000  H
  N19      1.0000 0.33820  0.31100  0.34050  Biso   1.000  N
  N20      1.0000 0.66180  0.68900  0.65950  Biso   1.000  N
  C47      1.0000 0.30830  0.37060  0.25880  Biso   1.000  C
  C48      1.0000 0.69170  0.62940  0.74120  Biso   1.000  C
  C49      1.0000 0.26670  0.44570  0.15980  Biso   1.000  C
  C50      1.0000 0.73330  0.55430  0.84020  Biso   1.000  C
  H41      1.0000 0.22080  0.54740  0.16460  Biso   1.000  H
  H42      1.0000 0.77920  0.45260  0.83540  Biso   1.000  H
  H43      1.0000 0.19310  0.41170  0.13800  Biso   1.000  H
  H44      1.0000 0.80690  0.58830  0.86200  Biso   1.000  H
  H45      1.0000 0.35750  0.42970  0.10870  Biso   1.000  H
  H46      1.0000 0.64250  0.57030  0.89130  Biso   1.000  H
  Cl5      1.0000 0.85964  0.44422  0.19581  Biso   1.000  Cl
  Cl6      1.0000 0.14036  0.55578  0.80419  Biso   1.000  Cl
  O9       1.0000 0.81450  0.56990  0.23930  Biso   1.000  O
  O10      1.0000 0.18550  0.43010  0.76070  Biso   1.000  O
  O11      1.0000 0.73810  0.38510  0.21090  Biso   1.000  O
  O12      1.0000 0.26190  0.61490  0.78910  Biso   1.000  O
  O13      1.0000 0.98210  0.33870  0.24970  Biso   1.000  O
  O14      1.0000 0.01790  0.66130  0.75030  Biso   1.000  O
  O15      1.0000 0.91080  0.46830  0.08800  Biso   1.000  O
  O16      1.0000 0.08920  0.53170  0.91200  Biso   1.000  O
