data_image0
_cell_length_a       11.146
_cell_length_b       14.818
_cell_length_c       18.532
_cell_angle_alpha    87.368
_cell_angle_beta     86.963
_cell_angle_gamma    84.992

_symmetry_space_group_name_H-M    "P 1"
_symmetry_int_tables_number       1

loop_
  _symmetry_equiv_pos_as_xyz
  'x, y, z'

loop_
  _atom_site_label
  _atom_site_occupancy
  _atom_site_fract_x
  _atom_site_fract_y
  _atom_site_fract_z
  _atom_site_thermal_displace_type
  _atom_site_B_iso_or_equiv
  _atom_site_type_symbol
  Cu1      1.0000 0.27700  0.57866  0.24838  Biso   1.000  Cu
  Cu2      1.0000 0.72300  0.42134  0.75162  Biso   1.000  Cu
  Cu3      1.0000 0.04993  0.81487  0.24358  Biso   1.000  Cu
  Cu4      1.0000 0.95007  0.18513  0.75642  Biso   1.000  Cu
  N1       1.0000 0.40040  0.46050  0.25600  Biso   1.000  N
  N2       1.0000 0.59960  0.53950  0.74400  Biso   1.000  N
  N3       1.0000 0.95420  0.94020  0.24490  Biso   1.000  N
  N4       1.0000 0.04580  0.05980  0.75510  Biso   1.000  N
  N5       1.0000 0.38950  0.68140  0.24180  Biso   1.000  N
  N6       1.0000 0.61050  0.31860  0.75820  Biso   1.000  N
  P1       1.0000 0.18562  0.56636  0.14230  Biso   1.000  P
  P2       1.0000 0.81438  0.43364  0.85770  Biso   1.000  P
  P3       1.0000 0.18580  0.57121  0.36125  Biso   1.000  P
  P4       1.0000 0.81420  0.42879  0.63875  Biso   1.000  P
  P5       1.0000 0.06244  0.76465  0.13110  Biso   1.000  P
  P6       1.0000 0.93756  0.23535  0.86890  Biso   1.000  P
  P7       1.0000 0.05932  0.76720  0.36037  Biso   1.000  P
  P8       1.0000 0.94068  0.23280  0.63963  Biso   1.000  P
  C1       1.0000 0.36100  0.37700  0.26110  Biso   1.000  C
  C2       1.0000 0.63900  0.62300  0.73890  Biso   1.000  C
  H1       1.0000 0.27790  0.37350  0.26390  Biso   1.000  H
  H2       1.0000 0.72210  0.62650  0.73610  Biso   1.000  H
  C3       1.0000 0.43100  0.29740  0.26250  Biso   1.000  C
  C4       1.0000 0.56900  0.70260  0.73750  Biso   1.000  C
  H3       1.0000 0.39650  0.24230  0.26600  Biso   1.000  H
  H4       1.0000 0.60350  0.75770  0.73400  Biso   1.000  H
  C5       1.0000 0.55180  0.29970  0.25860  Biso   1.000  C
  C6       1.0000 0.44820  0.70030  0.74140  Biso   1.000  C
  C7       1.0000 0.60050  0.38360  0.25430  Biso   1.000  C
  C8       1.0000 0.39950  0.61640  0.74570  Biso   1.000  C
  H5       1.0000 0.68350  0.38720  0.25250  Biso   1.000  H
  H6       1.0000 0.31650  0.61280  0.74750  Biso   1.000  H
  C9       1.0000 0.52010  0.46300  0.25280  Biso   1.000  C
  C10      1.0000 0.47990  0.53700  0.74720  Biso   1.000  C
  H7       1.0000 0.55180  0.51910  0.24940  Biso   1.000  H
  H8       1.0000 0.44820  0.48090  0.75060  Biso   1.000  H
  C11      1.0000 0.83530  0.94430  0.24250  Biso   1.000  C
  C12      1.0000 0.16470  0.05570  0.75750  Biso   1.000  C
  H9       1.0000 0.79950  0.89070  0.23740  Biso   1.000  H
  H10      1.0000 0.20050  0.10930  0.76260  Biso   1.000  H
  C13      1.0000 0.76220  0.02340  0.24710  Biso   1.000  C
  C14      1.0000 0.23780  0.97660  0.75290  Biso   1.000  C
  H11      1.0000 0.67890  0.02260  0.24620  Biso   1.000  H
  H12      1.0000 0.32110  0.97740  0.75380  Biso   1.000  H
  C15      1.0000 0.81220  0.10320  0.25300  Biso   1.000  C
  C16      1.0000 0.18780  0.89680  0.74700  Biso   1.000  C
  C17      1.0000 0.93410  0.10020  0.25360  Biso   1.000  C
  C18      1.0000 0.06590  0.89980  0.74640  Biso   1.000  C
  H13      1.0000 0.97180  0.15330  0.25710  Biso   1.000  H
  H14      1.0000 0.02820  0.84670  0.74290  Biso   1.000  H
  C19      1.0000 0.00070  0.01970  0.24910  Biso   1.000  C
  C20      1.0000 0.99930  0.98030  0.75090  Biso   1.000  C
  H15      1.0000 0.08410  0.01970  0.24900  Biso   1.000  H
  H16      1.0000 0.91590  0.98030  0.75100  Biso   1.000  H
  C21      1.0000 0.62560  0.20970  0.25780  Biso   1.000  C
  C22      1.0000 0.37440  0.79030  0.74220  Biso   1.000  C
  H17      1.0000 0.58280  0.15840  0.25910  Biso   1.000  H
  H18      1.0000 0.41720  0.84160  0.74090  Biso   1.000  H
  C23      1.0000 0.73800  0.19610  0.25550  Biso   1.000  C
  C24      1.0000 0.26200  0.80390  0.74450  Biso   1.000  C
  H19      1.0000 0.78120  0.24710  0.25530  Biso   1.000  H
  H20      1.0000 0.21880  0.75290  0.74470  Biso   1.000  H
  C25      1.0000 0.05430  0.64220  0.12000  Biso   1.000  C
  C26      1.0000 0.94570  0.35780  0.88000  Biso   1.000  C
  H21      1.0000 0.98590  0.62320  0.14960  Biso   1.000  H
  H22      1.0000 0.01410  0.37680  0.85040  Biso   1.000  H
  H23      1.0000 0.03760  0.63370  0.07000  Biso   1.000  H
  H24      1.0000 0.96240  0.36630  0.93000  Biso   1.000  H
  C27      1.0000 0.13180  0.45410  0.13320  Biso   1.000  C
  C28      1.0000 0.86820  0.54590  0.86680  Biso   1.000  C
  C29      1.0000 0.01270  0.43780  0.14290  Biso   1.000  C
  C30      1.0000 0.98730  0.56220  0.85710  Biso   1.000  C
  H25      1.0000 0.95480  0.48560  0.15160  Biso   1.000  H
  H26      1.0000 0.04520  0.51440  0.84840  Biso   1.000  H
  C31      1.0000 0.97800  0.35010  0.13970  Biso   1.000  C
  C32      1.0000 0.02200  0.64990  0.86030  Biso   1.000  C
  H27      1.0000 0.89730  0.33960  0.14800  Biso   1.000  H
  H28      1.0000 0.10270  0.66040  0.85200  Biso   1.000  H
  C33      1.0000 0.06150  0.27890  0.12440  Biso   1.000  C
  C34      1.0000 0.93850  0.72110  0.87560  Biso   1.000  C
  H29      1.0000 0.03870  0.22030  0.12130  Biso   1.000  H
  H30      1.0000 0.96130  0.77970  0.87870  Biso   1.000  H
  C35      1.0000 0.18020  0.29740  0.11400  Biso   1.000  C
  C36      1.0000 0.81980  0.70260  0.88600  Biso   1.000  C
  H31      1.0000 0.23850  0.25020  0.10410  Biso   1.000  H
  H32      1.0000 0.76150  0.74980  0.89590  Biso   1.000  H
  C37      1.0000 0.21420  0.38220  0.11760  Biso   1.000  C
  C38      1.0000 0.78580  0.61780  0.88240  Biso   1.000  C
  H33      1.0000 0.29510  0.39230  0.10930  Biso   1.000  H
  H34      1.0000 0.70490  0.60770  0.89070  Biso   1.000  H
  C39      1.0000 0.28290  0.57340  0.06090  Biso   1.000  C
  C40      1.0000 0.71710  0.42660  0.93910  Biso   1.000  C
  C41      1.0000 0.39660  0.60860  0.06350  Biso   1.000  C
  C42      1.0000 0.60340  0.39140  0.93650  Biso   1.000  C
  H35      1.0000 0.42340  0.62360  0.10770  Biso   1.000  H
  H36      1.0000 0.57660  0.37640  0.89230  Biso   1.000  H
  C43      1.0000 0.46750  0.62070  0.00200  Biso   1.000  C
  C44      1.0000 0.53250  0.37930  0.99800  Biso   1.000  C
  H37      1.0000 0.53890  0.64820  0.00460  Biso   1.000  H
  H38      1.0000 0.46110  0.35180  0.99540  Biso   1.000  H
  C45      1.0000 0.43570  0.59340  0.93700  Biso   1.000  C
  C46      1.0000 0.56430  0.40660  0.06300  Biso   1.000  C
  H39      1.0000 0.48620  0.59930  0.89570  Biso   1.000  H
  H40      1.0000 0.51380  0.40070  0.10430  Biso   1.000  H
  C47      1.0000 0.32400  0.55610  0.93410  Biso   1.000  C
  C48      1.0000 0.67600  0.44390  0.06590  Biso   1.000  C
  H41      1.0000 0.29970  0.53740  0.89040  Biso   1.000  H
  H42      1.0000 0.70030  0.46260  0.10960  Biso   1.000  H
  C49      1.0000 0.25200  0.54730  0.99470  Biso   1.000  C
  C50      1.0000 0.74800  0.45270  0.00530  Biso   1.000  C
  H43      1.0000 0.17870  0.52260  0.99140  Biso   1.000  H
  H44      1.0000 0.82130  0.47740  0.00860  Biso   1.000  H
  C51      1.0000 0.18550  0.79850  0.07090  Biso   1.000  C
  C52      1.0000 0.81450  0.20150  0.92910  Biso   1.000  C
  C53      1.0000 0.19130  0.78240  0.99660  Biso   1.000  C
  C54      1.0000 0.80870  0.21760  0.00340  Biso   1.000  C
  H45      1.0000 0.13230  0.75140  0.97720  Biso   1.000  H
  H46      1.0000 0.86770  0.24860  0.02280  Biso   1.000  H
  C55      1.0000 0.28410  0.81230  0.95260  Biso   1.000  C
  C56      1.0000 0.71590  0.18770  0.04740  Biso   1.000  C
  H47      1.0000 0.28650  0.80260  0.90330  Biso   1.000  H
  H48      1.0000 0.71350  0.19740  0.09670  Biso   1.000  H
  C57      1.0000 0.37390  0.85670  0.98090  Biso   1.000  C
  C58      1.0000 0.62610  0.14330  0.01910  Biso   1.000  C
  H49      1.0000 0.43740  0.87560  0.95110  Biso   1.000  H
  H50      1.0000 0.56260  0.12440  0.04890  Biso   1.000  H
  C59      1.0000 0.36850  0.87290  0.05390  Biso   1.000  C
  C60      1.0000 0.63150  0.12710  0.94610  Biso   1.000  C
  H51      1.0000 0.42830  0.90310  0.07330  Biso   1.000  H
  H52      1.0000 0.57170  0.09690  0.92670  Biso   1.000  H
  C61      1.0000 0.27570  0.84470  0.09740  Biso   1.000  C
  C62      1.0000 0.72430  0.15530  0.90260  Biso   1.000  C
  H53      1.0000 0.27260  0.85680  0.14630  Biso   1.000  H
  H54      1.0000 0.72740  0.14320  0.85370  Biso   1.000  H
  C63      1.0000 0.92780  0.81260  0.08530  Biso   1.000  C
  C64      1.0000 0.07220  0.18740  0.91470  Biso   1.000  C
  C65      1.0000 0.82720  0.77030  0.08190  Biso   1.000  C
  C66      1.0000 0.17280  0.22970  0.91810  Biso   1.000  C
  H55      1.0000 0.82640  0.71070  0.10010  Biso   1.000  H
  H56      1.0000 0.17360  0.28930  0.89990  Biso   1.000  H
  C67      1.0000 0.72430  0.81220  0.05220  Biso   1.000  C
  C68      1.0000 0.27570  0.18780  0.94780  Biso   1.000  C
  H57      1.0000 0.65400  0.78240  0.05400  Biso   1.000  H
  H58      1.0000 0.34600  0.21760  0.94600  Biso   1.000  H
  C69      1.0000 0.72560  0.89420  0.02150  Biso   1.000  C
  C70      1.0000 0.27440  0.10580  0.97850  Biso   1.000  C
  H59      1.0000 0.65900  0.91960  0.99720  Biso   1.000  H
  H60      1.0000 0.34100  0.08040  0.00280  Biso   1.000  H
  C71      1.0000 0.82540  0.94210  0.02520  Biso   1.000  C
  C72      1.0000 0.17460  0.05790  0.97480  Biso   1.000  C
  H61      1.0000 0.82380  0.00210  0.00790  Biso   1.000  H
  H62      1.0000 0.17620  0.99790  0.99210  Biso   1.000  H
  C73      1.0000 0.92700  0.90020  0.05470  Biso   1.000  C
  C74      1.0000 0.07300  0.09980  0.94530  Biso   1.000  C
  H63      1.0000 0.99640  0.93080  0.05420  Biso   1.000  H
  H64      1.0000 0.00360  0.06920  0.94580  Biso   1.000  H
  C75      1.0000 0.05000  0.64570  0.38670  Biso   1.000  C
  C76      1.0000 0.95000  0.35430  0.61330  Biso   1.000  C
  H65      1.0000 0.03530  0.64000  0.43880  Biso   1.000  H
  H66      1.0000 0.96470  0.36000  0.56120  Biso   1.000  H
  H67      1.0000 0.98130  0.62450  0.36450  Biso   1.000  H
  H68      1.0000 0.01870  0.37550  0.63550  Biso   1.000  H
  C77      1.0000 0.13000  0.45930  0.37660  Biso   1.000  C
  C78      1.0000 0.87000  0.54070  0.62340  Biso   1.000  C
  C79      1.0000 0.02970  0.43850  0.34440  Biso   1.000  C
  C80      1.0000 0.97030  0.56150  0.65560  Biso   1.000  C
  H69      1.0000 0.98230  0.48430  0.32080  Biso   1.000  H
  H70      1.0000 0.01770  0.51570  0.67920  Biso   1.000  H
  C81      1.0000 0.99670  0.35020  0.34600  Biso   1.000  C
  C82      1.0000 0.00330  0.64980  0.65400  Biso   1.000  C
  H71      1.0000 0.92740  0.33810  0.32360  Biso   1.000  H
  H72      1.0000 0.07260  0.66190  0.67640  Biso   1.000  H
  C83      1.0000 0.06290  0.28150  0.37930  Biso   1.000  C
  C84      1.0000 0.93710  0.71850  0.62070  Biso   1.000  C
  H73      1.0000 0.04160  0.22220  0.37880  Biso   1.000  H
  H74      1.0000 0.95840  0.77780  0.62120  Biso   1.000  H
  C85      1.0000 0.16060  0.30100  0.41330  Biso   1.000  C
  C86      1.0000 0.83940  0.69900  0.58670  Biso   1.000  C
  H75      1.0000 0.20650  0.25470  0.43720  Biso   1.000  H
  H76      1.0000 0.79350  0.74530  0.56280  Biso   1.000  H
  C87      1.0000 0.19400  0.38870  0.41330  Biso   1.000  C
  C88      1.0000 0.80600  0.61130  0.58670  Biso   1.000  C
  H77      1.0000 0.26060  0.40050  0.43830  Biso   1.000  H
  H78      1.0000 0.73940  0.59950  0.56170  Biso   1.000  H
  C89      1.0000 0.28270  0.57880  0.43520  Biso   1.000  C
  C90      1.0000 0.71730  0.42120  0.56480  Biso   1.000  C
  C91      1.0000 0.24840  0.56000  0.50790  Biso   1.000  C
  C92      1.0000 0.75160  0.44000  0.49210  Biso   1.000  C
  H79      1.0000 0.17260  0.53980  0.51880  Biso   1.000  H
  H80      1.0000 0.82740  0.46020  0.48120  Biso   1.000  H
  C93      1.0000 0.32130  0.57000  0.56320  Biso   1.000  C
  C94      1.0000 0.67870  0.43000  0.43680  Biso   1.000  C
  H81      1.0000 0.29540  0.55520  0.61050  Biso   1.000  H
  H82      1.0000 0.70460  0.44480  0.38950  Biso   1.000  H
  C95      1.0000 0.43280  0.60160  0.54950  Biso   1.000  C
  C96      1.0000 0.56720  0.39840  0.45050  Biso   1.000  C
  H83      1.0000 0.48180  0.61060  0.58720  Biso   1.000  H
  H84      1.0000 0.51820  0.38940  0.41280  Biso   1.000  H
  C97      1.0000 0.46990  0.61950  0.47970  Biso   1.000  C
  C98      1.0000 0.53010  0.38050  0.52030  Biso   1.000  C
  H85      1.0000 0.54560  0.64020  0.46950  Biso   1.000  H
  H86      1.0000 0.45440  0.35980  0.53050  Biso   1.000  H
  C99      1.0000 0.39620  0.60740  0.42330  Biso   1.000  C
  C100     1.0000 0.60380  0.39260  0.57670  Biso   1.000  C
  H87      1.0000 0.42470  0.61900  0.37600  Biso   1.000  H
  H88      1.0000 0.57530  0.38100  0.62400  Biso   1.000  H
  C101     1.0000 0.18170  0.80270  0.41070  Biso   1.000  C
  C102     1.0000 0.81830  0.19730  0.58930  Biso   1.000  C
  C103     1.0000 0.18800  0.78390  0.48650  Biso   1.000  C
  C104     1.0000 0.81200  0.21610  0.51350  Biso   1.000  C
  H89      1.0000 0.12930  0.75230  0.51160  Biso   1.000  H
  H90      1.0000 0.87070  0.24770  0.48840  Biso   1.000  H
  C105     1.0000 0.28200  0.81280  0.52250  Biso   1.000  C
  C106     1.0000 0.71800  0.18720  0.47750  Biso   1.000  C
  H91      1.0000 0.28810  0.79870  0.57170  Biso   1.000  H
  H92      1.0000 0.71190  0.20130  0.42830  Biso   1.000  H
  C107     1.0000 0.36470  0.86130  0.48710  Biso   1.000  C
  C108     1.0000 0.63530  0.13870  0.51290  Biso   1.000  C
  H93      1.0000 0.42710  0.88080  0.51210  Biso   1.000  H
  H94      1.0000 0.57290  0.11920  0.48790  Biso   1.000  H
  C109     1.0000 0.35830  0.88220  0.41500  Biso   1.000  C
  C110     1.0000 0.64170  0.11780  0.58500  Biso   1.000  C
  H95      1.0000 0.41670  0.91540  0.39110  Biso   1.000  H
  H96      1.0000 0.58330  0.08460  0.60890  Biso   1.000  H
  C111     1.0000 0.26440  0.85400  0.37680  Biso   1.000  C
  C112     1.0000 0.73560  0.14600  0.62320  Biso   1.000  C
  H97      1.0000 0.25850  0.87050  0.32800  Biso   1.000  H
  H98      1.0000 0.74150  0.12950  0.67200  Biso   1.000  H
  C113     1.0000 0.92360  0.81990  0.40610  Biso   1.000  C
  C114     1.0000 0.07640  0.18010  0.59390  Biso   1.000  C
  C115     1.0000 0.92590  0.89760  0.44310  Biso   1.000  C
  C116     1.0000 0.07410  0.10240  0.55690  Biso   1.000  C
  H99      1.0000 0.99900  0.92160  0.44880  Biso   1.000  H
  H100     1.0000 0.00100  0.07840  0.55120  Biso   1.000  H
  C117     1.0000 0.81950  0.94100  0.47210  Biso   1.000  C
  C118     1.0000 0.18050  0.05900  0.52790  Biso   1.000  C
  H101     1.0000 0.82220  0.99440  0.49630  Biso   1.000  H
  H102     1.0000 0.17780  0.00560  0.50370  Biso   1.000  H
  C119     1.0000 0.71100  0.90620  0.46540  Biso   1.000  C
  C120     1.0000 0.28900  0.09380  0.53460  Biso   1.000  C
  H103     1.0000 0.64020  0.93540  0.48490  Biso   1.000  H
  H104     1.0000 0.35980  0.06460  0.51510  Biso   1.000  H
  C121     1.0000 0.70830  0.82730  0.42940  Biso   1.000  C
  C122     1.0000 0.29170  0.17270  0.57060  Biso   1.000  C
  H105     1.0000 0.63500  0.80310  0.42470  Biso   1.000  H
  H106     1.0000 0.36500  0.19690  0.57530  Biso   1.000  H
  C123     1.0000 0.81080  0.78430  0.40070  Biso   1.000  C
  C124     1.0000 0.18920  0.21570  0.59930  Biso   1.000  C
  H107     1.0000 0.80700  0.73060  0.37700  Biso   1.000  H
  H108     1.0000 0.19300  0.26940  0.62300  Biso   1.000  H
  C125     1.0000 0.45180  0.73610  0.23850  Biso   1.000  C
  C126     1.0000 0.54820  0.26390  0.76150  Biso   1.000  C
  C127     1.0000 0.53430  0.80840  0.23550  Biso   1.000  C
  C128     1.0000 0.46570  0.19160  0.76450  Biso   1.000  C
  H109     1.0000 0.59450  0.79790  0.19710  Biso   1.000  H
  H110     1.0000 0.40550  0.20210  0.80290  Biso   1.000  H
  H111     1.0000 0.57270  0.80860  0.28060  Biso   1.000  H
  H112     1.0000 0.42730  0.19140  0.71940  Biso   1.000  H
  H113     1.0000 0.48970  0.86590  0.22670  Biso   1.000  H
  H114     1.0000 0.51030  0.13410  0.77330  Biso   1.000  H
  B1       1.0000 0.75660  0.61290  0.25370  Biso   1.000  B
  B2       1.0000 0.24340  0.38710  0.74630  Biso   1.000  B
  F1       1.0000 0.85100  0.67140  0.25100  Biso   1.000  F
  F2       1.0000 0.14900  0.32860  0.74900  Biso   1.000  F
  F3       1.0000 0.67890  0.63180  0.31010  Biso   1.000  F
  F4       1.0000 0.32110  0.36820  0.68990  Biso   1.000  F
  F5       1.0000 0.69880  0.62320  0.19210  Biso   1.000  F
  F6       1.0000 0.30120  0.37680  0.80790  Biso   1.000  F
  F7       1.0000 0.79950  0.52140  0.25980  Biso   1.000  F
  F8       1.0000 0.20050  0.47860  0.74020  Biso   1.000  F
  B3       1.0000 0.36760  0.04520  0.22810  Biso   1.000  B
  B4       1.0000 0.63240  0.95480  0.77190  Biso   1.000  B
  F9       1.0000 0.43660  0.04760  0.28250  Biso   1.000  F
  F10      1.0000 0.56340  0.95240  0.71750  Biso   1.000  F
  F11      1.0000 0.28430  0.11650  0.24080  Biso   1.000  F
  F12      1.0000 0.71570  0.88350  0.75920  Biso   1.000  F
  F13      1.0000 0.30610  0.97110  0.22620  Biso   1.000  F
  F14      1.0000 0.69390  0.02890  0.77380  Biso   1.000  F
  F15      1.0000 0.42470  0.07030  0.17070  Biso   1.000  F
  F16      1.0000 0.57530  0.92970  0.82930  Biso   1.000  F
