data_image0
_cell_length_a       20.591
_cell_length_b       14.688
_cell_length_c       19.33
_cell_angle_alpha    90
_cell_angle_beta     95.002
_cell_angle_gamma    90

_symmetry_space_group_name_H-M    "P 1"
_symmetry_int_tables_number       1

loop_
  _symmetry_equiv_pos_as_xyz
  'x, y, z'

loop_
  _atom_site_label
  _atom_site_occupancy
  _atom_site_fract_x
  _atom_site_fract_y
  _atom_site_fract_z
  _atom_site_thermal_displace_type
  _atom_site_B_iso_or_equiv
  _atom_site_type_symbol
  W1       1.0000 0.32829  0.46312  0.49613  Biso   1.000  W
  W2       1.0000 0.67171  0.46312  0.00387  Biso   1.000  W
  W3       1.0000 0.82829  0.96312  0.49613  Biso   1.000  W
  W4       1.0000 0.17171  0.96312  0.00387  Biso   1.000  W
  W5       1.0000 0.67171  0.53688  0.50387  Biso   1.000  W
  W6       1.0000 0.32829  0.53688  0.99613  Biso   1.000  W
  W7       1.0000 0.17171  0.03688  0.50387  Biso   1.000  W
  W8       1.0000 0.82829  0.03688  0.99613  Biso   1.000  W
  W9       1.0000 0.15987  0.45100  0.51468  Biso   1.000  W
  W10      1.0000 0.84013  0.45100  0.98532  Biso   1.000  W
  W11      1.0000 0.65987  0.95100  0.51468  Biso   1.000  W
  W12      1.0000 0.34013  0.95100  0.98532  Biso   1.000  W
  W13      1.0000 0.84013  0.54900  0.48532  Biso   1.000  W
  W14      1.0000 0.15987  0.54900  0.01468  Biso   1.000  W
  W15      1.0000 0.34013  0.04900  0.48532  Biso   1.000  W
  W16      1.0000 0.65987  0.04900  0.01468  Biso   1.000  W
  W17      1.0000 0.21924  0.39351  0.35552  Biso   1.000  W
  W18      1.0000 0.78076  0.39351  0.14448  Biso   1.000  W
  W19      1.0000 0.71924  0.89351  0.35552  Biso   1.000  W
  W20      1.0000 0.28076  0.89351  0.14448  Biso   1.000  W
  W21      1.0000 0.78076  0.60649  0.64448  Biso   1.000  W
  W22      1.0000 0.21924  0.60649  0.85552  Biso   1.000  W
  W23      1.0000 0.28076  0.10649  0.64448  Biso   1.000  W
  W24      1.0000 0.71924  0.10649  0.85552  Biso   1.000  W
  W25      1.0000 0.30265  0.18659  0.33806  Biso   1.000  W
  W26      1.0000 0.69735  0.18659  0.16194  Biso   1.000  W
  W27      1.0000 0.80265  0.68659  0.33806  Biso   1.000  W
  W28      1.0000 0.19735  0.68659  0.16194  Biso   1.000  W
  W29      1.0000 0.69735  0.81341  0.66194  Biso   1.000  W
  W30      1.0000 0.30265  0.81341  0.83806  Biso   1.000  W
  W31      1.0000 0.19735  0.31341  0.66194  Biso   1.000  W
  W32      1.0000 0.80265  0.31341  0.83806  Biso   1.000  W
  W33      1.0000 0.36418  0.31447  0.63613  Biso   1.000  W
  W34      1.0000 0.63582  0.31447  0.86387  Biso   1.000  W
  W35      1.0000 0.86418  0.81447  0.63613  Biso   1.000  W
  W36      1.0000 0.13582  0.81447  0.86387  Biso   1.000  W
  W37      1.0000 0.63582  0.68553  0.36387  Biso   1.000  W
  W38      1.0000 0.36418  0.68553  0.13613  Biso   1.000  W
  W39      1.0000 0.13582  0.18553  0.36387  Biso   1.000  W
  W40      1.0000 0.86418  0.18553  0.13613  Biso   1.000  W
  W41      1.0000 0.41698  0.26211  0.47178  Biso   1.000  W
  W42      1.0000 0.58302  0.26211  0.02822  Biso   1.000  W
  W43      1.0000 0.91698  0.76211  0.47178  Biso   1.000  W
  W44      1.0000 0.08302  0.76211  0.02822  Biso   1.000  W
  W45      1.0000 0.58302  0.73789  0.52822  Biso   1.000  W
  W46      1.0000 0.41698  0.73789  0.97178  Biso   1.000  W
  W47      1.0000 0.08302  0.23789  0.52822  Biso   1.000  W
  W48      1.0000 0.91698  0.23789  0.97178  Biso   1.000  W
  Si1      1.0000 0.25000  0.25000  0.50000  Biso   1.000  Si
  Si2      1.0000 0.75000  0.25000  0.00000  Biso   1.000  Si
  Si3      1.0000 0.75000  0.75000  0.50000  Biso   1.000  Si
  Si4      1.0000 0.25000  0.75000  0.00000  Biso   1.000  Si
  O1       1.0000 0.36730  0.56020  0.49060  Biso   1.000  O
  O2       1.0000 0.63270  0.56020  0.00940  Biso   1.000  O
  O3       1.0000 0.86730  0.06020  0.49060  Biso   1.000  O
  O4       1.0000 0.13270  0.06020  0.00940  Biso   1.000  O
  O5       1.0000 0.63270  0.43980  0.50940  Biso   1.000  O
  O6       1.0000 0.36730  0.43980  0.99060  Biso   1.000  O
  O7       1.0000 0.13270  0.93980  0.50940  Biso   1.000  O
  O8       1.0000 0.86730  0.93980  0.99060  Biso   1.000  O
  O9       1.0000 0.11660  0.54700  0.52220  Biso   1.000  O
  O10      1.0000 0.88340  0.54700  0.97780  Biso   1.000  O
  O11      1.0000 0.61660  0.04700  0.52220  Biso   1.000  O
  O12      1.0000 0.38340  0.04700  0.97780  Biso   1.000  O
  O13      1.0000 0.88340  0.45300  0.47780  Biso   1.000  O
  O14      1.0000 0.11660  0.45300  0.02220  Biso   1.000  O
  O15      1.0000 0.38340  0.95300  0.47780  Biso   1.000  O
  O16      1.0000 0.61660  0.95300  0.02220  Biso   1.000  O
  O17      1.0000 0.20530  0.46270  0.28810  Biso   1.000  O
  O18      1.0000 0.79470  0.46270  0.21190  Biso   1.000  O
  O19      1.0000 0.70530  0.96270  0.28810  Biso   1.000  O
  O20      1.0000 0.29470  0.96270  0.21190  Biso   1.000  O
  O21      1.0000 0.79470  0.53730  0.71190  Biso   1.000  O
  O22      1.0000 0.20530  0.53730  0.78810  Biso   1.000  O
  O23      1.0000 0.29470  0.03730  0.71190  Biso   1.000  O
  O24      1.0000 0.70530  0.03730  0.78810  Biso   1.000  O
  O25      1.0000 0.33000  0.15820  0.26020  Biso   1.000  O
  O26      1.0000 0.67000  0.15820  0.23980  Biso   1.000  O
  O27      1.0000 0.83000  0.65820  0.26020  Biso   1.000  O
  O28      1.0000 0.17000  0.65820  0.23980  Biso   1.000  O
  O29      1.0000 0.67000  0.84180  0.73980  Biso   1.000  O
  O30      1.0000 0.33000  0.84180  0.76020  Biso   1.000  O
  O31      1.0000 0.17000  0.34180  0.73980  Biso   1.000  O
  O32      1.0000 0.83000  0.34180  0.76020  Biso   1.000  O
  O33      1.0000 0.41830  0.34440  0.70000  Biso   1.000  O
  O34      1.0000 0.58170  0.34440  0.80000  Biso   1.000  O
  O35      1.0000 0.91830  0.84440  0.70000  Biso   1.000  O
  O36      1.0000 0.08170  0.84440  0.80000  Biso   1.000  O
  O37      1.0000 0.58170  0.65560  0.30000  Biso   1.000  O
  O38      1.0000 0.41830  0.65560  0.20000  Biso   1.000  O
  O39      1.0000 0.08170  0.15560  0.30000  Biso   1.000  O
  O40      1.0000 0.91830  0.15560  0.20000  Biso   1.000  O
  O41      1.0000 0.49520  0.26730  0.45830  Biso   1.000  O
  O42      1.0000 0.50480  0.26730  0.04170  Biso   1.000  O
  O43      1.0000 0.99520  0.76730  0.45830  Biso   1.000  O
  O44      1.0000 0.00480  0.76730  0.04170  Biso   1.000  O
  O45      1.0000 0.50480  0.73270  0.54170  Biso   1.000  O
  O46      1.0000 0.49520  0.73270  0.95830  Biso   1.000  O
  O47      1.0000 0.00480  0.23270  0.54170  Biso   1.000  O
  O48      1.0000 0.99520  0.23270  0.95830  Biso   1.000  O
  O49      1.0000 0.37950  0.24270  0.38670  Biso   1.000  O
  O50      1.0000 0.62050  0.24270  0.11330  Biso   1.000  O
  O51      1.0000 0.87950  0.74270  0.38670  Biso   1.000  O
  O52      1.0000 0.12050  0.74270  0.11330  Biso   1.000  O
  O53      1.0000 0.62050  0.75730  0.61330  Biso   1.000  O
  O54      1.0000 0.37950  0.75730  0.88670  Biso   1.000  O
  O55      1.0000 0.12050  0.25730  0.61330  Biso   1.000  O
  O56      1.0000 0.87950  0.25730  0.88670  Biso   1.000  O
  O57      1.0000 0.17830  0.41800  0.61150  Biso   1.000  O
  O58      1.0000 0.82170  0.41800  0.88850  Biso   1.000  O
  O59      1.0000 0.67830  0.91800  0.61150  Biso   1.000  O
  O60      1.0000 0.32170  0.91800  0.88850  Biso   1.000  O
  O61      1.0000 0.82170  0.58200  0.38850  Biso   1.000  O
  O62      1.0000 0.17830  0.58200  0.11150  Biso   1.000  O
  O63      1.0000 0.32170  0.08200  0.38850  Biso   1.000  O
  O64      1.0000 0.67830  0.08200  0.11150  Biso   1.000  O
  O65      1.0000 0.24600  0.49900  0.51540  Biso   1.000  O
  O66      1.0000 0.75400  0.49900  0.98460  Biso   1.000  O
  O67      1.0000 0.74600  0.99900  0.51540  Biso   1.000  O
  O68      1.0000 0.25400  0.99900  0.98460  Biso   1.000  O
  O69      1.0000 0.75400  0.50100  0.48460  Biso   1.000  O
  O70      1.0000 0.24600  0.50100  0.01540  Biso   1.000  O
  O71      1.0000 0.25400  0.00100  0.48460  Biso   1.000  O
  O72      1.0000 0.74600  0.00100  0.01540  Biso   1.000  O
  O73      1.0000 0.28780  0.45850  0.40200  Biso   1.000  O
  O74      1.0000 0.71220  0.45850  0.09800  Biso   1.000  O
  O75      1.0000 0.78780  0.95850  0.40200  Biso   1.000  O
  O76      1.0000 0.21220  0.95850  0.09800  Biso   1.000  O
  O77      1.0000 0.71220  0.54150  0.59800  Biso   1.000  O
  O78      1.0000 0.28780  0.54150  0.90200  Biso   1.000  O
  O79      1.0000 0.21220  0.04150  0.59800  Biso   1.000  O
  O80      1.0000 0.78780  0.04150  0.90200  Biso   1.000  O
  O81      1.0000 0.23240  0.25600  0.41600  Biso   1.000  O
  O82      1.0000 0.76760  0.25600  0.08400  Biso   1.000  O
  O83      1.0000 0.73240  0.75600  0.41600  Biso   1.000  O
  O84      1.0000 0.26760  0.75600  0.08400  Biso   1.000  O
  O85      1.0000 0.76760  0.74400  0.58400  Biso   1.000  O
  O86      1.0000 0.23240  0.74400  0.91600  Biso   1.000  O
  O87      1.0000 0.26760  0.24400  0.58400  Biso   1.000  O
  O88      1.0000 0.73240  0.24400  0.91600  Biso   1.000  O
  O89      1.0000 0.27660  0.31110  0.32610  Biso   1.000  O
  O90      1.0000 0.72340  0.31110  0.17390  Biso   1.000  O
  O91      1.0000 0.77660  0.81110  0.32610  Biso   1.000  O
  O92      1.0000 0.22340  0.81110  0.17390  Biso   1.000  O
  O93      1.0000 0.72340  0.68890  0.67390  Biso   1.000  O
  O94      1.0000 0.27660  0.68890  0.82610  Biso   1.000  O
  O95      1.0000 0.22340  0.18890  0.67390  Biso   1.000  O
  O96      1.0000 0.77660  0.18890  0.82610  Biso   1.000  O
  O97      1.0000 0.39300  0.38500  0.47000  Biso   1.000  O
  O98      1.0000 0.60700  0.38500  0.03000  Biso   1.000  O
  O99      1.0000 0.89300  0.88500  0.47000  Biso   1.000  O
  O100     1.0000 0.10700  0.88500  0.03000  Biso   1.000  O
  O101     1.0000 0.60700  0.61500  0.53000  Biso   1.000  O
  O102     1.0000 0.39300  0.61500  0.97000  Biso   1.000  O
  O103     1.0000 0.10700  0.11500  0.53000  Biso   1.000  O
  O104     1.0000 0.89300  0.11500  0.97000  Biso   1.000  O
  O105     1.0000 0.42500  0.27800  0.56700  Biso   1.000  O
  O106     1.0000 0.57500  0.27800  0.93300  Biso   1.000  O
  O107     1.0000 0.92500  0.77800  0.56700  Biso   1.000  O
  O108     1.0000 0.07500  0.77800  0.93300  Biso   1.000  O
  O109     1.0000 0.57500  0.72200  0.43300  Biso   1.000  O
  O110     1.0000 0.42500  0.72200  0.06700  Biso   1.000  O
  O111     1.0000 0.07500  0.22200  0.43300  Biso   1.000  O
  O112     1.0000 0.92500  0.22200  0.06700  Biso   1.000  O
  O113     1.0000 0.16350  0.44190  0.42630  Biso   1.000  O
  O114     1.0000 0.83650  0.44190  0.07370  Biso   1.000  O
  O115     1.0000 0.66350  0.94190  0.42630  Biso   1.000  O
  O116     1.0000 0.33650  0.94190  0.07370  Biso   1.000  O
  O117     1.0000 0.83650  0.55810  0.57370  Biso   1.000  O
  O118     1.0000 0.16350  0.55810  0.92630  Biso   1.000  O
  O119     1.0000 0.33650  0.05810  0.57370  Biso   1.000  O
  O120     1.0000 0.66350  0.05810  0.92630  Biso   1.000  O
  O121     1.0000 0.30710  0.20400  0.46230  Biso   1.000  O
  O122     1.0000 0.69290  0.20400  0.03770  Biso   1.000  O
  O123     1.0000 0.80710  0.70400  0.46230  Biso   1.000  O
  O124     1.0000 0.19290  0.70400  0.03770  Biso   1.000  O
  O125     1.0000 0.69290  0.79600  0.53770  Biso   1.000  O
  O126     1.0000 0.30710  0.79600  0.96230  Biso   1.000  O
  O127     1.0000 0.19290  0.29600  0.53770  Biso   1.000  O
  O128     1.0000 0.80710  0.29600  0.96230  Biso   1.000  O
  O129     1.0000 0.24320  0.35300  0.48230  Biso   1.000  O
  O130     1.0000 0.75680  0.35300  0.01770  Biso   1.000  O
  O131     1.0000 0.74320  0.85300  0.48230  Biso   1.000  O
  O132     1.0000 0.25680  0.85300  0.01770  Biso   1.000  O
  O133     1.0000 0.75680  0.64700  0.51770  Biso   1.000  O
  O134     1.0000 0.24320  0.64700  0.98230  Biso   1.000  O
  O135     1.0000 0.25680  0.14700  0.51770  Biso   1.000  O
  O136     1.0000 0.74320  0.14700  0.98230  Biso   1.000  O
  O137     1.0000 0.28390  0.34900  0.67000  Biso   1.000  O
  O138     1.0000 0.71610  0.34900  0.83000  Biso   1.000  O
  O139     1.0000 0.78390  0.84900  0.67000  Biso   1.000  O
  O140     1.0000 0.21610  0.84900  0.83000  Biso   1.000  O
  O141     1.0000 0.71610  0.65100  0.33000  Biso   1.000  O
  O142     1.0000 0.28390  0.65100  0.17000  Biso   1.000  O
  O143     1.0000 0.21610  0.15100  0.33000  Biso   1.000  O
  O144     1.0000 0.78390  0.15100  0.17000  Biso   1.000  O
  O145     1.0000 0.31510  0.30700  0.51500  Biso   1.000  O
  O146     1.0000 0.68490  0.30700  0.98500  Biso   1.000  O
  O147     1.0000 0.81510  0.80700  0.51500  Biso   1.000  O
  O148     1.0000 0.18490  0.80700  0.98500  Biso   1.000  O
  O149     1.0000 0.68490  0.69300  0.48500  Biso   1.000  O
  O150     1.0000 0.31510  0.69300  0.01500  Biso   1.000  O
  O151     1.0000 0.18490  0.19300  0.48500  Biso   1.000  O
  O152     1.0000 0.81510  0.19300  0.01500  Biso   1.000  O
  O153     1.0000 0.35190  0.42600  0.58290  Biso   1.000  O
  O154     1.0000 0.64810  0.42600  0.91710  Biso   1.000  O
  O155     1.0000 0.85190  0.92600  0.58290  Biso   1.000  O
  O156     1.0000 0.14810  0.92600  0.91710  Biso   1.000  O
  O157     1.0000 0.64810  0.57400  0.41710  Biso   1.000  O
  O158     1.0000 0.35190  0.57400  0.08290  Biso   1.000  O
  O159     1.0000 0.14810  0.07400  0.41710  Biso   1.000  O
  O160     1.0000 0.85190  0.07400  0.08290  Biso   1.000  O
  O161     1.0000 0.14820  0.30760  0.34250  Biso   1.000  O
  O162     1.0000 0.85180  0.30760  0.15750  Biso   1.000  O
  O163     1.0000 0.64820  0.80760  0.34250  Biso   1.000  O
  O164     1.0000 0.35180  0.80760  0.15750  Biso   1.000  O
  O165     1.0000 0.85180  0.69240  0.65750  Biso   1.000  O
  O166     1.0000 0.14820  0.69240  0.84250  Biso   1.000  O
  O167     1.0000 0.35180  0.19240  0.65750  Biso   1.000  O
  O168     1.0000 0.64820  0.19240  0.84250  Biso   1.000  O
  O169     1.0000 0.09160  0.36700  0.51400  Biso   1.000  O
  O170     1.0000 0.90840  0.36700  0.98600  Biso   1.000  O
  O171     1.0000 0.59160  0.86700  0.51400  Biso   1.000  O
  O172     1.0000 0.40840  0.86700  0.98600  Biso   1.000  O
  O173     1.0000 0.90840  0.63300  0.48600  Biso   1.000  O
  O174     1.0000 0.09160  0.63300  0.01400  Biso   1.000  O
  O175     1.0000 0.40840  0.13300  0.48600  Biso   1.000  O
  O176     1.0000 0.59160  0.13300  0.01400  Biso   1.000  O
  Cu1      1.0000 0.44180  0.61190  0.62680  Biso   1.000  Cu
  Cu2      1.0000 0.55820  0.61190  0.87320  Biso   1.000  Cu
  Cu3      1.0000 0.94180  0.11190  0.62680  Biso   1.000  Cu
  Cu4      1.0000 0.05820  0.11190  0.87320  Biso   1.000  Cu
  Cu5      1.0000 0.55820  0.38810  0.37320  Biso   1.000  Cu
  Cu6      1.0000 0.44180  0.38810  0.12680  Biso   1.000  Cu
  Cu7      1.0000 0.05820  0.88810  0.37320  Biso   1.000  Cu
  Cu8      1.0000 0.94180  0.88810  0.12680  Biso   1.000  Cu
  C1       1.0000 0.60990  0.33520  0.65550  Biso   1.000  C
  C2       1.0000 0.39010  0.33520  0.84450  Biso   1.000  C
  C3       1.0000 0.10990  0.83520  0.65550  Biso   1.000  C
  C4       1.0000 0.89010  0.83520  0.84450  Biso   1.000  C
  C5       1.0000 0.39010  0.66480  0.34450  Biso   1.000  C
  C6       1.0000 0.60990  0.66480  0.15550  Biso   1.000  C
  C7       1.0000 0.89010  0.16480  0.34450  Biso   1.000  C
  C8       1.0000 0.10990  0.16480  0.15550  Biso   1.000  C
  C9       1.0000 0.67770  0.33500  0.65100  Biso   1.000  C
  C10      1.0000 0.32230  0.33500  0.84900  Biso   1.000  C
  C11      1.0000 0.17770  0.83500  0.65100  Biso   1.000  C
  C12      1.0000 0.82230  0.83500  0.84900  Biso   1.000  C
  C13      1.0000 0.32230  0.66500  0.34900  Biso   1.000  C
  C14      1.0000 0.67770  0.66500  0.15100  Biso   1.000  C
  C15      1.0000 0.82230  0.16500  0.34900  Biso   1.000  C
  C16      1.0000 0.17770  0.16500  0.15100  Biso   1.000  C
  H1       1.0000 0.70360  0.38670  0.65320  Biso   1.000  H
  H2       1.0000 0.29640  0.38670  0.84680  Biso   1.000  H
  H3       1.0000 0.20360  0.88670  0.65320  Biso   1.000  H
  H4       1.0000 0.79640  0.88670  0.84680  Biso   1.000  H
  H5       1.0000 0.29640  0.61330  0.34680  Biso   1.000  H
  H6       1.0000 0.70360  0.61330  0.15320  Biso   1.000  H
  H7       1.0000 0.79640  0.11330  0.34680  Biso   1.000  H
  H8       1.0000 0.20360  0.11330  0.15320  Biso   1.000  H
  C17      1.0000 0.70230  0.24300  0.64240  Biso   1.000  C
  C18      1.0000 0.29770  0.24300  0.85760  Biso   1.000  C
  C19      1.0000 0.20230  0.74300  0.64240  Biso   1.000  C
  C20      1.0000 0.79770  0.74300  0.85760  Biso   1.000  C
  C21      1.0000 0.29770  0.75700  0.35760  Biso   1.000  C
  C22      1.0000 0.70230  0.75700  0.14240  Biso   1.000  C
  C23      1.0000 0.79770  0.25700  0.35760  Biso   1.000  C
  C24      1.0000 0.20230  0.25700  0.14240  Biso   1.000  C
  C25      1.0000 0.56950  0.26400  0.65680  Biso   1.000  C
  C26      1.0000 0.43050  0.26400  0.84320  Biso   1.000  C
  C27      1.0000 0.06950  0.76400  0.65680  Biso   1.000  C
  C28      1.0000 0.93050  0.76400  0.84320  Biso   1.000  C
  C29      1.0000 0.43050  0.73600  0.34320  Biso   1.000  C
  C30      1.0000 0.56950  0.73600  0.15680  Biso   1.000  C
  C31      1.0000 0.93050  0.23600  0.34320  Biso   1.000  C
  C32      1.0000 0.06950  0.23600  0.15680  Biso   1.000  C
  H9       1.0000 0.52500  0.26950  0.66120  Biso   1.000  H
  H10      1.0000 0.47500  0.26950  0.83880  Biso   1.000  H
  H11      1.0000 0.02500  0.76950  0.66120  Biso   1.000  H
  H12      1.0000 0.97500  0.76950  0.83880  Biso   1.000  H
  H13      1.0000 0.47500  0.73050  0.33880  Biso   1.000  H
  H14      1.0000 0.52500  0.73050  0.16120  Biso   1.000  H
  H15      1.0000 0.97500  0.23050  0.33880  Biso   1.000  H
  H16      1.0000 0.02500  0.23050  0.16120  Biso   1.000  H
  C33      1.0000 0.60340  0.17800  0.65070  Biso   1.000  C
  C34      1.0000 0.39660  0.17800  0.84930  Biso   1.000  C
  C35      1.0000 0.10340  0.67800  0.65070  Biso   1.000  C
  C36      1.0000 0.89660  0.67800  0.84930  Biso   1.000  C
  C37      1.0000 0.39660  0.82200  0.34930  Biso   1.000  C
  C38      1.0000 0.60340  0.82200  0.15070  Biso   1.000  C
  C39      1.0000 0.89660  0.32200  0.34930  Biso   1.000  C
  C40      1.0000 0.10340  0.32200  0.15070  Biso   1.000  C
  C41      1.0000 0.52870  0.96000  0.67600  Biso   1.000  C
  C42      1.0000 0.47130  0.96000  0.82400  Biso   1.000  C
  C43      1.0000 0.02870  0.46000  0.67600  Biso   1.000  C
  C44      1.0000 0.97130  0.46000  0.82400  Biso   1.000  C
  C45      1.0000 0.47130  0.04000  0.32400  Biso   1.000  C
  C46      1.0000 0.52870  0.04000  0.17600  Biso   1.000  C
  C47      1.0000 0.97130  0.54000  0.32400  Biso   1.000  C
  C48      1.0000 0.02870  0.54000  0.17600  Biso   1.000  C
  H17      1.0000 0.52920  0.89980  0.69100  Biso   1.000  H
  H18      1.0000 0.47080  0.89980  0.80900  Biso   1.000  H
  H19      1.0000 0.02920  0.39980  0.69100  Biso   1.000  H
  H20      1.0000 0.97080  0.39980  0.80900  Biso   1.000  H
  H21      1.0000 0.47080  0.10020  0.30900  Biso   1.000  H
  H22      1.0000 0.52920  0.10020  0.19100  Biso   1.000  H
  H23      1.0000 0.97080  0.60020  0.30900  Biso   1.000  H
  H24      1.0000 0.02920  0.60020  0.19100  Biso   1.000  H
  C49      1.0000 0.57740  0.02000  0.68950  Biso   1.000  C
  C50      1.0000 0.42260  0.02000  0.81050  Biso   1.000  C
  C51      1.0000 0.07740  0.52000  0.68950  Biso   1.000  C
  C52      1.0000 0.92260  0.52000  0.81050  Biso   1.000  C
  C53      1.0000 0.42260  0.98000  0.31050  Biso   1.000  C
  C54      1.0000 0.57740  0.98000  0.18950  Biso   1.000  C
  C55      1.0000 0.92260  0.48000  0.31050  Biso   1.000  C
  C56      1.0000 0.07740  0.48000  0.18950  Biso   1.000  C
  H25      1.0000 0.61750  0.00720  0.71350  Biso   1.000  H
  H26      1.0000 0.38250  0.00720  0.78650  Biso   1.000  H
  H27      1.0000 0.11750  0.50720  0.71350  Biso   1.000  H
  H28      1.0000 0.88250  0.50720  0.78650  Biso   1.000  H
  H29      1.0000 0.38250  0.99280  0.28650  Biso   1.000  H
  H30      1.0000 0.61750  0.99280  0.21350  Biso   1.000  H
  H31      1.0000 0.88250  0.49280  0.28650  Biso   1.000  H
  H32      1.0000 0.11750  0.49280  0.21350  Biso   1.000  H
  C57      1.0000 0.49700  0.08700  0.63000  Biso   1.000  C
  C58      1.0000 0.50300  0.08700  0.87000  Biso   1.000  C
  C59      1.0000 0.99700  0.58700  0.63000  Biso   1.000  C
  C60      1.0000 0.00300  0.58700  0.87000  Biso   1.000  C
  C61      1.0000 0.50300  0.91300  0.37000  Biso   1.000  C
  C62      1.0000 0.49700  0.91300  0.13000  Biso   1.000  C
  C63      1.0000 0.00300  0.41300  0.37000  Biso   1.000  C
  C64      1.0000 0.99700  0.41300  0.13000  Biso   1.000  C
  H33      1.0000 0.47150  0.13080  0.60630  Biso   1.000  H
  H34      1.0000 0.52850  0.13080  0.89370  Biso   1.000  H
  H35      1.0000 0.97150  0.63080  0.60630  Biso   1.000  H
  H36      1.0000 0.02850  0.63080  0.89370  Biso   1.000  H
  H37      1.0000 0.52850  0.86920  0.39370  Biso   1.000  H
  H38      1.0000 0.47150  0.86920  0.10630  Biso   1.000  H
  H39      1.0000 0.02850  0.36920  0.39370  Biso   1.000  H
  H40      1.0000 0.97150  0.36920  0.10630  Biso   1.000  H
  C65      1.0000 0.52730  0.45400  0.62990  Biso   1.000  C
  C66      1.0000 0.47270  0.45400  0.87010  Biso   1.000  C
  C67      1.0000 0.02730  0.95400  0.62990  Biso   1.000  C
  C68      1.0000 0.97270  0.95400  0.87010  Biso   1.000  C
  C69      1.0000 0.47270  0.54600  0.37010  Biso   1.000  C
  C70      1.0000 0.52730  0.54600  0.12990  Biso   1.000  C
  C71      1.0000 0.97270  0.04600  0.37010  Biso   1.000  C
  C72      1.0000 0.02730  0.04600  0.12990  Biso   1.000  C
  H41      1.0000 0.49950  0.41850  0.60080  Biso   1.000  H
  H42      1.0000 0.50050  0.41850  0.89920  Biso   1.000  H
  H43      1.0000 0.99950  0.91850  0.60080  Biso   1.000  H
  H44      1.0000 0.00050  0.91850  0.89920  Biso   1.000  H
  H45      1.0000 0.50050  0.58150  0.39920  Biso   1.000  H
  H46      1.0000 0.49950  0.58150  0.10080  Biso   1.000  H
  H47      1.0000 0.00050  0.08150  0.39920  Biso   1.000  H
  H48      1.0000 0.99950  0.08150  0.10080  Biso   1.000  H
  C73      1.0000 0.57100  0.56400  0.69050  Biso   1.000  C
  C74      1.0000 0.42900  0.56400  0.80950  Biso   1.000  C
  C75      1.0000 0.07100  0.06400  0.69050  Biso   1.000  C
  C76      1.0000 0.92900  0.06400  0.80950  Biso   1.000  C
  C77      1.0000 0.42900  0.43600  0.30950  Biso   1.000  C
  C78      1.0000 0.57100  0.43600  0.19050  Biso   1.000  C
  C79      1.0000 0.92900  0.93600  0.30950  Biso   1.000  C
  C80      1.0000 0.07100  0.93600  0.19050  Biso   1.000  C
  H49      1.0000 0.57890  0.62200  0.70830  Biso   1.000  H
  H50      1.0000 0.42110  0.62200  0.79170  Biso   1.000  H
  H51      1.0000 0.07890  0.12200  0.70830  Biso   1.000  H
  H52      1.0000 0.92110  0.12200  0.79170  Biso   1.000  H
  H53      1.0000 0.42110  0.37800  0.29170  Biso   1.000  H
  H54      1.0000 0.57890  0.37800  0.20830  Biso   1.000  H
  H55      1.0000 0.92110  0.87800  0.29170  Biso   1.000  H
  H56      1.0000 0.07890  0.87800  0.20830  Biso   1.000  H
  C81      1.0000 0.61040  0.49400  0.70300  Biso   1.000  C
  C82      1.0000 0.38960  0.49400  0.79700  Biso   1.000  C
  C83      1.0000 0.11040  0.99400  0.70300  Biso   1.000  C
  C84      1.0000 0.88960  0.99400  0.79700  Biso   1.000  C
  C85      1.0000 0.38960  0.50600  0.29700  Biso   1.000  C
  C86      1.0000 0.61040  0.50600  0.20300  Biso   1.000  C
  C87      1.0000 0.88960  0.00600  0.29700  Biso   1.000  C
  C88      1.0000 0.11040  0.00600  0.20300  Biso   1.000  C
  H57      1.0000 0.64740  0.49140  0.73430  Biso   1.000  H
  H58      1.0000 0.35260  0.49140  0.76570  Biso   1.000  H
  H59      1.0000 0.14740  0.99140  0.73430  Biso   1.000  H
  H60      1.0000 0.85260  0.99140  0.76570  Biso   1.000  H
  H61      1.0000 0.35260  0.50860  0.26570  Biso   1.000  H
  H62      1.0000 0.64740  0.50860  0.23430  Biso   1.000  H
  H63      1.0000 0.85260  0.00860  0.26570  Biso   1.000  H
  H64      1.0000 0.14740  0.00860  0.23430  Biso   1.000  H
  C89      1.0000 0.85930  0.26600  0.57000  Biso   1.000  C
  C90      1.0000 0.14070  0.26600  0.93000  Biso   1.000  C
  C91      1.0000 0.35930  0.76600  0.57000  Biso   1.000  C
  C92      1.0000 0.64070  0.76600  0.93000  Biso   1.000  C
  C93      1.0000 0.14070  0.73400  0.43000  Biso   1.000  C
  C94      1.0000 0.85930  0.73400  0.07000  Biso   1.000  C
  C95      1.0000 0.64070  0.23400  0.43000  Biso   1.000  C
  C96      1.0000 0.35930  0.23400  0.07000  Biso   1.000  C
  H65      1.0000 0.88870  0.28900  0.54100  Biso   1.000  H
  H66      1.0000 0.11130  0.28900  0.95900  Biso   1.000  H
  H67      1.0000 0.38870  0.78900  0.54100  Biso   1.000  H
  H68      1.0000 0.61130  0.78900  0.95900  Biso   1.000  H
  H69      1.0000 0.11130  0.71100  0.45900  Biso   1.000  H
  H70      1.0000 0.88870  0.71100  0.04100  Biso   1.000  H
  H71      1.0000 0.61130  0.21100  0.45900  Biso   1.000  H
  H72      1.0000 0.38870  0.21100  0.04100  Biso   1.000  H
  C97      1.0000 0.81440  0.17900  0.64460  Biso   1.000  C
  C98      1.0000 0.18560  0.17900  0.85540  Biso   1.000  C
  C99      1.0000 0.31440  0.67900  0.64460  Biso   1.000  C
  C100     1.0000 0.68560  0.67900  0.85540  Biso   1.000  C
  C101     1.0000 0.18560  0.82100  0.35540  Biso   1.000  C
  C102     1.0000 0.81440  0.82100  0.14460  Biso   1.000  C
  C103     1.0000 0.68560  0.32100  0.35540  Biso   1.000  C
  C104     1.0000 0.31440  0.32100  0.14460  Biso   1.000  C
  H73      1.0000 0.80600  0.13220  0.67520  Biso   1.000  H
  H74      1.0000 0.19400  0.13220  0.82480  Biso   1.000  H
  H75      1.0000 0.30600  0.63220  0.67520  Biso   1.000  H
  H76      1.0000 0.69400  0.63220  0.82480  Biso   1.000  H
  H77      1.0000 0.19400  0.86780  0.32480  Biso   1.000  H
  H78      1.0000 0.80600  0.86780  0.17520  Biso   1.000  H
  H79      1.0000 0.69400  0.36780  0.32480  Biso   1.000  H
  H80      1.0000 0.30600  0.36780  0.17520  Biso   1.000  H
  C105     1.0000 0.79760  0.29300  0.57880  Biso   1.000  C
  C106     1.0000 0.20240  0.29300  0.92120  Biso   1.000  C
  C107     1.0000 0.29760  0.79300  0.57880  Biso   1.000  C
  C108     1.0000 0.70240  0.79300  0.92120  Biso   1.000  C
  C109     1.0000 0.20240  0.70700  0.42120  Biso   1.000  C
  C110     1.0000 0.79760  0.70700  0.07880  Biso   1.000  C
  C111     1.0000 0.70240  0.20700  0.42120  Biso   1.000  C
  C112     1.0000 0.29760  0.20700  0.07880  Biso   1.000  C
  H81      1.0000 0.77750  0.34220  0.55570  Biso   1.000  H
  H82      1.0000 0.22250  0.34220  0.94430  Biso   1.000  H
  H83      1.0000 0.27750  0.84220  0.55570  Biso   1.000  H
  H84      1.0000 0.72250  0.84220  0.94430  Biso   1.000  H
  H85      1.0000 0.22250  0.65780  0.44430  Biso   1.000  H
  H86      1.0000 0.77750  0.65780  0.05570  Biso   1.000  H
  H87      1.0000 0.72250  0.15780  0.44430  Biso   1.000  H
  H88      1.0000 0.27750  0.15780  0.05570  Biso   1.000  H
  C113     1.0000 0.66350  0.16900  0.64920  Biso   1.000  C
  C114     1.0000 0.33650  0.16900  0.85080  Biso   1.000  C
  C115     1.0000 0.16350  0.66900  0.64920  Biso   1.000  C
  C116     1.0000 0.83650  0.66900  0.85080  Biso   1.000  C
  C117     1.0000 0.33650  0.83100  0.35080  Biso   1.000  C
  C118     1.0000 0.66350  0.83100  0.14920  Biso   1.000  C
  C119     1.0000 0.83650  0.33100  0.35080  Biso   1.000  C
  C120     1.0000 0.16350  0.33100  0.14920  Biso   1.000  C
  H89      1.0000 0.68200  0.11080  0.65280  Biso   1.000  H
  H90      1.0000 0.31800  0.11080  0.84720  Biso   1.000  H
  H91      1.0000 0.18200  0.61080  0.65280  Biso   1.000  H
  H92      1.0000 0.81800  0.61080  0.84720  Biso   1.000  H
  H93      1.0000 0.31800  0.88920  0.34720  Biso   1.000  H
  H94      1.0000 0.68200  0.88920  0.15280  Biso   1.000  H
  H95      1.0000 0.81800  0.38920  0.34720  Biso   1.000  H
  H96      1.0000 0.18200  0.38920  0.15280  Biso   1.000  H
  N1       1.0000 0.51530  0.53950  0.64700  Biso   1.000  N
  N2       1.0000 0.48470  0.53950  0.85300  Biso   1.000  N
  N3       1.0000 0.01530  0.03950  0.64700  Biso   1.000  N
  N4       1.0000 0.98470  0.03950  0.85300  Biso   1.000  N
  N5       1.0000 0.48470  0.46050  0.35300  Biso   1.000  N
  N6       1.0000 0.51530  0.46050  0.14700  Biso   1.000  N
  N7       1.0000 0.98470  0.96050  0.35300  Biso   1.000  N
  N8       1.0000 0.01530  0.96050  0.14700  Biso   1.000  N
  N9       1.0000 0.58470  0.42630  0.66010  Biso   1.000  N
  N10      1.0000 0.41530  0.42630  0.83990  Biso   1.000  N
  N11      1.0000 0.08470  0.92630  0.66010  Biso   1.000  N
  N12      1.0000 0.91530  0.92630  0.83990  Biso   1.000  N
  N13      1.0000 0.41530  0.57370  0.33990  Biso   1.000  N
  N14      1.0000 0.58470  0.57370  0.16010  Biso   1.000  N
  N15      1.0000 0.91530  0.07370  0.33990  Biso   1.000  N
  N16      1.0000 0.08470  0.07370  0.16010  Biso   1.000  N
  N17      1.0000 0.86760  0.18800  0.62000  Biso   1.000  N
  N18      1.0000 0.13240  0.18800  0.88000  Biso   1.000  N
  N19      1.0000 0.36760  0.68800  0.62000  Biso   1.000  N
  N20      1.0000 0.63240  0.68800  0.88000  Biso   1.000  N
  N21      1.0000 0.13240  0.81200  0.38000  Biso   1.000  N
  N22      1.0000 0.86760  0.81200  0.12000  Biso   1.000  N
  N23      1.0000 0.63240  0.31200  0.38000  Biso   1.000  N
  N24      1.0000 0.36760  0.31200  0.12000  Biso   1.000  N
  N25      1.0000 0.76940  0.24200  0.62290  Biso   1.000  N
  N26      1.0000 0.23060  0.24200  0.87710  Biso   1.000  N
  N27      1.0000 0.26940  0.74200  0.62290  Biso   1.000  N
  N28      1.0000 0.73060  0.74200  0.87710  Biso   1.000  N
  N29      1.0000 0.23060  0.75800  0.37710  Biso   1.000  N
  N30      1.0000 0.76940  0.75800  0.12290  Biso   1.000  N
  N31      1.0000 0.73060  0.25800  0.37710  Biso   1.000  N
  N32      1.0000 0.26940  0.25800  0.12290  Biso   1.000  N
  N33      1.0000 0.55990  0.09870  0.66330  Biso   1.000  N
  N34      1.0000 0.44010  0.09870  0.83670  Biso   1.000  N
  N35      1.0000 0.05990  0.59870  0.66330  Biso   1.000  N
  N36      1.0000 0.94010  0.59870  0.83670  Biso   1.000  N
  N37      1.0000 0.44010  0.90130  0.33670  Biso   1.000  N
  N38      1.0000 0.55990  0.90130  0.16330  Biso   1.000  N
  N39      1.0000 0.94010  0.40130  0.33670  Biso   1.000  N
  N40      1.0000 0.05990  0.40130  0.16330  Biso   1.000  N
  N41      1.0000 0.47980  0.00100  0.64000  Biso   1.000  N
  N42      1.0000 0.52020  0.00100  0.86000  Biso   1.000  N
  N43      1.0000 0.97980  0.50100  0.64000  Biso   1.000  N
  N44      1.0000 0.02020  0.50100  0.86000  Biso   1.000  N
  N45      1.0000 0.52020  0.99900  0.36000  Biso   1.000  N
  N46      1.0000 0.47980  0.99900  0.14000  Biso   1.000  N
  N47      1.0000 0.02020  0.49900  0.36000  Biso   1.000  N
  N48      1.0000 0.97980  0.49900  0.14000  Biso   1.000  N
  H97      1.0000 0.44360  0.97570  0.62440  Biso   1.000  H
  H98      1.0000 0.55640  0.97570  0.87560  Biso   1.000  H
  H99      1.0000 0.94360  0.47570  0.62440  Biso   1.000  H
  H100     1.0000 0.05640  0.47570  0.87560  Biso   1.000  H
  H101     1.0000 0.55640  0.02430  0.37560  Biso   1.000  H
  H102     1.0000 0.44360  0.02430  0.12440  Biso   1.000  H
  H103     1.0000 0.05640  0.52430  0.37560  Biso   1.000  H
  H104     1.0000 0.94360  0.52430  0.12440  Biso   1.000  H
