data_image0
_cell_length_a       4.2679
_cell_length_b       13.9422
_cell_length_c       13.0174
_cell_angle_alpha    90
_cell_angle_beta     92.644
_cell_angle_gamma    90

_symmetry_space_group_name_H-M    "P 1"
_symmetry_int_tables_number       1

loop_
  _symmetry_equiv_pos_as_xyz
  'x, y, z'

loop_
  _atom_site_label
  _atom_site_occupancy
  _atom_site_fract_x
  _atom_site_fract_y
  _atom_site_fract_z
  _atom_site_thermal_displace_type
  _atom_site_B_iso_or_equiv
  _atom_site_type_symbol
  Cu1      1.0000 0.48731  0.32882  0.82462  Biso   1.000  Cu
  Cu2      1.0000 0.48731  0.17118  0.32462  Biso   1.000  Cu
  Cu3      1.0000 0.51269  0.67118  0.17538  Biso   1.000  Cu
  Cu4      1.0000 0.51269  0.82882  0.67538  Biso   1.000  Cu
  I1       1.0000 0.98806  0.44623  0.82710  Biso   1.000  I
  I2       1.0000 0.98806  0.05377  0.32710  Biso   1.000  I
  I3       1.0000 0.01194  0.55377  0.17290  Biso   1.000  I
  I4       1.0000 0.01194  0.94623  0.67290  Biso   1.000  I
  N1       1.0000 0.47600  0.27786  0.67806  Biso   1.000  N
  N2       1.0000 0.47600  0.22214  0.17806  Biso   1.000  N
  N3       1.0000 0.52400  0.72214  0.32194  Biso   1.000  N
  N4       1.0000 0.52400  0.77786  0.82194  Biso   1.000  N
  C1       1.0000 0.36710  0.33520  0.60239  Biso   1.000  C
  C2       1.0000 0.36710  0.16480  0.10239  Biso   1.000  C
  C3       1.0000 0.63290  0.66480  0.39761  Biso   1.000  C
  C4       1.0000 0.63290  0.83520  0.89761  Biso   1.000  C
  H1       1.0000 0.28090  0.39410  0.61890  Biso   1.000  H
  H2       1.0000 0.28090  0.10590  0.11890  Biso   1.000  H
  H3       1.0000 0.71910  0.60590  0.38110  Biso   1.000  H
  H4       1.0000 0.71910  0.89410  0.88110  Biso   1.000  H
  C5       1.0000 0.37940  0.30893  0.49932  Biso   1.000  C
  C6       1.0000 0.37940  0.19107  0.99932  Biso   1.000  C
  C7       1.0000 0.62060  0.69107  0.50068  Biso   1.000  C
  C8       1.0000 0.62060  0.80893  0.00068  Biso   1.000  C
  N5       1.0000 0.50060  0.22530  0.47090  Biso   1.000  N
  N6       1.0000 0.50060  0.27470  0.97090  Biso   1.000  N
  N7       1.0000 0.49940  0.77470  0.52910  Biso   1.000  N
  N8       1.0000 0.49940  0.72530  0.02910  Biso   1.000  N
  C9       1.0000 0.60860  0.16800  0.54731  Biso   1.000  C
  C10      1.0000 0.60860  0.33200  0.04731  Biso   1.000  C
  C11      1.0000 0.39140  0.83200  0.45269  Biso   1.000  C
  C12      1.0000 0.39140  0.66800  0.95269  Biso   1.000  C
  H5       1.0000 0.69400  0.10880  0.53120  Biso   1.000  H
  H6       1.0000 0.69400  0.39120  0.03120  Biso   1.000  H
  H7       1.0000 0.30600  0.89120  0.46880  Biso   1.000  H
  H8       1.0000 0.30600  0.60880  0.96880  Biso   1.000  H
  C13      1.0000 0.59650  0.19460  0.64982  Biso   1.000  C
  C14      1.0000 0.59650  0.30540  0.14982  Biso   1.000  C
  C15      1.0000 0.40350  0.80540  0.35018  Biso   1.000  C
  C16      1.0000 0.40350  0.69460  0.85018  Biso   1.000  C
  H9       1.0000 0.67540  0.15280  0.70030  Biso   1.000  H
  H10      1.0000 0.67540  0.34720  0.20030  Biso   1.000  H
  H11      1.0000 0.32460  0.84720  0.29970  Biso   1.000  H
  H12      1.0000 0.32460  0.65280  0.79970  Biso   1.000  H
  I5       1.0000 0.21583  0.40373  0.38431  Biso   1.000  I
  I6       1.0000 0.21583  0.09627  0.88431  Biso   1.000  I
  I7       1.0000 0.78417  0.59627  0.61569  Biso   1.000  I
  I8       1.0000 0.78417  0.90373  0.11569  Biso   1.000  I
