data_image0
_cell_length_a       4.183
_cell_length_b       10.8138
_cell_length_c       17.961
_cell_angle_alpha    90
_cell_angle_beta     90
_cell_angle_gamma    90

_symmetry_space_group_name_H-M    "P 1"
_symmetry_int_tables_number       1

loop_
  _symmetry_equiv_pos_as_xyz
  'x, y, z'

loop_
  _atom_site_label
  _atom_site_occupancy
  _atom_site_fract_x
  _atom_site_fract_y
  _atom_site_fract_z
  _atom_site_thermal_displace_type
  _atom_site_B_iso_or_equiv
  _atom_site_type_symbol
  I1       1.0000 0.36209  0.64229  0.58735  Biso   1.000  I
  I2       1.0000 0.13791  0.35771  0.08735  Biso   1.000  I
  I3       1.0000 0.63791  0.14229  0.91265  Biso   1.000  I
  I4       1.0000 0.86209  0.85771  0.41265  Biso   1.000  I
  Cu1      1.0000 0.35900  0.72009  0.44878  Biso   1.000  Cu
  Cu2      1.0000 0.14100  0.27991  0.94878  Biso   1.000  Cu
  Cu3      1.0000 0.64100  0.22009  0.05122  Biso   1.000  Cu
  Cu4      1.0000 0.85900  0.77991  0.55122  Biso   1.000  Cu
  N1       1.0000 0.37430  0.56590  0.38080  Biso   1.000  N
  N2       1.0000 0.12570  0.43410  0.88080  Biso   1.000  N
  N3       1.0000 0.62570  0.06590  0.11920  Biso   1.000  N
  N4       1.0000 0.87430  0.93410  0.61920  Biso   1.000  N
  C1       1.0000 0.26400  0.45710  0.40400  Biso   1.000  C
  C2       1.0000 0.23600  0.54290  0.90400  Biso   1.000  C
  C3       1.0000 0.73600  0.95710  0.09600  Biso   1.000  C
  C4       1.0000 0.76400  0.04290  0.59600  Biso   1.000  C
  H1       1.0000 0.17060  0.44980  0.45080  Biso   1.000  H
  H2       1.0000 0.32940  0.55020  0.95080  Biso   1.000  H
  H3       1.0000 0.82940  0.94980  0.04920  Biso   1.000  H
  H4       1.0000 0.67060  0.05020  0.54920  Biso   1.000  H
  C5       1.0000 0.28950  0.35420  0.35770  Biso   1.000  C
  C6       1.0000 0.21050  0.64580  0.85770  Biso   1.000  C
  C7       1.0000 0.71050  0.85420  0.14230  Biso   1.000  C
  C8       1.0000 0.78950  0.14580  0.64230  Biso   1.000  C
  N5       1.0000 0.41530  0.35700  0.29210  Biso   1.000  N
  N6       1.0000 0.08470  0.64300  0.79210  Biso   1.000  N
  N7       1.0000 0.58470  0.85700  0.20790  Biso   1.000  N
  N8       1.0000 0.91530  0.14300  0.70790  Biso   1.000  N
  C9       1.0000 0.52000  0.46860  0.26960  Biso   1.000  C
  C10      1.0000 0.98000  0.53140  0.76960  Biso   1.000  C
  C11      1.0000 0.48000  0.96860  0.23040  Biso   1.000  C
  C12      1.0000 0.02000  0.03140  0.73040  Biso   1.000  C
  H5       1.0000 0.60840  0.47620  0.22230  Biso   1.000  H
  H6       1.0000 0.89160  0.52380  0.72230  Biso   1.000  H
  H7       1.0000 0.39160  0.97620  0.27770  Biso   1.000  H
  H8       1.0000 0.10840  0.02380  0.77770  Biso   1.000  H
  C13      1.0000 0.50060  0.57120  0.31370  Biso   1.000  C
  C14      1.0000 0.99940  0.42880  0.81370  Biso   1.000  C
  C15      1.0000 0.49940  0.07120  0.18630  Biso   1.000  C
  C16      1.0000 0.00060  0.92880  0.68630  Biso   1.000  C
  H9       1.0000 0.57820  0.64630  0.29610  Biso   1.000  H
  H10      1.0000 0.92180  0.35370  0.79610  Biso   1.000  H
  H11      1.0000 0.42180  0.14630  0.20390  Biso   1.000  H
  H12      1.0000 0.07820  0.85370  0.70390  Biso   1.000  H
  I5       1.0000 0.11441  0.18161  0.39453  Biso   1.000  I
  I6       1.0000 0.38559  0.81839  0.89453  Biso   1.000  I
  I7       1.0000 0.88559  0.68161  0.10547  Biso   1.000  I
  I8       1.0000 0.61441  0.31839  0.60547  Biso   1.000  I
