data_image0
_cell_length_a       7.4114
_cell_length_b       17.663
_cell_length_c       25.148
_cell_angle_alpha    90
_cell_angle_beta     90
_cell_angle_gamma    90

_symmetry_space_group_name_H-M    "P 1"
_symmetry_int_tables_number       1

loop_
  _symmetry_equiv_pos_as_xyz
  'x, y, z'

loop_
  _atom_site_label
  _atom_site_occupancy
  _atom_site_fract_x
  _atom_site_fract_y
  _atom_site_fract_z
  _atom_site_thermal_displace_type
  _atom_site_B_iso_or_equiv
  _atom_site_type_symbol
  C1       1.0000 0.23740  0.52849  0.48429  Biso   1.000  C
  C2       1.0000 0.26260  0.47151  0.98429  Biso   1.000  C
  C3       1.0000 0.76260  0.02849  0.01571  Biso   1.000  C
  C4       1.0000 0.73740  0.97151  0.51571  Biso   1.000  C
  C5       1.0000 0.76260  0.47151  0.51571  Biso   1.000  C
  C6       1.0000 0.73740  0.52849  0.01571  Biso   1.000  C
  C7       1.0000 0.23740  0.97151  0.98429  Biso   1.000  C
  C8       1.0000 0.26260  0.02849  0.48429  Biso   1.000  C
  H1       1.0000 0.15500  0.53850  0.51130  Biso   1.000  H
  H2       1.0000 0.34500  0.46150  0.01130  Biso   1.000  H
  H3       1.0000 0.84500  0.03850  0.98870  Biso   1.000  H
  H4       1.0000 0.65500  0.96150  0.48870  Biso   1.000  H
  H5       1.0000 0.84500  0.46150  0.48870  Biso   1.000  H
  H6       1.0000 0.65500  0.53850  0.98870  Biso   1.000  H
  H7       1.0000 0.15500  0.96150  0.01130  Biso   1.000  H
  H8       1.0000 0.34500  0.03850  0.51130  Biso   1.000  H
  C9       1.0000 0.35970  0.57879  0.46493  Biso   1.000  C
  C10      1.0000 0.14030  0.42121  0.96493  Biso   1.000  C
  C11      1.0000 0.64030  0.07879  0.03507  Biso   1.000  C
  C12      1.0000 0.85970  0.92121  0.53507  Biso   1.000  C
  C13      1.0000 0.64030  0.42121  0.53507  Biso   1.000  C
  C14      1.0000 0.85970  0.57879  0.03507  Biso   1.000  C
  C15      1.0000 0.35970  0.92121  0.96493  Biso   1.000  C
  C16      1.0000 0.14030  0.07879  0.46493  Biso   1.000  C
  H9       1.0000 0.37590  0.62850  0.47610  Biso   1.000  H
  H10      1.0000 0.12410  0.37150  0.97610  Biso   1.000  H
  H11      1.0000 0.62410  0.12850  0.02390  Biso   1.000  H
  H12      1.0000 0.87590  0.87150  0.52390  Biso   1.000  H
  H13      1.0000 0.62410  0.37150  0.52390  Biso   1.000  H
  H14      1.0000 0.87590  0.62850  0.02390  Biso   1.000  H
  H15      1.0000 0.37590  0.87150  0.97610  Biso   1.000  H
  H16      1.0000 0.12410  0.12850  0.47610  Biso   1.000  H
  C17      1.0000 0.38510  0.47149  0.42339  Biso   1.000  C
  C18      1.0000 0.11490  0.52851  0.92339  Biso   1.000  C
  C19      1.0000 0.61490  0.97149  0.07661  Biso   1.000  C
  C20      1.0000 0.88510  0.02851  0.57661  Biso   1.000  C
  C21      1.0000 0.61490  0.52851  0.57661  Biso   1.000  C
  C22      1.0000 0.88510  0.47149  0.07661  Biso   1.000  C
  C23      1.0000 0.38510  0.02851  0.92339  Biso   1.000  C
  C24      1.0000 0.11490  0.97149  0.42339  Biso   1.000  C
  C25      1.0000 0.59980  0.57340  0.39321  Biso   1.000  C
  C26      1.0000 0.90020  0.42660  0.89321  Biso   1.000  C
  C27      1.0000 0.40020  0.07340  0.10679  Biso   1.000  C
  C28      1.0000 0.09980  0.92660  0.60679  Biso   1.000  C
  C29      1.0000 0.40020  0.42660  0.60679  Biso   1.000  C
  C30      1.0000 0.09980  0.57340  0.10679  Biso   1.000  C
  C31      1.0000 0.59980  0.92660  0.89321  Biso   1.000  C
  C32      1.0000 0.90020  0.07340  0.39321  Biso   1.000  C
  H17      1.0000 0.67910  0.53250  0.38230  Biso   1.000  H
  H18      1.0000 0.82090  0.46750  0.88230  Biso   1.000  H
  H19      1.0000 0.32090  0.03250  0.11770  Biso   1.000  H
  H20      1.0000 0.17910  0.96750  0.61770  Biso   1.000  H
  H21      1.0000 0.32090  0.46750  0.61770  Biso   1.000  H
  H22      1.0000 0.17910  0.53250  0.11770  Biso   1.000  H
  H23      1.0000 0.67910  0.96750  0.88230  Biso   1.000  H
  H24      1.0000 0.82090  0.03250  0.38230  Biso   1.000  H
  H25      1.0000 0.67020  0.60880  0.41420  Biso   1.000  H
  H26      1.0000 0.82980  0.39120  0.91420  Biso   1.000  H
  H27      1.0000 0.32980  0.10880  0.08580  Biso   1.000  H
  H28      1.0000 0.17020  0.89120  0.58580  Biso   1.000  H
  H29      1.0000 0.32980  0.39120  0.58580  Biso   1.000  H
  H30      1.0000 0.17020  0.60880  0.08580  Biso   1.000  H
  H31      1.0000 0.67020  0.89120  0.91420  Biso   1.000  H
  H32      1.0000 0.82980  0.10880  0.41420  Biso   1.000  H
  C33      1.0000 0.52920  0.61280  0.34494  Biso   1.000  C
  C34      1.0000 0.97080  0.38720  0.84494  Biso   1.000  C
  C35      1.0000 0.47080  0.11280  0.15506  Biso   1.000  C
  C36      1.0000 0.02920  0.88720  0.65506  Biso   1.000  C
  C37      1.0000 0.47080  0.38720  0.65506  Biso   1.000  C
  C38      1.0000 0.02920  0.61280  0.15506  Biso   1.000  C
  C39      1.0000 0.52920  0.88720  0.84494  Biso   1.000  C
  C40      1.0000 0.97080  0.11280  0.34494  Biso   1.000  C
  H33      1.0000 0.46110  0.57780  0.32380  Biso   1.000  H
  H34      1.0000 0.03890  0.42220  0.82380  Biso   1.000  H
  H35      1.0000 0.53890  0.07780  0.17620  Biso   1.000  H
  H36      1.0000 0.96110  0.92220  0.67620  Biso   1.000  H
  H37      1.0000 0.53890  0.42220  0.67620  Biso   1.000  H
  H38      1.0000 0.96110  0.57780  0.17620  Biso   1.000  H
  H39      1.0000 0.46110  0.92220  0.82380  Biso   1.000  H
  H40      1.0000 0.03890  0.07780  0.32380  Biso   1.000  H
  H41      1.0000 0.62840  0.63210  0.32440  Biso   1.000  H
  H42      1.0000 0.87160  0.36790  0.82440  Biso   1.000  H
  H43      1.0000 0.37160  0.13210  0.17560  Biso   1.000  H
  H44      1.0000 0.12840  0.86790  0.67560  Biso   1.000  H
  H45      1.0000 0.37160  0.36790  0.67560  Biso   1.000  H
  H46      1.0000 0.12840  0.63210  0.17560  Biso   1.000  H
  H47      1.0000 0.62840  0.86790  0.82440  Biso   1.000  H
  H48      1.0000 0.87160  0.13210  0.32440  Biso   1.000  H
  H49      1.0000 0.45270  0.65400  0.35560  Biso   1.000  H
  H50      1.0000 0.04730  0.34600  0.85560  Biso   1.000  H
  H51      1.0000 0.54730  0.15400  0.14440  Biso   1.000  H
  H52      1.0000 0.95270  0.84600  0.64440  Biso   1.000  H
  H53      1.0000 0.54730  0.34600  0.64440  Biso   1.000  H
  H54      1.0000 0.95270  0.65400  0.14440  Biso   1.000  H
  H55      1.0000 0.45270  0.84600  0.85560  Biso   1.000  H
  H56      1.0000 0.04730  0.15400  0.35560  Biso   1.000  H
  C41      1.0000 0.43930  0.29696  0.36065  Biso   1.000  C
  C42      1.0000 0.06070  0.70304  0.86065  Biso   1.000  C
  C43      1.0000 0.56070  0.79696  0.13935  Biso   1.000  C
  C44      1.0000 0.93930  0.20304  0.63935  Biso   1.000  C
  C45      1.0000 0.56070  0.70304  0.63935  Biso   1.000  C
  C46      1.0000 0.93930  0.29696  0.13935  Biso   1.000  C
  C47      1.0000 0.43930  0.20304  0.86065  Biso   1.000  C
  C48      1.0000 0.06070  0.79696  0.36065  Biso   1.000  C
  C49      1.0000 0.41730  0.22401  0.37981  Biso   1.000  C
  C50      1.0000 0.08270  0.77599  0.87981  Biso   1.000  C
  C51      1.0000 0.58270  0.72401  0.12019  Biso   1.000  C
  C52      1.0000 0.91730  0.27599  0.62019  Biso   1.000  C
  C53      1.0000 0.58270  0.77599  0.62019  Biso   1.000  C
  C54      1.0000 0.91730  0.22401  0.12019  Biso   1.000  C
  C55      1.0000 0.41730  0.27599  0.87981  Biso   1.000  C
  C56      1.0000 0.08270  0.72401  0.37981  Biso   1.000  C
  H57      1.0000 0.37390  0.21680  0.41410  Biso   1.000  H
  H58      1.0000 0.12610  0.78320  0.91410  Biso   1.000  H
  H59      1.0000 0.62610  0.71680  0.08590  Biso   1.000  H
  H60      1.0000 0.87390  0.28320  0.58590  Biso   1.000  H
  H61      1.0000 0.62610  0.78320  0.58590  Biso   1.000  H
  H62      1.0000 0.87390  0.21680  0.08590  Biso   1.000  H
  H63      1.0000 0.37390  0.28320  0.91410  Biso   1.000  H
  H64      1.0000 0.12610  0.71680  0.41410  Biso   1.000  H
  C57      1.0000 0.45810  0.16229  0.34915  Biso   1.000  C
  C58      1.0000 0.04190  0.83771  0.84915  Biso   1.000  C
  C59      1.0000 0.54190  0.66229  0.15085  Biso   1.000  C
  C60      1.0000 0.95810  0.33771  0.65085  Biso   1.000  C
  C61      1.0000 0.54190  0.83771  0.65085  Biso   1.000  C
  C62      1.0000 0.95810  0.16229  0.15085  Biso   1.000  C
  C63      1.0000 0.45810  0.33771  0.84915  Biso   1.000  C
  C64      1.0000 0.04190  0.66229  0.34915  Biso   1.000  C
  H65      1.0000 0.44510  0.11360  0.36260  Biso   1.000  H
  H66      1.0000 0.05490  0.88640  0.86260  Biso   1.000  H
  H67      1.0000 0.55490  0.61360  0.13740  Biso   1.000  H
  H68      1.0000 0.94510  0.38640  0.63740  Biso   1.000  H
  H69      1.0000 0.55490  0.88640  0.63740  Biso   1.000  H
  H70      1.0000 0.94510  0.11360  0.13740  Biso   1.000  H
  H71      1.0000 0.44510  0.38640  0.86260  Biso   1.000  H
  H72      1.0000 0.05490  0.61360  0.36260  Biso   1.000  H
  C65      1.0000 0.51870  0.17370  0.29802  Biso   1.000  C
  C66      1.0000 0.98130  0.82630  0.79802  Biso   1.000  C
  C67      1.0000 0.48130  0.67370  0.20198  Biso   1.000  C
  C68      1.0000 0.01870  0.32630  0.70198  Biso   1.000  C
  C69      1.0000 0.48130  0.82630  0.70198  Biso   1.000  C
  C70      1.0000 0.01870  0.17370  0.20198  Biso   1.000  C
  C71      1.0000 0.51870  0.32630  0.79802  Biso   1.000  C
  C72      1.0000 0.98130  0.67370  0.29802  Biso   1.000  C
  H73      1.0000 0.54430  0.13210  0.27670  Biso   1.000  H
  H74      1.0000 0.95570  0.86790  0.77670  Biso   1.000  H
  H75      1.0000 0.45570  0.63210  0.22330  Biso   1.000  H
  H76      1.0000 0.04430  0.36790  0.72330  Biso   1.000  H
  H77      1.0000 0.45570  0.86790  0.72330  Biso   1.000  H
  H78      1.0000 0.04430  0.13210  0.22330  Biso   1.000  H
  H79      1.0000 0.54430  0.36790  0.77670  Biso   1.000  H
  H80      1.0000 0.95570  0.63210  0.27670  Biso   1.000  H
  C73      1.0000 0.54220  0.24543  0.27795  Biso   1.000  C
  C74      1.0000 0.95780  0.75457  0.77795  Biso   1.000  C
  C75      1.0000 0.45780  0.74543  0.22205  Biso   1.000  C
  C76      1.0000 0.04220  0.25457  0.72205  Biso   1.000  C
  C77      1.0000 0.45780  0.75457  0.72205  Biso   1.000  C
  C78      1.0000 0.04220  0.24543  0.22205  Biso   1.000  C
  C79      1.0000 0.54220  0.25457  0.77795  Biso   1.000  C
  C80      1.0000 0.95780  0.74543  0.27795  Biso   1.000  C
  H81      1.0000 0.58420  0.25130  0.24330  Biso   1.000  H
  H82      1.0000 0.91580  0.74870  0.74330  Biso   1.000  H
  H83      1.0000 0.41580  0.75130  0.25670  Biso   1.000  H
  H84      1.0000 0.08420  0.24870  0.75670  Biso   1.000  H
  H85      1.0000 0.41580  0.74870  0.75670  Biso   1.000  H
  H86      1.0000 0.08420  0.25130  0.25670  Biso   1.000  H
  H87      1.0000 0.58420  0.24870  0.74330  Biso   1.000  H
  H88      1.0000 0.91580  0.75130  0.24330  Biso   1.000  H
  C81      1.0000 0.50430  0.30962  0.30833  Biso   1.000  C
  C82      1.0000 0.99570  0.69038  0.80833  Biso   1.000  C
  C83      1.0000 0.49570  0.80962  0.19167  Biso   1.000  C
  C84      1.0000 0.00430  0.19038  0.69167  Biso   1.000  C
  C85      1.0000 0.49570  0.69038  0.69167  Biso   1.000  C
  C86      1.0000 0.00430  0.30962  0.19167  Biso   1.000  C
  C87      1.0000 0.50430  0.19038  0.80833  Biso   1.000  C
  C88      1.0000 0.99570  0.80962  0.30833  Biso   1.000  C
  C89      1.0000 0.52610  0.38500  0.21122  Biso   1.000  C
  C90      1.0000 0.97390  0.61500  0.71122  Biso   1.000  C
  C91      1.0000 0.47390  0.88500  0.28878  Biso   1.000  C
  C92      1.0000 0.02610  0.11500  0.78878  Biso   1.000  C
  C93      1.0000 0.47390  0.61500  0.78878  Biso   1.000  C
  C94      1.0000 0.02610  0.38500  0.28878  Biso   1.000  C
  C95      1.0000 0.52610  0.11500  0.71122  Biso   1.000  C
  C96      1.0000 0.97390  0.88500  0.21122  Biso   1.000  C
  H89      1.0000 0.63320  0.35730  0.20060  Biso   1.000  H
  H90      1.0000 0.86680  0.64270  0.70060  Biso   1.000  H
  H91      1.0000 0.36680  0.85730  0.29940  Biso   1.000  H
  H92      1.0000 0.13320  0.14270  0.79940  Biso   1.000  H
  H93      1.0000 0.36680  0.64270  0.79940  Biso   1.000  H
  H94      1.0000 0.13320  0.35730  0.29940  Biso   1.000  H
  H95      1.0000 0.63320  0.14270  0.70060  Biso   1.000  H
  H96      1.0000 0.86680  0.85730  0.20060  Biso   1.000  H
  H97      1.0000 0.42070  0.35590  0.20110  Biso   1.000  H
  H98      1.0000 0.07930  0.64410  0.70110  Biso   1.000  H
  H99      1.0000 0.57930  0.85590  0.29890  Biso   1.000  H
  H100     1.0000 0.92070  0.14410  0.79890  Biso   1.000  H
  H101     1.0000 0.57930  0.64410  0.79890  Biso   1.000  H
  H102     1.0000 0.92070  0.35590  0.29890  Biso   1.000  H
  H103     1.0000 0.42070  0.14410  0.70110  Biso   1.000  H
  H104     1.0000 0.07930  0.85590  0.20110  Biso   1.000  H
  C97      1.0000 0.52250  0.46186  0.18485  Biso   1.000  C
  C98      1.0000 0.97750  0.53814  0.68485  Biso   1.000  C
  C99      1.0000 0.47750  0.96186  0.31515  Biso   1.000  C
  C100     1.0000 0.02250  0.03814  0.81515  Biso   1.000  C
  C101     1.0000 0.47750  0.53814  0.81515  Biso   1.000  C
  C102     1.0000 0.02250  0.46186  0.31515  Biso   1.000  C
  C103     1.0000 0.52250  0.03814  0.68485  Biso   1.000  C
  C104     1.0000 0.97750  0.96186  0.18485  Biso   1.000  C
  H105     1.0000 0.41280  0.48760  0.19410  Biso   1.000  H
  H106     1.0000 0.08720  0.51240  0.69410  Biso   1.000  H
  H107     1.0000 0.58720  0.98760  0.30590  Biso   1.000  H
  H108     1.0000 0.91280  0.01240  0.80590  Biso   1.000  H
  H109     1.0000 0.58720  0.51240  0.80590  Biso   1.000  H
  H110     1.0000 0.91280  0.48760  0.30590  Biso   1.000  H
  H111     1.0000 0.41280  0.01240  0.69410  Biso   1.000  H
  H112     1.0000 0.08720  0.98760  0.19410  Biso   1.000  H
  H113     1.0000 0.52840  0.45570  0.14700  Biso   1.000  H
  H114     1.0000 0.97160  0.54430  0.64700  Biso   1.000  H
  H115     1.0000 0.47160  0.95570  0.35300  Biso   1.000  H
  H116     1.0000 0.02840  0.04430  0.85300  Biso   1.000  H
  H117     1.0000 0.47160  0.54430  0.85300  Biso   1.000  H
  H118     1.0000 0.02840  0.45570  0.35300  Biso   1.000  H
  H119     1.0000 0.52840  0.04430  0.64700  Biso   1.000  H
  H120     1.0000 0.97160  0.95570  0.14700  Biso   1.000  H
  H121     1.0000 0.62400  0.49110  0.19670  Biso   1.000  H
  H122     1.0000 0.87600  0.50890  0.69670  Biso   1.000  H
  H123     1.0000 0.37600  0.99110  0.30330  Biso   1.000  H
  H124     1.0000 0.12400  0.00890  0.80330  Biso   1.000  H
  H125     1.0000 0.37600  0.50890  0.80330  Biso   1.000  H
  H126     1.0000 0.12400  0.49110  0.30330  Biso   1.000  H
  H127     1.0000 0.62400  0.00890  0.69670  Biso   1.000  H
  H128     1.0000 0.87600  0.99110  0.19670  Biso   1.000  H
  C105     1.0000 0.81840  0.26117  0.45886  Biso   1.000  C
  C106     1.0000 0.68160  0.73883  0.95886  Biso   1.000  C
  C107     1.0000 0.18160  0.76117  0.04114  Biso   1.000  C
  C108     1.0000 0.31840  0.23883  0.54114  Biso   1.000  C
  C109     1.0000 0.18160  0.73883  0.54114  Biso   1.000  C
  C110     1.0000 0.31840  0.26117  0.04114  Biso   1.000  C
  C111     1.0000 0.81840  0.23883  0.95886  Biso   1.000  C
  C112     1.0000 0.68160  0.76117  0.45886  Biso   1.000  C
  Cu1      1.0000 0.17787  0.34781  0.45647  Biso   1.000  Cu
  Cu2      1.0000 0.32213  0.65219  0.95647  Biso   1.000  Cu
  Cu3      1.0000 0.82213  0.84781  0.04353  Biso   1.000  Cu
  Cu4      1.0000 0.67787  0.15219  0.54353  Biso   1.000  Cu
  Cu5      1.0000 0.82213  0.65219  0.54353  Biso   1.000  Cu
  Cu6      1.0000 0.67787  0.34781  0.04353  Biso   1.000  Cu
  Cu7      1.0000 0.17787  0.15219  0.95647  Biso   1.000  Cu
  Cu8      1.0000 0.32213  0.84781  0.45647  Biso   1.000  Cu
  N1       1.0000 0.25360  0.46088  0.45803  Biso   1.000  N
  N2       1.0000 0.24640  0.53912  0.95803  Biso   1.000  N
  N3       1.0000 0.74640  0.96088  0.04197  Biso   1.000  N
  N4       1.0000 0.75360  0.03912  0.54197  Biso   1.000  N
  N5       1.0000 0.74640  0.53912  0.54197  Biso   1.000  N
  N6       1.0000 0.75360  0.46088  0.04197  Biso   1.000  N
  N7       1.0000 0.25360  0.03912  0.95803  Biso   1.000  N
  N8       1.0000 0.24640  0.96088  0.45803  Biso   1.000  N
  N9       1.0000 0.45410  0.41889  0.38820  Biso   1.000  N
  N10      1.0000 0.04590  0.58111  0.88820  Biso   1.000  N
  N11      1.0000 0.54590  0.91889  0.11180  Biso   1.000  N
  N12      1.0000 0.95410  0.08111  0.61180  Biso   1.000  N
  N13      1.0000 0.54590  0.58111  0.61180  Biso   1.000  N
  N14      1.0000 0.95410  0.41889  0.11180  Biso   1.000  N
  N15      1.0000 0.45410  0.08111  0.88820  Biso   1.000  N
  N16      1.0000 0.04590  0.91889  0.38820  Biso   1.000  N
  N17      1.0000 0.38420  0.35399  0.39616  Biso   1.000  N
  N18      1.0000 0.11580  0.64601  0.89616  Biso   1.000  N
  N19      1.0000 0.61580  0.85399  0.10384  Biso   1.000  N
  N20      1.0000 0.88420  0.14601  0.60384  Biso   1.000  N
  N21      1.0000 0.61580  0.64601  0.60384  Biso   1.000  N
  N22      1.0000 0.88420  0.35399  0.10384  Biso   1.000  N
  N23      1.0000 0.38420  0.14601  0.89616  Biso   1.000  N
  N24      1.0000 0.11580  0.85399  0.39616  Biso   1.000  N
  N25      1.0000 0.45410  0.54260  0.42608  Biso   1.000  N
  N26      1.0000 0.04590  0.45740  0.92608  Biso   1.000  N
  N27      1.0000 0.54590  0.04260  0.07392  Biso   1.000  N
  N28      1.0000 0.95410  0.95740  0.57392  Biso   1.000  N
  N29      1.0000 0.54590  0.45740  0.57392  Biso   1.000  N
  N30      1.0000 0.95410  0.54260  0.07392  Biso   1.000  N
  N31      1.0000 0.45410  0.95740  0.92608  Biso   1.000  N
  N32      1.0000 0.04590  0.04260  0.42608  Biso   1.000  N
  N33      1.0000 0.75280  0.21791  0.48692  Biso   1.000  N
  N34      1.0000 0.74720  0.78209  0.98692  Biso   1.000  N
  N35      1.0000 0.24720  0.71791  0.01308  Biso   1.000  N
  N36      1.0000 0.25280  0.28209  0.51308  Biso   1.000  N
  N37      1.0000 0.24720  0.78209  0.51308  Biso   1.000  N
  N38      1.0000 0.25280  0.21791  0.01308  Biso   1.000  N
  N39      1.0000 0.75280  0.28209  0.98692  Biso   1.000  N
  N40      1.0000 0.74720  0.71791  0.48692  Biso   1.000  N
  S1       1.0000 0.90595  0.32299  0.41700  Biso   1.000  S
  S2       1.0000 0.59405  0.67701  0.91700  Biso   1.000  S
  S3       1.0000 0.09405  0.82299  0.08300  Biso   1.000  S
  S4       1.0000 0.40595  0.17701  0.58300  Biso   1.000  S
  S5       1.0000 0.09405  0.67701  0.58300  Biso   1.000  S
  S6       1.0000 0.40595  0.32299  0.08300  Biso   1.000  S
  S7       1.0000 0.90595  0.17701  0.91700  Biso   1.000  S
  S8       1.0000 0.59405  0.82299  0.41700  Biso   1.000  S
  S9       1.0000 0.52752  0.40114  0.28230  Biso   1.000  S
  S10      1.0000 0.97248  0.59886  0.78230  Biso   1.000  S
  S11      1.0000 0.47248  0.90114  0.21770  Biso   1.000  S
  S12      1.0000 0.02752  0.09886  0.71770  Biso   1.000  S
  S13      1.0000 0.47248  0.59886  0.71770  Biso   1.000  S
  S14      1.0000 0.02752  0.40114  0.21770  Biso   1.000  S
  S15      1.0000 0.52752  0.09886  0.78230  Biso   1.000  S
  S16      1.0000 0.97248  0.90114  0.28230  Biso   1.000  S
