data_image0
_cell_length_a       8.7415
_cell_length_b       14.894
_cell_length_c       10.2718
_cell_angle_alpha    90
_cell_angle_beta     90
_cell_angle_gamma    90

_symmetry_space_group_name_H-M    "P 1"
_symmetry_int_tables_number       1

loop_
  _symmetry_equiv_pos_as_xyz
  'x, y, z'

loop_
  _atom_site_label
  _atom_site_occupancy
  _atom_site_fract_x
  _atom_site_fract_y
  _atom_site_fract_z
  _atom_site_thermal_displace_type
  _atom_site_B_iso_or_equiv
  _atom_site_type_symbol
  I1       1.0000 0.00000  0.24777  0.25000  Biso   1.000  I
  I2       1.0000 0.50000  0.25223  0.75000  Biso   1.000  I
  I3       1.0000 0.00000  0.75223  0.75000  Biso   1.000  I
  I4       1.0000 0.50000  0.74777  0.25000  Biso   1.000  I
  Cu1      1.0000 0.00000  0.07630  0.25000  Biso   1.000  Cu
  Cu2      1.0000 0.50000  0.42370  0.75000  Biso   1.000  Cu
  Cu3      1.0000 0.00000  0.92370  0.75000  Biso   1.000  Cu
  Cu4      1.0000 0.50000  0.57630  0.25000  Biso   1.000  Cu
  N1       1.0000 0.86440  0.02170  0.38070  Biso   1.000  N
  N2       1.0000 0.63560  0.47830  0.88070  Biso   1.000  N
  N3       1.0000 0.36440  0.47830  0.61930  Biso   1.000  N
  N4       1.0000 0.13560  0.02170  0.11930  Biso   1.000  N
  N5       1.0000 0.13560  0.97830  0.61930  Biso   1.000  N
  N6       1.0000 0.36440  0.52170  0.11930  Biso   1.000  N
  N7       1.0000 0.63560  0.52170  0.38070  Biso   1.000  N
  N8       1.0000 0.86440  0.97830  0.88070  Biso   1.000  N
  N9       1.0000 0.50000  0.96310  0.75000  Biso   1.000  N
  N10      1.0000 0.00000  0.53690  0.25000  Biso   1.000  N
  N11      1.0000 0.50000  0.03690  0.25000  Biso   1.000  N
  N12      1.0000 0.00000  0.46310  0.75000  Biso   1.000  N
  C1       1.0000 0.84340  0.93260  0.39190  Biso   1.000  C
  C2       1.0000 0.65660  0.56740  0.89190  Biso   1.000  C
  C3       1.0000 0.34340  0.56740  0.60810  Biso   1.000  C
  C4       1.0000 0.15660  0.93260  0.10810  Biso   1.000  C
  C5       1.0000 0.15660  0.06740  0.60810  Biso   1.000  C
  C6       1.0000 0.34340  0.43260  0.10810  Biso   1.000  C
  C7       1.0000 0.65660  0.43260  0.39190  Biso   1.000  C
  C8       1.0000 0.84340  0.06740  0.89190  Biso   1.000  C
  H1       1.0000 0.89420  0.89540  0.33200  Biso   1.000  H
  H2       1.0000 0.60580  0.60460  0.83200  Biso   1.000  H
  H3       1.0000 0.39420  0.60460  0.66800  Biso   1.000  H
  H4       1.0000 0.10580  0.89540  0.16800  Biso   1.000  H
  H5       1.0000 0.10580  0.10460  0.66800  Biso   1.000  H
  H6       1.0000 0.39420  0.39540  0.16800  Biso   1.000  H
  H7       1.0000 0.60580  0.39540  0.33200  Biso   1.000  H
  H8       1.0000 0.89420  0.10460  0.83200  Biso   1.000  H
  C9       1.0000 0.75370  0.89220  0.48370  Biso   1.000  C
  C10      1.0000 0.74630  0.60780  0.98370  Biso   1.000  C
  C11      1.0000 0.25370  0.60780  0.51630  Biso   1.000  C
  C12      1.0000 0.24630  0.89220  0.01630  Biso   1.000  C
  C13      1.0000 0.24630  0.10780  0.51630  Biso   1.000  C
  C14      1.0000 0.25370  0.39220  0.01630  Biso   1.000  C
  C15      1.0000 0.74630  0.39220  0.48370  Biso   1.000  C
  C16      1.0000 0.75370  0.10780  0.98370  Biso   1.000  C
  H9       1.0000 0.74450  0.82940  0.48660  Biso   1.000  H
  H10      1.0000 0.75550  0.67060  0.98660  Biso   1.000  H
  H11      1.0000 0.24450  0.67060  0.51340  Biso   1.000  H
  H12      1.0000 0.25550  0.82940  0.01340  Biso   1.000  H
  H13      1.0000 0.25550  0.17060  0.51340  Biso   1.000  H
  H14      1.0000 0.24450  0.32940  0.01340  Biso   1.000  H
  H15      1.0000 0.75550  0.32940  0.48660  Biso   1.000  H
  H16      1.0000 0.74450  0.17060  0.98660  Biso   1.000  H
  C17      1.0000 0.67640  0.94580  0.57260  Biso   1.000  C
  C18      1.0000 0.82360  0.55420  0.07260  Biso   1.000  C
  C19      1.0000 0.17640  0.55420  0.42740  Biso   1.000  C
  C20      1.0000 0.32360  0.94580  0.92740  Biso   1.000  C
  C21      1.0000 0.32360  0.05420  0.42740  Biso   1.000  C
  C22      1.0000 0.17640  0.44580  0.92740  Biso   1.000  C
  C23      1.0000 0.82360  0.44580  0.57260  Biso   1.000  C
  C24      1.0000 0.67640  0.05420  0.07260  Biso   1.000  C
  C25      1.0000 0.69510  0.03830  0.56320  Biso   1.000  C
  C26      1.0000 0.80490  0.46170  0.06320  Biso   1.000  C
  C27      1.0000 0.19510  0.46170  0.43680  Biso   1.000  C
  C28      1.0000 0.30490  0.03830  0.93680  Biso   1.000  C
  C29      1.0000 0.30490  0.96170  0.43680  Biso   1.000  C
  C30      1.0000 0.19510  0.53830  0.93680  Biso   1.000  C
  C31      1.0000 0.80490  0.53830  0.56320  Biso   1.000  C
  C32      1.0000 0.69510  0.96170  0.06320  Biso   1.000  C
  H17      1.0000 0.64490  0.07720  0.62130  Biso   1.000  H
  H18      1.0000 0.85510  0.42280  0.12130  Biso   1.000  H
  H19      1.0000 0.14490  0.42280  0.37870  Biso   1.000  H
  H20      1.0000 0.35510  0.07720  0.87870  Biso   1.000  H
  H21      1.0000 0.35510  0.92280  0.37870  Biso   1.000  H
  H22      1.0000 0.14490  0.57720  0.87870  Biso   1.000  H
  H23      1.0000 0.85510  0.57720  0.62130  Biso   1.000  H
  H24      1.0000 0.64490  0.92280  0.12130  Biso   1.000  H
  C33      1.0000 0.78800  0.07160  0.46760  Biso   1.000  C
  C34      1.0000 0.71200  0.42840  0.96760  Biso   1.000  C
  C35      1.0000 0.28800  0.42840  0.53240  Biso   1.000  C
  C36      1.0000 0.21200  0.07160  0.03240  Biso   1.000  C
  C37      1.0000 0.21200  0.92840  0.53240  Biso   1.000  C
  C38      1.0000 0.28800  0.57160  0.03240  Biso   1.000  C
  C39      1.0000 0.71200  0.57160  0.46760  Biso   1.000  C
  C40      1.0000 0.78800  0.92840  0.96760  Biso   1.000  C
  H25      1.0000 0.79920  0.13420  0.46240  Biso   1.000  H
  H26      1.0000 0.70080  0.36580  0.96240  Biso   1.000  H
  H27      1.0000 0.29920  0.36580  0.53760  Biso   1.000  H
  H28      1.0000 0.20080  0.13420  0.03760  Biso   1.000  H
  H29      1.0000 0.20080  0.86580  0.53760  Biso   1.000  H
  H30      1.0000 0.29920  0.63420  0.03760  Biso   1.000  H
  H31      1.0000 0.70080  0.63420  0.46240  Biso   1.000  H
  H32      1.0000 0.79920  0.86580  0.96240  Biso   1.000  H
  N13      1.0000 0.58100  0.91250  0.66620  Biso   1.000  N
  N14      1.0000 0.91900  0.58750  0.16620  Biso   1.000  N
  N15      1.0000 0.08100  0.58750  0.33380  Biso   1.000  N
  N16      1.0000 0.41900  0.91250  0.83380  Biso   1.000  N
  N17      1.0000 0.41900  0.08750  0.33380  Biso   1.000  N
  N18      1.0000 0.08100  0.41250  0.83380  Biso   1.000  N
  N19      1.0000 0.91900  0.41250  0.66620  Biso   1.000  N
  N20      1.0000 0.58100  0.08750  0.16620  Biso   1.000  N
  C41      1.0000 0.53470  0.81900  0.68360  Biso   1.000  C
  C42      1.0000 0.96530  0.68100  0.18360  Biso   1.000  C
  C43      1.0000 0.03470  0.68100  0.31640  Biso   1.000  C
  C44      1.0000 0.46530  0.81900  0.81640  Biso   1.000  C
  C45      1.0000 0.46530  0.18100  0.31640  Biso   1.000  C
  C46      1.0000 0.03470  0.31900  0.81640  Biso   1.000  C
  C47      1.0000 0.96530  0.31900  0.68360  Biso   1.000  C
  C48      1.0000 0.53470  0.18100  0.18360  Biso   1.000  C
  H33      1.0000 0.56870  0.76930  0.63510  Biso   1.000  H
  H34      1.0000 0.93130  0.73070  0.13510  Biso   1.000  H
  H35      1.0000 0.06870  0.73070  0.36490  Biso   1.000  H
  H36      1.0000 0.43130  0.76930  0.86490  Biso   1.000  H
  H37      1.0000 0.43130  0.23070  0.36490  Biso   1.000  H
  H38      1.0000 0.06870  0.26930  0.86490  Biso   1.000  H
  H39      1.0000 0.93130  0.26930  0.63510  Biso   1.000  H
  H40      1.0000 0.56870  0.23070  0.13510  Biso   1.000  H
  C49      1.0000 0.43290  0.81770  0.78350  Biso   1.000  C
  C50      1.0000 0.06710  0.68230  0.28350  Biso   1.000  C
  C51      1.0000 0.93290  0.68230  0.21650  Biso   1.000  C
  C52      1.0000 0.56710  0.81770  0.71650  Biso   1.000  C
  C53      1.0000 0.56710  0.18230  0.21650  Biso   1.000  C
  C54      1.0000 0.93290  0.31770  0.71650  Biso   1.000  C
  C55      1.0000 0.06710  0.31770  0.78350  Biso   1.000  C
  C56      1.0000 0.43290  0.18230  0.28350  Biso   1.000  C
  H41      1.0000 0.38100  0.76750  0.81710  Biso   1.000  H
  H42      1.0000 0.11900  0.73250  0.31710  Biso   1.000  H
  H43      1.0000 0.88100  0.73250  0.18290  Biso   1.000  H
  H44      1.0000 0.61900  0.76750  0.68290  Biso   1.000  H
  H45      1.0000 0.61900  0.23250  0.18290  Biso   1.000  H
  H46      1.0000 0.88100  0.26750  0.68290  Biso   1.000  H
  H47      1.0000 0.11900  0.26750  0.81710  Biso   1.000  H
  H48      1.0000 0.38100  0.23250  0.31710  Biso   1.000  H
  C57      1.0000 0.42200  0.90240  0.82400  Biso   1.000  C
  C58      1.0000 0.07800  0.59760  0.32400  Biso   1.000  C
  C59      1.0000 0.92200  0.59760  0.17600  Biso   1.000  C
  C60      1.0000 0.57800  0.90240  0.67600  Biso   1.000  C
  C61      1.0000 0.57800  0.09760  0.17600  Biso   1.000  C
  C62      1.0000 0.92200  0.40240  0.67600  Biso   1.000  C
  C63      1.0000 0.07800  0.40240  0.82400  Biso   1.000  C
  C64      1.0000 0.42200  0.09760  0.32400  Biso   1.000  C
