data_image0
_cell_length_a       9.889
_cell_length_b       10.169
_cell_length_c       10.898
_cell_angle_alpha    91.87
_cell_angle_beta     95.71
_cell_angle_gamma    116.91

_symmetry_space_group_name_H-M    "P 1"
_symmetry_int_tables_number       1

loop_
  _symmetry_equiv_pos_as_xyz
  'x, y, z'

loop_
  _atom_site_label
  _atom_site_occupancy
  _atom_site_fract_x
  _atom_site_fract_y
  _atom_site_fract_z
  _atom_site_thermal_displace_type
  _atom_site_B_iso_or_equiv
  _atom_site_type_symbol
  Cu1      1.0000 0.05524  0.15718  0.01866  Biso   1.000  Cu
  Cu2      1.0000 0.94476  0.84282  0.98134  Biso   1.000  Cu
  Cu3      1.0000 0.35648  0.00109  0.99653  Biso   1.000  Cu
  Cu4      1.0000 0.64352  0.99891  0.00347  Biso   1.000  Cu
  I1       1.0000 0.17705  0.01409  0.15209  Biso   1.000  I
  I2       1.0000 0.82295  0.98591  0.84791  Biso   1.000  I
  I3       1.0000 0.60934  0.24136  0.99211  Biso   1.000  I
  I4       1.0000 0.39066  0.75864  0.00789  Biso   1.000  I
  N1       1.0000 0.99990  0.28310  0.13540  Biso   1.000  N
  N2       1.0000 0.00010  0.71690  0.86460  Biso   1.000  N
  N3       1.0000 0.85990  0.31090  0.29180  Biso   1.000  N
  N4       1.0000 0.14010  0.68910  0.70820  Biso   1.000  N
  N5       1.0000 0.22200  0.30190  0.92860  Biso   1.000  N
  N6       1.0000 0.77800  0.69810  0.07140  Biso   1.000  N
  S1       1.0000 0.79135  0.03675  0.20498  Biso   1.000  S
  S2       1.0000 0.20865  0.96325  0.79502  Biso   1.000  S
  C1       1.0000 0.89420  0.23180  0.21420  Biso   1.000  C
  C2       1.0000 0.10580  0.76820  0.78580  Biso   1.000  C
  C3       1.0000 0.07010  0.43030  0.13510  Biso   1.000  C
  C4       1.0000 0.92990  0.56970  0.86490  Biso   1.000  C
  H1       1.0000 0.14460  0.47260  0.08160  Biso   1.000  H
  H2       1.0000 0.85540  0.52740  0.91840  Biso   1.000  H
  C5       1.0000 0.03930  0.52360  0.20870  Biso   1.000  C
  C6       1.0000 0.96070  0.47640  0.79130  Biso   1.000  C
  H3       1.0000 0.08850  0.62670  0.20410  Biso   1.000  H
  H4       1.0000 0.91150  0.37330  0.79590  Biso   1.000  H
  C7       1.0000 0.93200  0.45850  0.29010  Biso   1.000  C
  C8       1.0000 0.06800  0.54150  0.70990  Biso   1.000  C
  C9       1.0000 0.88760  0.54400  0.37720  Biso   1.000  C
  C10      1.0000 0.11240  0.45600  0.62280  Biso   1.000  C
  C11      1.0000 0.94420  0.69680  0.37630  Biso   1.000  C
  C12      1.0000 0.05580  0.30320  0.62370  Biso   1.000  C
  H5       1.0000 0.01260  0.74840  0.32050  Biso   1.000  H
  H6       1.0000 0.98740  0.25160  0.67950  Biso   1.000  H
  C13      1.0000 0.89990  0.77190  0.45720  Biso   1.000  C
  C14      1.0000 0.10010  0.22810  0.54280  Biso   1.000  C
  H7       1.0000 0.93850  0.87500  0.45630  Biso   1.000  H
  H8       1.0000 0.06150  0.12500  0.54370  Biso   1.000  H
  C15      1.0000 0.79990  0.69870  0.53970  Biso   1.000  C
  C16      1.0000 0.20010  0.30130  0.46030  Biso   1.000  C
  H9       1.0000 0.77050  0.75130  0.59460  Biso   1.000  H
  H10      1.0000 0.22950  0.24870  0.40540  Biso   1.000  H
  C17      1.0000 0.74350  0.54850  0.54100  Biso   1.000  C
  C18      1.0000 0.25650  0.45150  0.45900  Biso   1.000  C
  H11      1.0000 0.67440  0.49770  0.59650  Biso   1.000  H
  H12      1.0000 0.32560  0.50230  0.40350  Biso   1.000  H
  C19      1.0000 0.78780  0.47130  0.46090  Biso   1.000  C
  C20      1.0000 0.21220  0.52870  0.53910  Biso   1.000  C
  H13      1.0000 0.74970  0.36840  0.46330  Biso   1.000  H
  H14      1.0000 0.25030  0.63160  0.53670  Biso   1.000  H
  C21      1.0000 0.63890  0.00990  0.29990  Biso   1.000  C
  C22      1.0000 0.36110  0.99010  0.70010  Biso   1.000  C
  H15      1.0000 0.60780  0.08770  0.28670  Biso   1.000  H
  H16      1.0000 0.39220  0.91230  0.71330  Biso   1.000  H
  H17      1.0000 0.55000  0.91460  0.27210  Biso   1.000  H
  H18      1.0000 0.45000  0.08540  0.72790  Biso   1.000  H
  C23      1.0000 0.68340  0.01270  0.43110  Biso   1.000  C
  C24      1.0000 0.31660  0.98730  0.56890  Biso   1.000  C
  H19      1.0000 0.75680  0.11380  0.46390  Biso   1.000  H
  H20      1.0000 0.24320  0.88620  0.53610  Biso   1.000  H
  H21      1.0000 0.73310  0.94900  0.44410  Biso   1.000  H
  H22      1.0000 0.26690  0.05100  0.55590  Biso   1.000  H
  C25      1.0000 0.53570  0.95580  0.50320  Biso   1.000  C
  C26      1.0000 0.46430  0.04420  0.49680  Biso   1.000  C
  H23      1.0000 0.46240  0.85550  0.46840  Biso   1.000  H
  H24      1.0000 0.53760  0.14450  0.53160  Biso   1.000  H
  H25      1.0000 0.56670  0.95040  0.59040  Biso   1.000  H
  H26      1.0000 0.43330  0.04960  0.40960  Biso   1.000  H
  C27      1.0000 0.31710  0.37380  0.87450  Biso   1.000  C
  C28      1.0000 0.68290  0.62620  0.12550  Biso   1.000  C
  C29      1.0000 0.43760  0.46300  0.80310  Biso   1.000  C
  C30      1.0000 0.56240  0.53700  0.19690  Biso   1.000  C
  H27      1.0000 0.52170  0.43870  0.81770  Biso   1.000  H
  H28      1.0000 0.47830  0.56130  0.18230  Biso   1.000  H
  H29      1.0000 0.47350  0.56710  0.82800  Biso   1.000  H
  H30      1.0000 0.52650  0.43290  0.17200  Biso   1.000  H
  H31      1.0000 0.39830  0.44310  0.71570  Biso   1.000  H
  H32      1.0000 0.60170  0.55690  0.28430  Biso   1.000  H
