data_image0
_cell_length_a       10.6511
_cell_length_b       23.321
_cell_length_c       7.0111
_cell_angle_alpha    90
_cell_angle_beta     105.044
_cell_angle_gamma    90

_symmetry_space_group_name_H-M    "P 1"
_symmetry_int_tables_number       1

loop_
  _symmetry_equiv_pos_as_xyz
  'x, y, z'

loop_
  _atom_site_label
  _atom_site_occupancy
  _atom_site_fract_x
  _atom_site_fract_y
  _atom_site_fract_z
  _atom_site_thermal_displace_type
  _atom_site_B_iso_or_equiv
  _atom_site_type_symbol
  Cu1      1.0000 0.25554  0.33425  0.91097  Biso   1.000  Cu
  Cu2      1.0000 0.74446  0.83425  0.58903  Biso   1.000  Cu
  Cu3      1.0000 0.74446  0.66575  0.08903  Biso   1.000  Cu
  Cu4      1.0000 0.25554  0.16575  0.41097  Biso   1.000  Cu
  N1       1.0000 0.07930  0.30297  0.78830  Biso   1.000  N
  N2       1.0000 0.92070  0.80297  0.71170  Biso   1.000  N
  N3       1.0000 0.92070  0.69703  0.21170  Biso   1.000  N
  N4       1.0000 0.07930  0.19703  0.28830  Biso   1.000  N
  O1       1.0000 0.88370  0.42750  0.23120  Biso   1.000  O
  O2       1.0000 0.11630  0.92750  0.26880  Biso   1.000  O
  O3       1.0000 0.11630  0.57250  0.76880  Biso   1.000  O
  O4       1.0000 0.88370  0.07250  0.73120  Biso   1.000  O
  H1       1.0000 0.81380  0.43560  0.25310  Biso   1.000  H
  H2       1.0000 0.18620  0.93560  0.24690  Biso   1.000  H
  H3       1.0000 0.18620  0.56440  0.74690  Biso   1.000  H
  H4       1.0000 0.81380  0.06440  0.75310  Biso   1.000  H
  O5       1.0000 0.34230  0.55931  0.73330  Biso   1.000  O
  O6       1.0000 0.65770  0.05931  0.76670  Biso   1.000  O
  O7       1.0000 0.65770  0.44069  0.26670  Biso   1.000  O
  O8       1.0000 0.34230  0.94069  0.23330  Biso   1.000  O
  H5       1.0000 0.33910  0.41780  0.67210  Biso   1.000  H
  H6       1.0000 0.66090  0.91780  0.82790  Biso   1.000  H
  H7       1.0000 0.66090  0.58220  0.32790  Biso   1.000  H
  H8       1.0000 0.33910  0.08220  0.17210  Biso   1.000  H
  H9       1.0000 0.21970  0.42240  0.65530  Biso   1.000  H
  H10      1.0000 0.78030  0.92240  0.84470  Biso   1.000  H
  H11      1.0000 0.78030  0.57760  0.34470  Biso   1.000  H
  H12      1.0000 0.21970  0.07760  0.15530  Biso   1.000  H
  N5       1.0000 0.23080  0.40329  0.09430  Biso   1.000  N
  N6       1.0000 0.76920  0.90329  0.40570  Biso   1.000  N
  N7       1.0000 0.76920  0.59671  0.90570  Biso   1.000  N
  N8       1.0000 0.23080  0.09671  0.59430  Biso   1.000  N
  O9       1.0000 0.50490  0.53445  0.21890  Biso   1.000  O
  O10      1.0000 0.49510  0.03445  0.28110  Biso   1.000  O
  O11      1.0000 0.49510  0.46555  0.78110  Biso   1.000  O
  O12      1.0000 0.50490  0.96555  0.71890  Biso   1.000  O
  O13      1.0000 0.92330  0.52059  0.29330  Biso   1.000  O
  O14      1.0000 0.07670  0.02059  0.20670  Biso   1.000  O
  O15      1.0000 0.07670  0.47941  0.70670  Biso   1.000  O
  O16      1.0000 0.92330  0.97941  0.79330  Biso   1.000  O
  O17      1.0000 0.38670  0.58268  0.38190  Biso   1.000  O
  O18      1.0000 0.61330  0.08268  0.11810  Biso   1.000  O
  O19      1.0000 0.61330  0.41732  0.61810  Biso   1.000  O
  O20      1.0000 0.38670  0.91732  0.88190  Biso   1.000  O
  C1       1.0000 0.04900  0.24710  0.79200  Biso   1.000  C
  C2       1.0000 0.95100  0.74710  0.70800  Biso   1.000  C
  C3       1.0000 0.95100  0.75290  0.20800  Biso   1.000  C
  C4       1.0000 0.04900  0.25290  0.29200  Biso   1.000  C
  H13      1.0000 0.11590  0.22130  0.84250  Biso   1.000  H
  H14      1.0000 0.88410  0.72130  0.65750  Biso   1.000  H
  H15      1.0000 0.88410  0.77870  0.15750  Biso   1.000  H
  H16      1.0000 0.11590  0.27870  0.34250  Biso   1.000  H
  C5       1.0000 0.82150  0.26339  0.65160  Biso   1.000  C
  C6       1.0000 0.17850  0.76339  0.84840  Biso   1.000  C
  C7       1.0000 0.17850  0.73661  0.34840  Biso   1.000  C
  C8       1.0000 0.82150  0.23661  0.15160  Biso   1.000  C
  C9       1.0000 0.95690  0.47324  0.25340  Biso   1.000  C
  C10      1.0000 0.04310  0.97324  0.24660  Biso   1.000  C
  C11      1.0000 0.04310  0.52676  0.74660  Biso   1.000  C
  C12      1.0000 0.95690  0.02676  0.75340  Biso   1.000  C
  C13      1.0000 0.57970  0.27900  0.55990  Biso   1.000  C
  C14      1.0000 0.42030  0.77900  0.94010  Biso   1.000  C
  C15      1.0000 0.42030  0.72100  0.44010  Biso   1.000  C
  C16      1.0000 0.57970  0.22100  0.05990  Biso   1.000  C
  H17      1.0000 0.59260  0.31830  0.57890  Biso   1.000  H
  H18      1.0000 0.40740  0.81830  0.92110  Biso   1.000  H
  H19      1.0000 0.40740  0.68170  0.42110  Biso   1.000  H
  H20      1.0000 0.59260  0.18170  0.07890  Biso   1.000  H
  O21      1.0000 0.27420  0.39559  0.65630  Biso   1.000  O
  O22      1.0000 0.72580  0.89559  0.84370  Biso   1.000  O
  O23      1.0000 0.72580  0.60441  0.34370  Biso   1.000  O
  O24      1.0000 0.27420  0.10441  0.15630  Biso   1.000  O
  H21      1.0000 0.37450  0.52670  0.77340  Biso   1.000  H
  H22      1.0000 0.62550  0.02670  0.72660  Biso   1.000  H
  H23      1.0000 0.62550  0.47330  0.22660  Biso   1.000  H
  H24      1.0000 0.37450  0.97330  0.27340  Biso   1.000  H
  H25      1.0000 0.35500  0.56310  0.61900  Biso   1.000  H
  H26      1.0000 0.64500  0.06310  0.88100  Biso   1.000  H
  H27      1.0000 0.64500  0.43690  0.38100  Biso   1.000  H
  H28      1.0000 0.35500  0.93690  0.11900  Biso   1.000  H
  C17      1.0000 0.18250  0.50477  0.26780  Biso   1.000  C
  C18      1.0000 0.81750  0.00477  0.23220  Biso   1.000  C
  C19      1.0000 0.81750  0.49523  0.73220  Biso   1.000  C
  C20      1.0000 0.18250  0.99523  0.76780  Biso   1.000  C
  H29      1.0000 0.16580  0.53890  0.32530  Biso   1.000  H
  H30      1.0000 0.83420  0.03890  0.17470  Biso   1.000  H
  H31      1.0000 0.83420  0.46110  0.67470  Biso   1.000  H
  H32      1.0000 0.16580  0.96110  0.82530  Biso   1.000  H
  C21      1.0000 0.08740  0.46268  0.22040  Biso   1.000  C
  C22      1.0000 0.91260  0.96268  0.27960  Biso   1.000  C
  C23      1.0000 0.91260  0.53732  0.77960  Biso   1.000  C
  C24      1.0000 0.08740  0.03732  0.72040  Biso   1.000  C
  C25      1.0000 0.30110  0.49604  0.23000  Biso   1.000  C
  C26      1.0000 0.69890  0.99604  0.27000  Biso   1.000  C
  C27      1.0000 0.69890  0.50396  0.77000  Biso   1.000  C
  C28      1.0000 0.30110  0.00396  0.73000  Biso   1.000  C
  C29      1.0000 0.85320  0.32095  0.64600  Biso   1.000  C
  C30      1.0000 0.14680  0.82095  0.85400  Biso   1.000  C
  C31      1.0000 0.14680  0.67905  0.35400  Biso   1.000  C
  C32      1.0000 0.85320  0.17905  0.14600  Biso   1.000  C
  H33      1.0000 0.78820  0.34770  0.59680  Biso   1.000  H
  H34      1.0000 0.21180  0.84770  0.90320  Biso   1.000  H
  H35      1.0000 0.21180  0.65230  0.40320  Biso   1.000  H
  H36      1.0000 0.78820  0.15230  0.09680  Biso   1.000  H
  C33      1.0000 0.92470  0.22588  0.72540  Biso   1.000  C
  C34      1.0000 0.07530  0.72588  0.77460  Biso   1.000  C
  C35      1.0000 0.07530  0.77412  0.27460  Biso   1.000  C
  C36      1.0000 0.92470  0.27412  0.22540  Biso   1.000  C
  H37      1.0000 0.90950  0.18670  0.72950  Biso   1.000  H
  H38      1.0000 0.09050  0.68670  0.77050  Biso   1.000  H
  H39      1.0000 0.09050  0.81330  0.27050  Biso   1.000  H
  H40      1.0000 0.90950  0.31330  0.22950  Biso   1.000  H
  C37      1.0000 0.68550  0.24224  0.58510  Biso   1.000  C
  C38      1.0000 0.31450  0.74224  0.91490  Biso   1.000  C
  C39      1.0000 0.31450  0.75776  0.41490  Biso   1.000  C
  C40      1.0000 0.68550  0.25776  0.08510  Biso   1.000  C
  C41      1.0000 0.40740  0.54121  0.28130  Biso   1.000  C
  C42      1.0000 0.59260  0.04121  0.21870  Biso   1.000  C
  C43      1.0000 0.59260  0.45879  0.71870  Biso   1.000  C
  C44      1.0000 0.40740  0.95879  0.78130  Biso   1.000  C
  C45      1.0000 0.65850  0.18475  0.54730  Biso   1.000  C
  C46      1.0000 0.34150  0.68475  0.95270  Biso   1.000  C
  C47      1.0000 0.34150  0.81525  0.45270  Biso   1.000  C
  C48      1.0000 0.65850  0.31525  0.04730  Biso   1.000  C
  H41      1.0000 0.72610  0.15860  0.55930  Biso   1.000  H
  H42      1.0000 0.27390  0.65860  0.94070  Biso   1.000  H
  H43      1.0000 0.27390  0.84140  0.44070  Biso   1.000  H
  H44      1.0000 0.72610  0.34140  0.05930  Biso   1.000  H
  C49      1.0000 0.97960  0.33862  0.71250  Biso   1.000  C
  C50      1.0000 0.02040  0.83862  0.78750  Biso   1.000  C
  C51      1.0000 0.02040  0.66138  0.28750  Biso   1.000  C
  C52      1.0000 0.97960  0.16138  0.21250  Biso   1.000  C
  H45      1.0000 0.99750  0.37750  0.70490  Biso   1.000  H
  H46      1.0000 0.00250  0.87750  0.79510  Biso   1.000  H
  H47      1.0000 0.00250  0.62250  0.29510  Biso   1.000  H
  H48      1.0000 0.99750  0.12250  0.20490  Biso   1.000  H
  C53      1.0000 0.31990  0.44466  0.14000  Biso   1.000  C
  C54      1.0000 0.68010  0.94466  0.36000  Biso   1.000  C
  C55      1.0000 0.68010  0.55534  0.86000  Biso   1.000  C
  C56      1.0000 0.31990  0.05534  0.64000  Biso   1.000  C
  H49      1.0000 0.39910  0.43890  0.11010  Biso   1.000  H
  H50      1.0000 0.60090  0.93890  0.38990  Biso   1.000  H
  H51      1.0000 0.60090  0.56110  0.88990  Biso   1.000  H
  H52      1.0000 0.39910  0.06110  0.61010  Biso   1.000  H
  C57      1.0000 0.11760  0.41237  0.13760  Biso   1.000  C
  C58      1.0000 0.88240  0.91237  0.36240  Biso   1.000  C
  C59      1.0000 0.88240  0.58763  0.86240  Biso   1.000  C
  C60      1.0000 0.11760  0.08763  0.63760  Biso   1.000  C
  H53      1.0000 0.05560  0.38330  0.11060  Biso   1.000  H
  H54      1.0000 0.94440  0.88330  0.38940  Biso   1.000  H
  H55      1.0000 0.94440  0.61670  0.88940  Biso   1.000  H
  H56      1.0000 0.05560  0.11670  0.61060  Biso   1.000  H
  C61      1.0000 0.45620  0.25688  0.50680  Biso   1.000  C
  C62      1.0000 0.54380  0.75688  0.99320  Biso   1.000  C
  C63      1.0000 0.54380  0.74312  0.49320  Biso   1.000  C
  C64      1.0000 0.45620  0.24312  0.00680  Biso   1.000  C
  H57      1.0000 0.38660  0.28200  0.49290  Biso   1.000  H
  H58      1.0000 0.61340  0.78200  0.00710  Biso   1.000  H
  H59      1.0000 0.61340  0.71800  0.50710  Biso   1.000  H
  H60      1.0000 0.38660  0.21800  0.99290  Biso   1.000  H
  N9       1.0000 0.43000  0.20061  0.47370  Biso   1.000  N
  N10      1.0000 0.57000  0.70061  0.02630  Biso   1.000  N
  N11      1.0000 0.57000  0.79939  0.52630  Biso   1.000  N
  N12      1.0000 0.43000  0.29939  0.97370  Biso   1.000  N
  C65      1.0000 0.53260  0.16626  0.49210  Biso   1.000  C
  C66      1.0000 0.46740  0.66626  0.00790  Biso   1.000  C
  C67      1.0000 0.46740  0.83374  0.50790  Biso   1.000  C
  C68      1.0000 0.53260  0.33374  0.99210  Biso   1.000  C
  H61      1.0000 0.51750  0.12740  0.46590  Biso   1.000  H
  H62      1.0000 0.48250  0.62740  0.03410  Biso   1.000  H
  H63      1.0000 0.48250  0.87260  0.53410  Biso   1.000  H
  H64      1.0000 0.51750  0.37260  0.96590  Biso   1.000  H
