data_image0
_cell_length_a       8.872
_cell_length_b       9.726
_cell_length_c       10.354
_cell_angle_alpha    96.56
_cell_angle_beta     101.76
_cell_angle_gamma    93.33

_symmetry_space_group_name_H-M    "P 1"
_symmetry_int_tables_number       1

loop_
  _symmetry_equiv_pos_as_xyz
  'x, y, z'

loop_
  _atom_site_label
  _atom_site_occupancy
  _atom_site_fract_x
  _atom_site_fract_y
  _atom_site_fract_z
  _atom_site_thermal_displace_type
  _atom_site_B_iso_or_equiv
  _atom_site_type_symbol
  Br1      1.0000 0.25936  0.21108  0.49695  Biso   1.000  Br
  Br2      1.0000 0.74064  0.78892  0.50305  Biso   1.000  Br
  Br3      1.0000 0.05128  0.53504  0.69440  Biso   1.000  Br
  Br4      1.0000 0.94872  0.46496  0.30560  Biso   1.000  Br
  Cu1      1.0000 0.49284  0.32474  0.41014  Biso   1.000  Cu
  Cu2      1.0000 0.50716  0.67526  0.58986  Biso   1.000  Cu
  Cu3      1.0000 0.10797  0.39675  0.50686  Biso   1.000  Cu
  Cu4      1.0000 0.89203  0.60325  0.49314  Biso   1.000  Cu
  S1       1.0000 0.75364  0.14862  0.63900  Biso   1.000  S
  S2       1.0000 0.24636  0.85138  0.36100  Biso   1.000  S
  N1       1.0000 0.61400  0.52110  0.67110  Biso   1.000  N
  N2       1.0000 0.38600  0.47890  0.32890  Biso   1.000  N
  N3       1.0000 0.61940  0.39350  0.59690  Biso   1.000  N
  N4       1.0000 0.38060  0.60650  0.40310  Biso   1.000  N
  N5       1.0000 0.74710  0.38680  0.80080  Biso   1.000  N
  N6       1.0000 0.25290  0.61320  0.19920  Biso   1.000  N
  C1       1.0000 0.69200  0.51470  0.79330  Biso   1.000  C
  C2       1.0000 0.30800  0.48530  0.20670  Biso   1.000  C
  C3       1.0000 0.70200  0.31540  0.67630  Biso   1.000  C
  C4       1.0000 0.29800  0.68460  0.32370  Biso   1.000  C
  C5       1.0000 0.76250  0.15450  0.46490  Biso   1.000  C
  C6       1.0000 0.23750  0.84550  0.53510  Biso   1.000  C
  H1       1.0000 0.81920  0.24300  0.45750  Biso   1.000  H
  H2       1.0000 0.18080  0.75700  0.54250  Biso   1.000  H
  H3       1.0000 0.82170  0.07780  0.43600  Biso   1.000  H
  H4       1.0000 0.17830  0.92220  0.56400  Biso   1.000  H
  C7       1.0000 0.60690  0.14280  0.37300  Biso   1.000  C
  C8       1.0000 0.39310  0.85720  0.62700  Biso   1.000  C
  H5       1.0000 0.52490  0.08710  0.39240  Biso   1.000  H
  H6       1.0000 0.47510  0.91290  0.60760  Biso   1.000  H
  C9       1.0000 0.57890  0.20890  0.26280  Biso   1.000  C
  C10      1.0000 0.42110  0.79110  0.73720  Biso   1.000  C
  H7       1.0000 0.65960  0.26510  0.24180  Biso   1.000  H
  H8       1.0000 0.34040  0.73490  0.75820  Biso   1.000  H
  H9       1.0000 0.47870  0.19900  0.20690  Biso   1.000  H
  H10      1.0000 0.52130  0.80100  0.79310  Biso   1.000  H
  C11      1.0000 0.84970  0.34050  0.91390  Biso   1.000  C
  C12      1.0000 0.15030  0.65950  0.08610  Biso   1.000  C
  H11      1.0000 0.89040  0.42180  0.98110  Biso   1.000  H
  H12      1.0000 0.10960  0.57820  0.01890  Biso   1.000  H
  H13      1.0000 0.93860  0.30080  0.88340  Biso   1.000  H
  H14      1.0000 0.06140  0.69920  0.11660  Biso   1.000  H
  C13      1.0000 0.77190  0.23410  0.97790  Biso   1.000  C
  C14      1.0000 0.22810  0.76590  0.02210  Biso   1.000  C
  H15      1.0000 0.82990  0.20720  0.05740  Biso   1.000  H
  H16      1.0000 0.17010  0.79280  0.94260  Biso   1.000  H
  C15      1.0000 0.63140  0.17450  0.93460  Biso   1.000  C
  C16      1.0000 0.36860  0.82550  0.06540  Biso   1.000  C
  H17      1.0000 0.56890  0.19800  0.85550  Biso   1.000  H
  H18      1.0000 0.43110  0.80200  0.14450  Biso   1.000  H
  H19      1.0000 0.59200  0.10790  0.98230  Biso   1.000  H
  H20      1.0000 0.40800  0.89210  0.01770  Biso   1.000  H
  C17      1.0000 0.72770  0.62970  0.90250  Biso   1.000  C
  C18      1.0000 0.27230  0.37030  0.09750  Biso   1.000  C
  C19      1.0000 0.79290  0.75660  0.87930  Biso   1.000  C
  C20      1.0000 0.20710  0.24340  0.12070  Biso   1.000  C
  H21      1.0000 0.81390  0.76760  0.79460  Biso   1.000  H
  H22      1.0000 0.18610  0.23240  0.20540  Biso   1.000  H
  C21      1.0000 0.82650  0.86640  0.98210  Biso   1.000  C
  C22      1.0000 0.17350  0.13360  0.01790  Biso   1.000  C
  H23      1.0000 0.86940  0.95330  0.96660  Biso   1.000  H
  H24      1.0000 0.13060  0.04670  0.03340  Biso   1.000  H
  C23      1.0000 0.79890  0.85110  0.10490  Biso   1.000  C
  C24      1.0000 0.20110  0.14890  0.89510  Biso   1.000  C
  H25      1.0000 0.82170  0.92740  0.17380  Biso   1.000  H
  H26      1.0000 0.17830  0.07260  0.82620  Biso   1.000  H
  C25      1.0000 0.73710  0.72400  0.12950  Biso   1.000  C
  C26      1.0000 0.26290  0.27600  0.87050  Biso   1.000  C
  H27      1.0000 0.72050  0.71320  0.21560  Biso   1.000  H
  H28      1.0000 0.27950  0.28680  0.78440  Biso   1.000  H
  C27      1.0000 0.70000  0.61330  0.02850  Biso   1.000  C
  C28      1.0000 0.30000  0.38670  0.97150  Biso   1.000  C
  H29      1.0000 0.65610  0.52710  0.04460  Biso   1.000  H
  H30      1.0000 0.34390  0.47290  0.95540  Biso   1.000  H
