data_image0
_cell_length_a       11.456
_cell_length_b       15.09
_cell_length_c       18.44
_cell_angle_alpha    94.674
_cell_angle_beta     104.391
_cell_angle_gamma    101.276

_symmetry_space_group_name_H-M    "P 1"
_symmetry_int_tables_number       1

loop_
  _symmetry_equiv_pos_as_xyz
  'x, y, z'

loop_
  _atom_site_label
  _atom_site_occupancy
  _atom_site_fract_x
  _atom_site_fract_y
  _atom_site_fract_z
  _atom_site_thermal_displace_type
  _atom_site_B_iso_or_equiv
  _atom_site_type_symbol
  Cu1      1.0000 0.58802  0.87443  0.36266  Biso   1.000  Cu
  Cu2      1.0000 0.41198  0.12557  0.63734  Biso   1.000  Cu
  Cu3      1.0000 0.13444  0.83617  0.27062  Biso   1.000  Cu
  Cu4      1.0000 0.86556  0.16383  0.72938  Biso   1.000  Cu
  Cu5      1.0000 0.84598  0.04063  0.21604  Biso   1.000  Cu
  Cu6      1.0000 0.15402  0.95937  0.78396  Biso   1.000  Cu
  P1       1.0000 0.67512  0.79655  0.45170  Biso   1.000  P
  P2       1.0000 0.32488  0.20345  0.54830  Biso   1.000  P
  P3       1.0000 0.04010  0.68811  0.22804  Biso   1.000  P
  P4       1.0000 0.95990  0.31189  0.77196  Biso   1.000  P
  P5       1.0000 0.83954  0.14440  0.13817  Biso   1.000  P
  P6       1.0000 0.16046  0.85560  0.86183  Biso   1.000  P
  N1       1.0000 0.31000  0.85379  0.32113  Biso   1.000  N
  N2       1.0000 0.69000  0.14621  0.67887  Biso   1.000  N
  N3       1.0000 0.98440  0.98070  0.23932  Biso   1.000  N
  N4       1.0000 0.01560  0.01930  0.76068  Biso   1.000  N
  N5       1.0000 0.67250  0.94530  0.29978  Biso   1.000  N
  N6       1.0000 0.32750  0.05470  0.70022  Biso   1.000  N
  C1       1.0000 0.84450  0.83250  0.48762  Biso   1.000  C
  C2       1.0000 0.15550  0.16750  0.51238  Biso   1.000  C
  H1       1.0000 0.85920  0.89630  0.50970  Biso   1.000  H
  H2       1.0000 0.14080  0.10370  0.49030  Biso   1.000  H
  C3       1.0000 0.90870  0.83680  0.42522  Biso   1.000  C
  C4       1.0000 0.09130  0.16320  0.57478  Biso   1.000  C
  H3       1.0000 0.87010  0.87170  0.38810  Biso   1.000  H
  H4       1.0000 0.12990  0.12830  0.61190  Biso   1.000  H
  H5       1.0000 0.89780  0.77540  0.40020  Biso   1.000  H
  H6       1.0000 0.10220  0.22460  0.59980  Biso   1.000  H
  C5       1.0000 0.04630  0.88000  0.45390  Biso   1.000  C
  C6       1.0000 0.95370  0.12000  0.54610  Biso   1.000  C
  H7       1.0000 0.08410  0.87290  0.41280  Biso   1.000  H
  H8       1.0000 0.91590  0.12710  0.58720  Biso   1.000  H
  H9       1.0000 0.05680  0.94480  0.46880  Biso   1.000  H
  H10      1.0000 0.94320  0.05520  0.53120  Biso   1.000  H
  C7       1.0000 0.11270  0.83970  0.51966  Biso   1.000  C
  C8       1.0000 0.88730  0.16030  0.48034  Biso   1.000  C
  H11      1.0000 0.11880  0.77880  0.50230  Biso   1.000  H
  H12      1.0000 0.88120  0.22120  0.49770  Biso   1.000  H
  H13      1.0000 0.19590  0.87660  0.54030  Biso   1.000  H
  H14      1.0000 0.80410  0.12340  0.45970  Biso   1.000  H
  C9       1.0000 0.04690  0.83520  0.58000  Biso   1.000  C
  C10      1.0000 0.95310  0.16480  0.42000  Biso   1.000  C
  H15      1.0000 0.05370  0.89670  0.60320  Biso   1.000  H
  H16      1.0000 0.94630  0.10330  0.39680  Biso   1.000  H
  H17      1.0000 0.08700  0.80280  0.61870  Biso   1.000  H
  H18      1.0000 0.91300  0.19720  0.38130  Biso   1.000  H
  C11      1.0000 0.91080  0.78800  0.55050  Biso   1.000  C
  C12      1.0000 0.08920  0.21200  0.44950  Biso   1.000  C
  H19      1.0000 0.90360  0.72450  0.53230  Biso   1.000  H
  H20      1.0000 0.09640  0.27550  0.46770  Biso   1.000  H
  H21      1.0000 0.87190  0.78990  0.59160  Biso   1.000  H
  H22      1.0000 0.12810  0.21010  0.40840  Biso   1.000  H
  C13      1.0000 0.62020  0.80069  0.53667  Biso   1.000  C
  C14      1.0000 0.37980  0.19931  0.46333  Biso   1.000  C
  H23      1.0000 0.65540  0.75860  0.56880  Biso   1.000  H
  H24      1.0000 0.34460  0.24140  0.43120  Biso   1.000  H
  C15      1.0000 0.47880  0.77140  0.51728  Biso   1.000  C
  C16      1.0000 0.52120  0.22860  0.48272  Biso   1.000  C
  H25      1.0000 0.44260  0.81050  0.48320  Biso   1.000  H
  H26      1.0000 0.55740  0.18950  0.51680  Biso   1.000  H
  H27      1.0000 0.45230  0.70930  0.49140  Biso   1.000  H
  H28      1.0000 0.54770  0.29070  0.50860  Biso   1.000  H
  C17      1.0000 0.43220  0.77660  0.58714  Biso   1.000  C
  C18      1.0000 0.56780  0.22340  0.41286  Biso   1.000  C
  H29      1.0000 0.46420  0.73480  0.62000  Biso   1.000  H
  H30      1.0000 0.53580  0.26520  0.38000  Biso   1.000  H
  H31      1.0000 0.34260  0.75800  0.57250  Biso   1.000  H
  H32      1.0000 0.65740  0.24200  0.42750  Biso   1.000  H
  C19      1.0000 0.47200  0.87260  0.62980  Biso   1.000  C
  C20      1.0000 0.52800  0.12740  0.37020  Biso   1.000  C
  H33      1.0000 0.43570  0.91400  0.59830  Biso   1.000  H
  H34      1.0000 0.56430  0.08600  0.40170  Biso   1.000  H
  H35      1.0000 0.44310  0.87390  0.67500  Biso   1.000  H
  H36      1.0000 0.55690  0.12610  0.32500  Biso   1.000  H
  C21      1.0000 0.61120  0.90270  0.65130  Biso   1.000  C
  C22      1.0000 0.38880  0.09730  0.34870  Biso   1.000  C
  H37      1.0000 0.64680  0.86460  0.68650  Biso   1.000  H
  H38      1.0000 0.35320  0.13540  0.31350  Biso   1.000  H
  H39      1.0000 0.63590  0.96520  0.67630  Biso   1.000  H
  H40      1.0000 0.36410  0.03480  0.32370  Biso   1.000  H
  C23      1.0000 0.66020  0.89640  0.58203  Biso   1.000  C
  C24      1.0000 0.33980  0.10360  0.41797  Biso   1.000  C
  H41      1.0000 0.74980  0.91390  0.59800  Biso   1.000  H
  H42      1.0000 0.25020  0.08610  0.40200  Biso   1.000  H
  H43      1.0000 0.63100  0.93940  0.54950  Biso   1.000  H
  H44      1.0000 0.36900  0.06060  0.45050  Biso   1.000  H
  C25      1.0000 0.64370  0.67499  0.41366  Biso   1.000  C
  C26      1.0000 0.35630  0.32501  0.58634  Biso   1.000  C
  H45      1.0000 0.71320  0.66990  0.39270  Biso   1.000  H
  H46      1.0000 0.28680  0.33010  0.60730  Biso   1.000  H
  C27      1.0000 0.64350  0.60487  0.46806  Biso   1.000  C
  C28      1.0000 0.35650  0.39513  0.53194  Biso   1.000  C
  H47      1.0000 0.72270  0.61910  0.50600  Biso   1.000  H
  H48      1.0000 0.27730  0.38090  0.49400  Biso   1.000  H
  H49      1.0000 0.58010  0.60910  0.49380  Biso   1.000  H
  H50      1.0000 0.41990  0.39090  0.50620  Biso   1.000  H
  C29      1.0000 0.62050  0.50840  0.42990  Biso   1.000  C
  C30      1.0000 0.37950  0.49160  0.57010  Biso   1.000  C
  H51      1.0000 0.69200  0.50110  0.41280  Biso   1.000  H
  H52      1.0000 0.30800  0.49890  0.58720  Biso   1.000  H
  H53      1.0000 0.61140  0.46680  0.46660  Biso   1.000  H
  H54      1.0000 0.38860  0.53320  0.53340  Biso   1.000  H
  C31      1.0000 0.50930  0.48320  0.36461  Biso   1.000  C
  C32      1.0000 0.49070  0.51680  0.63539  Biso   1.000  C
  H55      1.0000 0.43600  0.48020  0.38250  Biso   1.000  H
  H56      1.0000 0.56400  0.51980  0.61750  Biso   1.000  H
  H57      1.0000 0.50490  0.42320  0.33930  Biso   1.000  H
  H58      1.0000 0.49510  0.57680  0.66070  Biso   1.000  H
  C33      1.0000 0.51170  0.55056  0.30967  Biso   1.000  C
  C34      1.0000 0.48830  0.44944  0.69033  Biso   1.000  C
  H59      1.0000 0.43400  0.53550  0.27050  Biso   1.000  H
  H60      1.0000 0.56600  0.46450  0.72950  Biso   1.000  H
  H61      1.0000 0.57730  0.54630  0.28580  Biso   1.000  H
  H62      1.0000 0.42270  0.45370  0.71420  Biso   1.000  H
  C35      1.0000 0.53210  0.64714  0.34696  Biso   1.000  C
  C36      1.0000 0.46790  0.35286  0.65304  Biso   1.000  C
  H63      1.0000 0.54060  0.68830  0.30990  Biso   1.000  H
  H64      1.0000 0.45940  0.31170  0.69010  Biso   1.000  H
  H65      1.0000 0.45960  0.65360  0.36330  Biso   1.000  H
  H66      1.0000 0.54040  0.34640  0.63670  Biso   1.000  H
  C37      1.0000 0.02700  0.62160  0.30602  Biso   1.000  C
  C38      1.0000 0.97300  0.37840  0.69398  Biso   1.000  C
  H67      1.0000 0.97830  0.65160  0.33280  Biso   1.000  H
  H68      1.0000 0.02170  0.34840  0.66720  Biso   1.000  H
  C39      1.0000 0.14840  0.63020  0.36378  Biso   1.000  C
  C40      1.0000 0.85160  0.36980  0.63622  Biso   1.000  C
  H69      1.0000 0.18740  0.69440  0.37910  Biso   1.000  H
  H70      1.0000 0.81260  0.30560  0.62090  Biso   1.000  H
  H71      1.0000 0.20200  0.60220  0.34070  Biso   1.000  H
  H72      1.0000 0.79800  0.39780  0.65930  Biso   1.000  H
  C41      1.0000 0.13620  0.58630  0.43370  Biso   1.000  C
  C42      1.0000 0.86380  0.41370  0.56630  Biso   1.000  C
  H73      1.0000 0.21800  0.58940  0.46640  Biso   1.000  H
  H74      1.0000 0.78200  0.41060  0.53360  Biso   1.000  H
  H75      1.0000 0.09330  0.62000  0.46130  Biso   1.000  H
  H76      1.0000 0.90670  0.38000  0.53870  Biso   1.000  H
  C43      1.0000 0.06660  0.48800  0.41350  Biso   1.000  C
  C44      1.0000 0.93340  0.51200  0.58650  Biso   1.000  C
  H77      1.0000 0.11530  0.45220  0.39280  Biso   1.000  H
  H78      1.0000 0.88470  0.54780  0.60720  Biso   1.000  H
  H79      1.0000 0.05330  0.46410  0.45880  Biso   1.000  H
  H80      1.0000 0.94670  0.53590  0.54120  Biso   1.000  H
  C45      1.0000 0.94440  0.47950  0.35696  Biso   1.000  C
  C46      1.0000 0.05560  0.52050  0.64304  Biso   1.000  C
  H81      1.0000 0.89200  0.50840  0.38050  Biso   1.000  H
  H82      1.0000 0.10800  0.49160  0.61950  Biso   1.000  H
  H83      1.0000 0.90450  0.41540  0.34220  Biso   1.000  H
  H84      1.0000 0.09550  0.58460  0.65780  Biso   1.000  H
  C47      1.0000 0.95630  0.52270  0.28634  Biso   1.000  C
  C48      1.0000 0.04370  0.47730  0.71366  Biso   1.000  C
  H85      1.0000 0.99880  0.48840  0.25880  Biso   1.000  H
  H86      1.0000 0.00120  0.51160  0.74120  Biso   1.000  H
  H87      1.0000 0.87450  0.51960  0.25370  Biso   1.000  H
  H88      1.0000 0.12550  0.48040  0.74630  Biso   1.000  H
  C49      1.0000 0.12200  0.63060  0.17130  Biso   1.000  C
  C50      1.0000 0.87800  0.36940  0.82870  Biso   1.000  C
  H89      1.0000 0.17030  0.60620  0.21360  Biso   1.000  H
  H90      1.0000 0.82970  0.39380  0.78640  Biso   1.000  H
  C51      1.0000 0.22530  0.68560  0.15550  Biso   1.000  C
  C52      1.0000 0.77470  0.31440  0.84450  Biso   1.000  C
  H91      1.0000 0.27900  0.71880  0.20310  Biso   1.000  H
  H92      1.0000 0.72100  0.28120  0.79690  Biso   1.000  H
  H93      1.0000 0.19540  0.73040  0.12530  Biso   1.000  H
  H94      1.0000 0.80460  0.26960  0.87470  Biso   1.000  H
  C53      1.0000 0.30310  0.64250  0.11610  Biso   1.000  C
  C54      1.0000 0.69690  0.35750  0.88390  Biso   1.000  C
  H95      1.0000 0.33590  0.68530  0.08570  Biso   1.000  H
  H96      1.0000 0.66410  0.31470  0.91430  Biso   1.000  H
  H97      1.0000 0.37270  0.63170  0.15390  Biso   1.000  H
  H98      1.0000 0.62730  0.36830  0.84610  Biso   1.000  H
  C55      1.0000 0.24000  0.55680  0.06740  Biso   1.000  C
  C56      1.0000 0.76000  0.44320  0.93260  Biso   1.000  C
  H99      1.0000 0.20700  0.57160  0.01730  Biso   1.000  H
  H100     1.0000 0.79300  0.42840  0.98270  Biso   1.000  H
  H101     1.0000 0.30230  0.52270  0.06390  Biso   1.000  H
  H102     1.0000 0.69770  0.47730  0.93610  Biso   1.000  H
  C57      1.0000 0.14210  0.49660  0.08590  Biso   1.000  C
  C58      1.0000 0.85790  0.50340  0.91410  Biso   1.000  C
  H103     1.0000 0.17750  0.45550  0.11810  Biso   1.000  H
  H104     1.0000 0.82250  0.54450  0.88190  Biso   1.000  H
  H105     1.0000 0.08850  0.45990  0.03960  Biso   1.000  H
  H106     1.0000 0.91150  0.54010  0.96040  Biso   1.000  H
  C59      1.0000 0.06520  0.54170  0.12454  Biso   1.000  C
  C60      1.0000 0.93480  0.45830  0.87546  Biso   1.000  C
  H107     1.0000 0.99410  0.54930  0.08610  Biso   1.000  H
  H108     1.0000 0.00590  0.45070  0.91390  Biso   1.000  H
  H109     1.0000 0.03420  0.50010  0.15640  Biso   1.000  H
  H110     1.0000 0.96580  0.49990  0.84360  Biso   1.000  H
  C61      1.0000 0.88050  0.67030  0.16755  Biso   1.000  C
  C62      1.0000 0.11950  0.32970  0.83245  Biso   1.000  C
  H111     1.0000 0.84870  0.60500  0.14960  Biso   1.000  H
  H112     1.0000 0.15130  0.39500  0.85040  Biso   1.000  H
  C63      1.0000 0.87670  0.72170  0.09916  Biso   1.000  C
  C64      1.0000 0.12330  0.27830  0.90084  Biso   1.000  C
  H113     1.0000 0.91710  0.78530  0.11630  Biso   1.000  H
  H114     1.0000 0.08290  0.21470  0.88370  Biso   1.000  H
  H115     1.0000 0.92200  0.69660  0.06760  Biso   1.000  H
  H116     1.0000 0.07800  0.30340  0.93240  Biso   1.000  H
  C65      1.0000 0.74410  0.71500  0.05230  Biso   1.000  C
  C66      1.0000 0.25590  0.28500  0.94770  Biso   1.000  C
  H117     1.0000 0.74480  0.75070  0.01100  Biso   1.000  H
  H118     1.0000 0.25520  0.24930  0.98900  Biso   1.000  H
  H119     1.0000 0.70590  0.65200  0.03100  Biso   1.000  H
  H120     1.0000 0.29410  0.34800  0.96900  Biso   1.000  H
  C67      1.0000 0.66910  0.74980  0.10104  Biso   1.000  C
  C68      1.0000 0.33090  0.25020  0.89896  Biso   1.000  C
  H121     1.0000 0.70410  0.81400  0.11920  Biso   1.000  H
  H122     1.0000 0.29590  0.18600  0.88080  Biso   1.000  H
  H123     1.0000 0.58500  0.74370  0.07060  Biso   1.000  H
  H124     1.0000 0.41500  0.25630  0.92940  Biso   1.000  H
  C69      1.0000 0.66750  0.69820  0.16760  Biso   1.000  C
  C70      1.0000 0.33250  0.30180  0.83240  Biso   1.000  C
  H125     1.0000 0.62480  0.63510  0.14980  Biso   1.000  H
  H126     1.0000 0.37520  0.36490  0.85020  Biso   1.000  H
  H127     1.0000 0.62340  0.72460  0.19920  Biso   1.000  H
  H128     1.0000 0.37660  0.27540  0.80080  Biso   1.000  H
  C71      1.0000 0.79920  0.70230  0.21382  Biso   1.000  C
  C72      1.0000 0.20080  0.29770  0.78618  Biso   1.000  C
  H129     1.0000 0.79620  0.66470  0.25390  Biso   1.000  H
  H130     1.0000 0.20380  0.33530  0.74610  Biso   1.000  H
  H131     1.0000 0.83700  0.76460  0.23730  Biso   1.000  H
  H132     1.0000 0.16300  0.23540  0.76270  Biso   1.000  H
  C73      1.0000 0.80510  0.08670  0.04352  Biso   1.000  C
  C74      1.0000 0.19490  0.91330  0.95648  Biso   1.000  C
  H133     1.0000 0.87150  0.05400  0.04490  Biso   1.000  H
  H134     1.0000 0.12850  0.94600  0.95510  Biso   1.000  H
  C75      1.0000 0.68910  0.01290  0.02370  Biso   1.000  C
  C76      1.0000 0.31090  0.98710  0.97630  Biso   1.000  C
  H135     1.0000 0.61840  0.04060  0.01930  Biso   1.000  H
  H136     1.0000 0.38160  0.95940  0.98070  Biso   1.000  H
  H137     1.0000 0.69150  0.97540  0.06410  Biso   1.000  H
  H138     1.0000 0.30850  0.02460  0.93590  Biso   1.000  H
  C77      1.0000 0.67280  0.95190  0.94870  Biso   1.000  C
  C78      1.0000 0.32720  0.04810  0.05130  Biso   1.000  C
  H139     1.0000 0.74330  0.92410  0.95290  Biso   1.000  H
  H140     1.0000 0.25670  0.07590  0.04710  Biso   1.000  H
  H141     1.0000 0.59930  0.90340  0.93930  Biso   1.000  H
  H142     1.0000 0.40070  0.09660  0.06070  Biso   1.000  H
  C79      1.0000 0.66170  0.00560  0.88430  Biso   1.000  C
  C80      1.0000 0.33830  0.99440  0.11570  Biso   1.000  C
  H143     1.0000 0.59460  0.03710  0.88050  Biso   1.000  H
  H144     1.0000 0.40540  0.96290  0.11950  Biso   1.000  H
  H145     1.0000 0.64820  0.96700  0.83690  Biso   1.000  H
  H146     1.0000 0.35180  0.03300  0.16310  Biso   1.000  H
  C81      1.0000 0.78580  0.07250  0.90480  Biso   1.000  C
  C82      1.0000 0.21420  0.92750  0.09520  Biso   1.000  C
  H147     1.0000 0.79100  0.10840  0.86390  Biso   1.000  H
  H148     1.0000 0.20900  0.89160  0.13610  Biso   1.000  H
  H149     1.0000 0.85130  0.03930  0.91160  Biso   1.000  H
  H150     1.0000 0.14870  0.96070  0.08840  Biso   1.000  H
  C83      1.0000 0.80310  0.13690  0.97863  Biso   1.000  C
  C84      1.0000 0.19690  0.86310  0.02137  Biso   1.000  C
  H151     1.0000 0.88000  0.18220  0.98860  Biso   1.000  H
  H152     1.0000 0.12000  0.81780  0.01140  Biso   1.000  H
  H153     1.0000 0.73610  0.16870  0.97200  Biso   1.000  H
  H154     1.0000 0.26390  0.83130  0.02800  Biso   1.000  H
  C85      1.0000 0.72830  0.21762  0.13811  Biso   1.000  C
  C86      1.0000 0.27170  0.78238  0.86189  Biso   1.000  C
  H155     1.0000 0.65520  0.18260  0.09930  Biso   1.000  H
  H156     1.0000 0.34480  0.81740  0.90070  Biso   1.000  H
  C87      1.0000 0.74820  0.30777  0.10954  Biso   1.000  C
  C88      1.0000 0.25180  0.69223  0.89046  Biso   1.000  C
  H157     1.0000 0.82440  0.34650  0.14160  Biso   1.000  H
  H158     1.0000 0.17560  0.65350  0.85840  Biso   1.000  H
  H159     1.0000 0.75850  0.29830  0.05900  Biso   1.000  H
  H160     1.0000 0.24150  0.70170  0.94100  Biso   1.000  H
  C89      1.0000 0.64570  0.35650  0.10697  Biso   1.000  C
  C90      1.0000 0.35430  0.64350  0.89303  Biso   1.000  C
  H161     1.0000 0.67450  0.41900  0.09940  Biso   1.000  H
  H162     1.0000 0.32550  0.58100  0.90060  Biso   1.000  H
  H163     1.0000 0.57750  0.32810  0.06340  Biso   1.000  H
  H164     1.0000 0.42250  0.67190  0.93660  Biso   1.000  H
  C91      1.0000 0.59940  0.35760  0.17380  Biso   1.000  C
  C92      1.0000 0.40060  0.64240  0.82620  Biso   1.000  C
  H165     1.0000 0.52220  0.37770  0.16210  Biso   1.000  H
  H166     1.0000 0.47780  0.62230  0.83790  Biso   1.000  H
  H167     1.0000 0.65810  0.40190  0.21390  Biso   1.000  H
  H168     1.0000 0.34190  0.59810  0.78610  Biso   1.000  H
  C93      1.0000 0.57840  0.26820  0.20200  Biso   1.000  C
  C94      1.0000 0.42160  0.73180  0.79800  Biso   1.000  C
  H169     1.0000 0.50300  0.22930  0.16910  Biso   1.000  H
  H170     1.0000 0.49700  0.77070  0.83090  Biso   1.000  H
  H171     1.0000 0.56640  0.27740  0.25200  Biso   1.000  H
  H172     1.0000 0.43360  0.72260  0.74800  Biso   1.000  H
  C95      1.0000 0.68200  0.22020  0.20573  Biso   1.000  C
  C96      1.0000 0.31800  0.77980  0.79427  Biso   1.000  C
  H173     1.0000 0.75010  0.25000  0.24890  Biso   1.000  H
  H174     1.0000 0.24990  0.75000  0.75110  Biso   1.000  H
  H175     1.0000 0.65430  0.15810  0.21450  Biso   1.000  H
  H176     1.0000 0.34570  0.84190  0.78550  Biso   1.000  H
  C97      1.0000 0.99020  0.22390  0.15419  Biso   1.000  C
  C98      1.0000 0.00980  0.77610  0.84581  Biso   1.000  C
  H177     1.0000 0.97920  0.27320  0.12350  Biso   1.000  H
  H178     1.0000 0.02080  0.72680  0.87650  Biso   1.000  H
  C99      1.0000 0.03720  0.26490  0.23677  Biso   1.000  C
  C100     1.0000 0.96280  0.73510  0.76323  Biso   1.000  C
  H179     1.0000 0.04630  0.21640  0.26770  Biso   1.000  H
  H180     1.0000 0.95370  0.78360  0.73230  Biso   1.000  H
  H181     1.0000 0.97680  0.29520  0.25020  Biso   1.000  H
  H182     1.0000 0.02320  0.70480  0.74980  Biso   1.000  H
  C101     1.0000 0.16230  0.33400  0.25400  Biso   1.000  C
  C102     1.0000 0.83770  0.66600  0.74600  Biso   1.000  C
  H183     1.0000 0.15180  0.38570  0.22700  Biso   1.000  H
  H184     1.0000 0.84820  0.61430  0.77300  Biso   1.000  H
  H185     1.0000 0.19060  0.35630  0.30760  Biso   1.000  H
  H186     1.0000 0.80940  0.64370  0.69240  Biso   1.000  H
  C103     1.0000 0.25650  0.29130  0.23115  Biso   1.000  C
  C104     1.0000 0.74350  0.70870  0.76885  Biso   1.000  C
  H187     1.0000 0.27450  0.24460  0.26260  Biso   1.000  H
  H188     1.0000 0.72550  0.75540  0.73740  Biso   1.000  H
  H189     1.0000 0.33240  0.33720  0.23890  Biso   1.000  H
  H190     1.0000 0.66760  0.66280  0.76110  Biso   1.000  H
  C105     1.0000 0.21150  0.24930  0.14900  Biso   1.000  C
  C106     1.0000 0.78850  0.75070  0.85100  Biso   1.000  C
  H191     1.0000 0.27280  0.21950  0.13620  Biso   1.000  H
  H192     1.0000 0.72720  0.78050  0.86380  Biso   1.000  H
  H193     1.0000 0.20070  0.29680  0.11730  Biso   1.000  H
  H194     1.0000 0.79930  0.70320  0.88270  Biso   1.000  H
  C107     1.0000 0.08810  0.17920  0.13410  Biso   1.000  C
  C108     1.0000 0.91190  0.82080  0.86590  Biso   1.000  C
  H195     1.0000 0.06050  0.15340  0.08110  Biso   1.000  H
  H196     1.0000 0.93950  0.84660  0.91890  Biso   1.000  H
  H197     1.0000 0.09980  0.13010  0.16390  Biso   1.000  H
  H198     1.0000 0.90020  0.86990  0.83610  Biso   1.000  H
  C109     1.0000 0.41650  0.86330  0.34090  Biso   1.000  C
  C110     1.0000 0.58350  0.13670  0.65910  Biso   1.000  C
  C111     1.0000 0.04920  0.92930  0.25220  Biso   1.000  C
  C112     1.0000 0.95080  0.07070  0.74780  Biso   1.000  C
  C113     1.0000 0.73110  0.98640  0.26446  Biso   1.000  C
  C114     1.0000 0.26890  0.01360  0.73554  Biso   1.000  C
