data_image0
_cell_length_a       7.7978
_cell_length_b       10.7744
_cell_length_c       35.325
_cell_angle_alpha    90
_cell_angle_beta     90
_cell_angle_gamma    90

_symmetry_space_group_name_H-M    "P 1"
_symmetry_int_tables_number       1

loop_
  _symmetry_equiv_pos_as_xyz
  'x, y, z'

loop_
  _atom_site_label
  _atom_site_occupancy
  _atom_site_fract_x
  _atom_site_fract_y
  _atom_site_fract_z
  _atom_site_thermal_displace_type
  _atom_site_B_iso_or_equiv
  _atom_site_type_symbol
  Cu1      1.0000 0.11691  0.67597  0.34510  Biso   1.000  Cu
  Cu2      1.0000 0.38309  0.32403  0.84510  Biso   1.000  Cu
  Cu3      1.0000 0.88309  0.17597  0.15490  Biso   1.000  Cu
  Cu4      1.0000 0.61691  0.82403  0.65490  Biso   1.000  Cu
  Cu5      1.0000 0.88309  0.32403  0.65490  Biso   1.000  Cu
  Cu6      1.0000 0.61691  0.67597  0.15490  Biso   1.000  Cu
  Cu7      1.0000 0.11691  0.82403  0.84510  Biso   1.000  Cu
  Cu8      1.0000 0.38309  0.17597  0.34510  Biso   1.000  Cu
  S1       1.0000 0.40271  0.61263  0.34368  Biso   1.000  S
  S2       1.0000 0.09729  0.38737  0.84368  Biso   1.000  S
  S3       1.0000 0.59729  0.11263  0.15632  Biso   1.000  S
  S4       1.0000 0.90271  0.88737  0.65632  Biso   1.000  S
  S5       1.0000 0.59729  0.38737  0.65632  Biso   1.000  S
  S6       1.0000 0.90271  0.61263  0.15632  Biso   1.000  S
  S7       1.0000 0.40271  0.88737  0.84368  Biso   1.000  S
  S8       1.0000 0.09729  0.11263  0.34368  Biso   1.000  S
  N1       1.0000 0.38440  0.35380  0.34377  Biso   1.000  N
  N2       1.0000 0.11560  0.64620  0.84377  Biso   1.000  N
  N3       1.0000 0.61560  0.85380  0.15623  Biso   1.000  N
  N4       1.0000 0.88440  0.14620  0.65623  Biso   1.000  N
  N5       1.0000 0.61560  0.64620  0.65623  Biso   1.000  N
  N6       1.0000 0.88440  0.35380  0.15623  Biso   1.000  N
  N7       1.0000 0.38440  0.14620  0.84377  Biso   1.000  N
  N8       1.0000 0.11560  0.85380  0.34377  Biso   1.000  N
  C1       1.0000 0.38790  0.46010  0.34412  Biso   1.000  C
  C2       1.0000 0.11210  0.53990  0.84412  Biso   1.000  C
  C3       1.0000 0.61210  0.96010  0.15588  Biso   1.000  C
  C4       1.0000 0.88790  0.03990  0.65588  Biso   1.000  C
  C5       1.0000 0.61210  0.53990  0.65588  Biso   1.000  C
  C6       1.0000 0.88790  0.46010  0.15588  Biso   1.000  C
  C7       1.0000 0.38790  0.03990  0.84412  Biso   1.000  C
  C8       1.0000 0.11210  0.96010  0.34412  Biso   1.000  C
  N9       1.0000 0.96200  0.59247  0.38739  Biso   1.000  N
  N10      1.0000 0.53800  0.40753  0.88739  Biso   1.000  N
  N11      1.0000 0.03800  0.09247  0.11261  Biso   1.000  N
  N12      1.0000 0.46200  0.90753  0.61261  Biso   1.000  N
  N13      1.0000 0.03800  0.40753  0.61261  Biso   1.000  N
  N14      1.0000 0.46200  0.59247  0.11261  Biso   1.000  N
  N15      1.0000 0.96200  0.90753  0.88739  Biso   1.000  N
  N16      1.0000 0.53800  0.09247  0.38739  Biso   1.000  N
  C9       1.0000 0.83930  0.60260  0.49059  Biso   1.000  C
  C10      1.0000 0.66070  0.39740  0.99059  Biso   1.000  C
  C11      1.0000 0.16070  0.10260  0.00941  Biso   1.000  C
  C12      1.0000 0.33930  0.89740  0.50941  Biso   1.000  C
  C13      1.0000 0.16070  0.39740  0.50941  Biso   1.000  C
  C14      1.0000 0.33930  0.60260  0.00941  Biso   1.000  C
  C15      1.0000 0.83930  0.89740  0.99059  Biso   1.000  C
  C16      1.0000 0.66070  0.10260  0.49059  Biso   1.000  C
  C17      1.0000 0.86560  0.49820  0.37430  Biso   1.000  C
  C18      1.0000 0.63440  0.50180  0.87430  Biso   1.000  C
  C19      1.0000 0.13440  0.99820  0.12570  Biso   1.000  C
  C20      1.0000 0.36560  0.00180  0.62570  Biso   1.000  C
  C21      1.0000 0.13440  0.50180  0.62570  Biso   1.000  C
  C22      1.0000 0.36560  0.49820  0.12570  Biso   1.000  C
  C23      1.0000 0.86560  0.00180  0.87430  Biso   1.000  C
  C24      1.0000 0.63440  0.99820  0.37430  Biso   1.000  C
  C25      1.0000 0.84450  0.56420  0.45016  Biso   1.000  C
  C26      1.0000 0.65550  0.43580  0.95016  Biso   1.000  C
  C27      1.0000 0.15550  0.06420  0.04984  Biso   1.000  C
  C28      1.0000 0.34450  0.93580  0.54984  Biso   1.000  C
  C29      1.0000 0.15550  0.43580  0.54984  Biso   1.000  C
  C30      1.0000 0.34450  0.56420  0.04984  Biso   1.000  C
  C31      1.0000 0.84450  0.93580  0.95016  Biso   1.000  C
  C32      1.0000 0.65550  0.06420  0.45016  Biso   1.000  C
  N17      1.0000 0.97600  0.55040  0.31300  Biso   1.000  N
  N18      1.0000 0.52400  0.44960  0.81300  Biso   1.000  N
  N19      1.0000 0.02400  0.05040  0.18700  Biso   1.000  N
  N20      1.0000 0.47600  0.94960  0.68700  Biso   1.000  N
  N21      1.0000 0.02400  0.44960  0.68700  Biso   1.000  N
  N22      1.0000 0.47600  0.55040  0.18700  Biso   1.000  N
  N23      1.0000 0.97600  0.94960  0.81300  Biso   1.000  N
  N24      1.0000 0.52400  0.05040  0.31300  Biso   1.000  N
  C33      1.0000 0.88330  0.46890  0.33359  Biso   1.000  C
  C34      1.0000 0.61670  0.53110  0.83359  Biso   1.000  C
  C35      1.0000 0.11670  0.96890  0.16641  Biso   1.000  C
  C36      1.0000 0.38330  0.03110  0.66641  Biso   1.000  C
  C37      1.0000 0.11670  0.53110  0.66641  Biso   1.000  C
  C38      1.0000 0.38330  0.46890  0.16641  Biso   1.000  C
  C39      1.0000 0.88330  0.03110  0.83359  Biso   1.000  C
  C40      1.0000 0.61670  0.96890  0.33359  Biso   1.000  C
  C41      1.0000 0.75680  0.43430  0.39843  Biso   1.000  C
  C42      1.0000 0.74320  0.56570  0.89843  Biso   1.000  C
  C43      1.0000 0.24320  0.93430  0.10157  Biso   1.000  C
  C44      1.0000 0.25680  0.06570  0.60157  Biso   1.000  C
  C45      1.0000 0.24320  0.56570  0.60157  Biso   1.000  C
  C46      1.0000 0.25680  0.43430  0.10157  Biso   1.000  C
  C47      1.0000 0.75680  0.06570  0.89843  Biso   1.000  C
  C48      1.0000 0.74320  0.93430  0.39843  Biso   1.000  C
  H1       1.0000 0.69070  0.36910  0.38930  Biso   1.000  H
  H2       1.0000 0.80930  0.63090  0.88930  Biso   1.000  H
  H3       1.0000 0.30930  0.86910  0.11070  Biso   1.000  H
  H4       1.0000 0.19070  0.13090  0.61070  Biso   1.000  H
  H5       1.0000 0.30930  0.63090  0.61070  Biso   1.000  H
  H6       1.0000 0.19070  0.36910  0.11070  Biso   1.000  H
  H7       1.0000 0.69070  0.13090  0.88930  Biso   1.000  H
  H8       1.0000 0.80930  0.86910  0.38930  Biso   1.000  H
  C49      1.0000 0.83030  0.67060  0.56739  Biso   1.000  C
  C50      1.0000 0.66970  0.32940  0.06739  Biso   1.000  C
  C51      1.0000 0.16970  0.17060  0.93261  Biso   1.000  C
  C52      1.0000 0.33030  0.82940  0.43261  Biso   1.000  C
  C53      1.0000 0.16970  0.32940  0.43261  Biso   1.000  C
  C54      1.0000 0.33030  0.67060  0.93261  Biso   1.000  C
  C55      1.0000 0.83030  0.82940  0.06739  Biso   1.000  C
  C56      1.0000 0.66970  0.17060  0.56739  Biso   1.000  C
  H9       1.0000 0.82720  0.69380  0.59270  Biso   1.000  H
  H10      1.0000 0.67280  0.30620  0.09270  Biso   1.000  H
  H11      1.0000 0.17280  0.19380  0.90730  Biso   1.000  H
  H12      1.0000 0.32720  0.80620  0.40730  Biso   1.000  H
  H13      1.0000 0.17280  0.30620  0.40730  Biso   1.000  H
  H14      1.0000 0.32720  0.69380  0.90730  Biso   1.000  H
  H15      1.0000 0.82720  0.80620  0.09270  Biso   1.000  H
  H16      1.0000 0.67280  0.19380  0.59270  Biso   1.000  H
  C57      1.0000 0.94970  0.62320  0.42376  Biso   1.000  C
  C58      1.0000 0.55030  0.37680  0.92376  Biso   1.000  C
  C59      1.0000 0.05030  0.12320  0.07624  Biso   1.000  C
  C60      1.0000 0.44970  0.87680  0.57624  Biso   1.000  C
  C61      1.0000 0.05030  0.37680  0.57624  Biso   1.000  C
  C62      1.0000 0.44970  0.62320  0.07624  Biso   1.000  C
  C63      1.0000 0.94970  0.87680  0.92376  Biso   1.000  C
  C64      1.0000 0.55030  0.12320  0.42376  Biso   1.000  C
  H17      1.0000 0.01630  0.68910  0.43230  Biso   1.000  H
  H18      1.0000 0.48370  0.31090  0.93230  Biso   1.000  H
  H19      1.0000 0.98370  0.18910  0.06770  Biso   1.000  H
  H20      1.0000 0.51630  0.81090  0.56770  Biso   1.000  H
  H21      1.0000 0.98370  0.31090  0.56770  Biso   1.000  H
  H22      1.0000 0.51630  0.68910  0.06770  Biso   1.000  H
  H23      1.0000 0.01630  0.81090  0.93230  Biso   1.000  H
  H24      1.0000 0.48370  0.18910  0.43230  Biso   1.000  H
  C65      1.0000 0.93730  0.70050  0.50432  Biso   1.000  C
  C66      1.0000 0.56270  0.29950  0.00432  Biso   1.000  C
  C67      1.0000 0.06270  0.20050  0.99568  Biso   1.000  C
  C68      1.0000 0.43730  0.79950  0.49568  Biso   1.000  C
  C69      1.0000 0.06270  0.29950  0.49568  Biso   1.000  C
  C70      1.0000 0.43730  0.70050  0.99568  Biso   1.000  C
  C71      1.0000 0.93730  0.79950  0.00432  Biso   1.000  C
  C72      1.0000 0.56270  0.20050  0.50432  Biso   1.000  C
  H25      1.0000 0.00770  0.74440  0.48780  Biso   1.000  H
  H26      1.0000 0.49230  0.25560  0.98780  Biso   1.000  H
  H27      1.0000 0.99230  0.24440  0.01220  Biso   1.000  H
  H28      1.0000 0.50770  0.75560  0.51220  Biso   1.000  H
  H29      1.0000 0.99230  0.25560  0.51220  Biso   1.000  H
  H30      1.0000 0.50770  0.74440  0.01220  Biso   1.000  H
  H31      1.0000 0.00770  0.75560  0.98780  Biso   1.000  H
  H32      1.0000 0.49230  0.24440  0.48780  Biso   1.000  H
  C73      1.0000 0.93180  0.73380  0.54203  Biso   1.000  C
  C74      1.0000 0.56820  0.26620  0.04203  Biso   1.000  C
  C75      1.0000 0.06820  0.23380  0.95797  Biso   1.000  C
  C76      1.0000 0.43180  0.76620  0.45797  Biso   1.000  C
  C77      1.0000 0.06820  0.26620  0.45797  Biso   1.000  C
  C78      1.0000 0.43180  0.73380  0.95797  Biso   1.000  C
  C79      1.0000 0.93180  0.76620  0.04203  Biso   1.000  C
  C80      1.0000 0.56820  0.23380  0.54203  Biso   1.000  C
  H33      1.0000 0.99790  0.80020  0.55040  Biso   1.000  H
  H34      1.0000 0.50210  0.19980  0.05040  Biso   1.000  H
  H35      1.0000 0.00210  0.30020  0.94960  Biso   1.000  H
  H36      1.0000 0.49790  0.69980  0.44960  Biso   1.000  H
  H37      1.0000 0.00210  0.19980  0.44960  Biso   1.000  H
  H38      1.0000 0.49790  0.80020  0.94960  Biso   1.000  H
  H39      1.0000 0.99790  0.69980  0.05040  Biso   1.000  H
  H40      1.0000 0.50210  0.30020  0.55040  Biso   1.000  H
  C81      1.0000 0.73360  0.57260  0.55461  Biso   1.000  C
  C82      1.0000 0.76640  0.42740  0.05461  Biso   1.000  C
  C83      1.0000 0.26640  0.07260  0.94539  Biso   1.000  C
  C84      1.0000 0.23360  0.92740  0.44539  Biso   1.000  C
  C85      1.0000 0.26640  0.42740  0.44539  Biso   1.000  C
  C86      1.0000 0.23360  0.57260  0.94539  Biso   1.000  C
  C87      1.0000 0.73360  0.92740  0.05461  Biso   1.000  C
  C88      1.0000 0.76640  0.07260  0.55461  Biso   1.000  C
  H41      1.0000 0.66490  0.52870  0.57140  Biso   1.000  H
  H42      1.0000 0.83510  0.47130  0.07140  Biso   1.000  H
  H43      1.0000 0.33510  0.02870  0.92860  Biso   1.000  H
  H44      1.0000 0.16490  0.97130  0.42860  Biso   1.000  H
  H45      1.0000 0.33510  0.47130  0.42860  Biso   1.000  H
  H46      1.0000 0.16490  0.52870  0.92860  Biso   1.000  H
  H47      1.0000 0.66490  0.97130  0.07140  Biso   1.000  H
  H48      1.0000 0.83510  0.02870  0.57140  Biso   1.000  H
  C89      1.0000 0.74690  0.46750  0.43580  Biso   1.000  C
  C90      1.0000 0.75310  0.53250  0.93580  Biso   1.000  C
  C91      1.0000 0.25310  0.96750  0.06420  Biso   1.000  C
  C92      1.0000 0.24690  0.03250  0.56420  Biso   1.000  C
  C93      1.0000 0.25310  0.53250  0.56420  Biso   1.000  C
  C94      1.0000 0.24690  0.46750  0.06420  Biso   1.000  C
  C95      1.0000 0.74690  0.03250  0.93580  Biso   1.000  C
  C96      1.0000 0.75310  0.96750  0.43580  Biso   1.000  C
  H49      1.0000 0.67330  0.42440  0.45180  Biso   1.000  H
  H50      1.0000 0.82670  0.57560  0.95180  Biso   1.000  H
  H51      1.0000 0.32670  0.92440  0.04820  Biso   1.000  H
  H52      1.0000 0.17330  0.07560  0.54820  Biso   1.000  H
  H53      1.0000 0.32670  0.57560  0.54820  Biso   1.000  H
  H54      1.0000 0.17330  0.42440  0.04820  Biso   1.000  H
  H55      1.0000 0.67330  0.07560  0.95180  Biso   1.000  H
  H56      1.0000 0.82670  0.92440  0.45180  Biso   1.000  H
  C97      1.0000 0.80930  0.36500  0.31698  Biso   1.000  C
  C98      1.0000 0.69070  0.63500  0.81698  Biso   1.000  C
  C99      1.0000 0.19070  0.86500  0.18302  Biso   1.000  C
  C100     1.0000 0.30930  0.13500  0.68302  Biso   1.000  C
  C101     1.0000 0.19070  0.63500  0.68302  Biso   1.000  C
  C102     1.0000 0.30930  0.36500  0.18302  Biso   1.000  C
  C103     1.0000 0.80930  0.13500  0.81698  Biso   1.000  C
  C104     1.0000 0.69070  0.86500  0.31698  Biso   1.000  C
  H57      1.0000 0.74760  0.30880  0.33160  Biso   1.000  H
  H58      1.0000 0.75240  0.69120  0.83160  Biso   1.000  H
  H59      1.0000 0.25240  0.80880  0.16840  Biso   1.000  H
  H60      1.0000 0.24760  0.19120  0.66840  Biso   1.000  H
  H61      1.0000 0.25240  0.69120  0.66840  Biso   1.000  H
  H62      1.0000 0.24760  0.30880  0.16840  Biso   1.000  H
  H63      1.0000 0.74760  0.19120  0.83160  Biso   1.000  H
  H64      1.0000 0.75240  0.80880  0.33160  Biso   1.000  H
  C105     1.0000 0.73810  0.53880  0.51663  Biso   1.000  C
  C106     1.0000 0.76190  0.46120  0.01663  Biso   1.000  C
  C107     1.0000 0.26190  0.03880  0.98337  Biso   1.000  C
  C108     1.0000 0.23810  0.96120  0.48337  Biso   1.000  C
  C109     1.0000 0.26190  0.46120  0.48337  Biso   1.000  C
  C110     1.0000 0.23810  0.53880  0.98337  Biso   1.000  C
  C111     1.0000 0.73810  0.96120  0.01663  Biso   1.000  C
  C112     1.0000 0.76190  0.03880  0.51663  Biso   1.000  C
  H65      1.0000 0.67200  0.47220  0.50840  Biso   1.000  H
  H66      1.0000 0.82800  0.52780  0.00840  Biso   1.000  H
  H67      1.0000 0.32800  0.97220  0.99160  Biso   1.000  H
  H68      1.0000 0.17200  0.02780  0.49160  Biso   1.000  H
  H69      1.0000 0.32800  0.52780  0.49160  Biso   1.000  H
  H70      1.0000 0.17200  0.47220  0.99160  Biso   1.000  H
  H71      1.0000 0.67200  0.02780  0.00840  Biso   1.000  H
  H72      1.0000 0.82800  0.97220  0.50840  Biso   1.000  H
  C113     1.0000 0.92020  0.42970  0.25767  Biso   1.000  C
  C114     1.0000 0.57980  0.57030  0.75767  Biso   1.000  C
  C115     1.0000 0.07980  0.92970  0.24233  Biso   1.000  C
  C116     1.0000 0.42020  0.07030  0.74233  Biso   1.000  C
  C117     1.0000 0.07980  0.57030  0.74233  Biso   1.000  C
  C118     1.0000 0.42020  0.42970  0.24233  Biso   1.000  C
  C119     1.0000 0.92020  0.07030  0.75767  Biso   1.000  C
  C120     1.0000 0.57980  0.92970  0.25767  Biso   1.000  C
  H73      1.0000 0.93320  0.41940  0.23170  Biso   1.000  H
  H74      1.0000 0.56680  0.58060  0.73170  Biso   1.000  H
  H75      1.0000 0.06680  0.91940  0.26830  Biso   1.000  H
  H76      1.0000 0.43320  0.08060  0.76830  Biso   1.000  H
  H77      1.0000 0.06680  0.58060  0.76830  Biso   1.000  H
  H78      1.0000 0.43320  0.41940  0.26830  Biso   1.000  H
  H79      1.0000 0.93320  0.08060  0.73170  Biso   1.000  H
  H80      1.0000 0.56680  0.91940  0.23170  Biso   1.000  H
  C121     1.0000 0.82810  0.34580  0.27870  Biso   1.000  C
  C122     1.0000 0.67190  0.65420  0.77870  Biso   1.000  C
  C123     1.0000 0.17190  0.84580  0.22130  Biso   1.000  C
  C124     1.0000 0.32810  0.15420  0.72130  Biso   1.000  C
  C125     1.0000 0.17190  0.65420  0.72130  Biso   1.000  C
  C126     1.0000 0.32810  0.34580  0.22130  Biso   1.000  C
  C127     1.0000 0.82810  0.15420  0.77870  Biso   1.000  C
  C128     1.0000 0.67190  0.84580  0.27870  Biso   1.000  C
  H81      1.0000 0.77890  0.27680  0.26720  Biso   1.000  H
  H82      1.0000 0.72110  0.72320  0.76720  Biso   1.000  H
  H83      1.0000 0.22110  0.77680  0.23280  Biso   1.000  H
  H84      1.0000 0.27890  0.22320  0.73280  Biso   1.000  H
  H85      1.0000 0.22110  0.72320  0.73280  Biso   1.000  H
  H86      1.0000 0.27890  0.27680  0.23280  Biso   1.000  H
  H87      1.0000 0.77890  0.22320  0.76720  Biso   1.000  H
  H88      1.0000 0.72110  0.77680  0.26720  Biso   1.000  H
  C129     1.0000 0.99240  0.52870  0.27587  Biso   1.000  C
  C130     1.0000 0.50760  0.47130  0.77587  Biso   1.000  C
  C131     1.0000 0.00760  0.02870  0.22413  Biso   1.000  C
  C132     1.0000 0.49240  0.97130  0.72413  Biso   1.000  C
  C133     1.0000 0.00760  0.47130  0.72413  Biso   1.000  C
  C134     1.0000 0.49240  0.52870  0.22413  Biso   1.000  C
  C135     1.0000 0.99240  0.97130  0.77587  Biso   1.000  C
  C136     1.0000 0.50760  0.02870  0.27587  Biso   1.000  C
  H89      1.0000 0.05680  0.58440  0.26160  Biso   1.000  H
  H90      1.0000 0.44320  0.41560  0.76160  Biso   1.000  H
  H91      1.0000 0.94320  0.08440  0.23840  Biso   1.000  H
  H92      1.0000 0.55680  0.91560  0.73840  Biso   1.000  H
  H93      1.0000 0.94320  0.41560  0.73840  Biso   1.000  H
  H94      1.0000 0.55680  0.58440  0.23840  Biso   1.000  H
  H95      1.0000 0.05680  0.91560  0.76160  Biso   1.000  H
  H96      1.0000 0.44320  0.08440  0.26160  Biso   1.000  H
