data_image0
_cell_length_a       7.2027
_cell_length_b       12.3817
_cell_length_c       29.793
_cell_angle_alpha    90
_cell_angle_beta     90
_cell_angle_gamma    90

_symmetry_space_group_name_H-M    "P 1"
_symmetry_int_tables_number       1

loop_
  _symmetry_equiv_pos_as_xyz
  'x, y, z'

loop_
  _atom_site_label
  _atom_site_occupancy
  _atom_site_fract_x
  _atom_site_fract_y
  _atom_site_fract_z
  _atom_site_thermal_displace_type
  _atom_site_B_iso_or_equiv
  _atom_site_type_symbol
  I1       1.0000 0.18702  0.68669  0.12537  Biso   1.000  I
  I2       1.0000 0.31298  0.31331  0.62537  Biso   1.000  I
  I3       1.0000 0.68702  0.81331  0.87463  Biso   1.000  I
  I4       1.0000 0.81298  0.18669  0.37463  Biso   1.000  I
  I5       1.0000 0.81298  0.31331  0.87463  Biso   1.000  I
  I6       1.0000 0.68702  0.68669  0.37463  Biso   1.000  I
  I7       1.0000 0.31298  0.18669  0.12537  Biso   1.000  I
  I8       1.0000 0.18702  0.81331  0.62537  Biso   1.000  I
  Cu1      1.0000 0.52114  0.74729  0.12783  Biso   1.000  Cu
  Cu2      1.0000 0.97886  0.25271  0.62783  Biso   1.000  Cu
  Cu3      1.0000 0.02114  0.75271  0.87217  Biso   1.000  Cu
  Cu4      1.0000 0.47886  0.24729  0.37217  Biso   1.000  Cu
  Cu5      1.0000 0.47886  0.25271  0.87217  Biso   1.000  Cu
  Cu6      1.0000 0.02114  0.74729  0.37217  Biso   1.000  Cu
  Cu7      1.0000 0.97886  0.24729  0.12783  Biso   1.000  Cu
  Cu8      1.0000 0.52114  0.75271  0.62783  Biso   1.000  Cu
  N1       1.0000 0.60990  0.88522  0.15038  Biso   1.000  N
  N2       1.0000 0.89010  0.11478  0.65038  Biso   1.000  N
  N3       1.0000 0.10990  0.61478  0.84962  Biso   1.000  N
  N4       1.0000 0.39010  0.38522  0.34962  Biso   1.000  N
  N5       1.0000 0.39010  0.11478  0.84962  Biso   1.000  N
  N6       1.0000 0.10990  0.88522  0.34962  Biso   1.000  N
  N7       1.0000 0.89010  0.38522  0.15038  Biso   1.000  N
  N8       1.0000 0.60990  0.61478  0.65038  Biso   1.000  N
  N9       1.0000 0.66330  0.93038  0.07644  Biso   1.000  N
  N10      1.0000 0.83670  0.06962  0.57644  Biso   1.000  N
  N11      1.0000 0.16330  0.56962  0.92356  Biso   1.000  N
  N12      1.0000 0.33670  0.43038  0.42356  Biso   1.000  N
  N13      1.0000 0.33670  0.06962  0.92356  Biso   1.000  N
  N14      1.0000 0.16330  0.93038  0.42356  Biso   1.000  N
  N15      1.0000 0.83670  0.43038  0.07644  Biso   1.000  N
  N16      1.0000 0.66330  0.56962  0.57644  Biso   1.000  N
  N17      1.0000 0.82560  0.12813  0.10414  Biso   1.000  N
  N18      1.0000 0.67440  0.87187  0.60414  Biso   1.000  N
  N19      1.0000 0.32560  0.37187  0.89586  Biso   1.000  N
  N20      1.0000 0.17440  0.62813  0.39586  Biso   1.000  N
  N21      1.0000 0.17440  0.87187  0.89586  Biso   1.000  N
  N22      1.0000 0.32560  0.12813  0.39586  Biso   1.000  N
  N23      1.0000 0.67440  0.62813  0.10414  Biso   1.000  N
  N24      1.0000 0.82560  0.37187  0.60414  Biso   1.000  N
  N25      1.0000 0.76670  0.08600  0.17799  Biso   1.000  N
  N26      1.0000 0.73330  0.91400  0.67799  Biso   1.000  N
  N27      1.0000 0.26670  0.41400  0.82201  Biso   1.000  N
  N28      1.0000 0.23330  0.58600  0.32201  Biso   1.000  N
  N29      1.0000 0.23330  0.91400  0.82201  Biso   1.000  N
  N30      1.0000 0.26670  0.08600  0.32201  Biso   1.000  N
  N31      1.0000 0.73330  0.58600  0.17799  Biso   1.000  N
  N32      1.0000 0.76670  0.41400  0.67799  Biso   1.000  N
  C1       1.0000 0.71000  0.03920  0.25458  Biso   1.000  C
  C2       1.0000 0.79000  0.96080  0.75458  Biso   1.000  C
  C3       1.0000 0.21000  0.46080  0.74542  Biso   1.000  C
  C4       1.0000 0.29000  0.53920  0.24542  Biso   1.000  C
  C5       1.0000 0.29000  0.96080  0.74542  Biso   1.000  C
  C6       1.0000 0.21000  0.03920  0.24542  Biso   1.000  C
  C7       1.0000 0.79000  0.53920  0.25458  Biso   1.000  C
  C8       1.0000 0.71000  0.46080  0.75458  Biso   1.000  C
  C9       1.0000 0.65220  0.96520  0.28540  Biso   1.000  C
  C10      1.0000 0.84780  0.03480  0.78540  Biso   1.000  C
  C11      1.0000 0.15220  0.53480  0.71460  Biso   1.000  C
  C12      1.0000 0.34780  0.46520  0.21460  Biso   1.000  C
  C13      1.0000 0.34780  0.03480  0.71460  Biso   1.000  C
  C14      1.0000 0.15220  0.96520  0.21460  Biso   1.000  C
  C15      1.0000 0.84780  0.46520  0.28540  Biso   1.000  C
  C16      1.0000 0.65220  0.53480  0.78540  Biso   1.000  C
  C17      1.0000 0.57690  0.86300  0.27146  Biso   1.000  C
  C18      1.0000 0.92310  0.13700  0.77146  Biso   1.000  C
  C19      1.0000 0.07690  0.63700  0.72854  Biso   1.000  C
  C20      1.0000 0.42310  0.36300  0.22854  Biso   1.000  C
  C21      1.0000 0.42310  0.13700  0.72854  Biso   1.000  C
  C22      1.0000 0.07690  0.86300  0.22854  Biso   1.000  C
  C23      1.0000 0.92310  0.36300  0.27146  Biso   1.000  C
  C24      1.0000 0.57690  0.63700  0.77146  Biso   1.000  C
  C25      1.0000 0.56340  0.83760  0.22747  Biso   1.000  C
  C26      1.0000 0.93660  0.16240  0.72747  Biso   1.000  C
  C27      1.0000 0.06340  0.66240  0.77253  Biso   1.000  C
  C28      1.0000 0.43660  0.33760  0.27253  Biso   1.000  C
  C29      1.0000 0.43660  0.16240  0.77253  Biso   1.000  C
  C30      1.0000 0.06340  0.83760  0.27253  Biso   1.000  C
  C31      1.0000 0.93660  0.33760  0.22747  Biso   1.000  C
  C32      1.0000 0.56340  0.66240  0.72747  Biso   1.000  C
  C33      1.0000 0.62350  0.91190  0.19413  Biso   1.000  C
  C34      1.0000 0.87650  0.08810  0.69413  Biso   1.000  C
  C35      1.0000 0.12350  0.58810  0.80587  Biso   1.000  C
  C36      1.0000 0.37650  0.41190  0.30587  Biso   1.000  C
  C37      1.0000 0.37650  0.08810  0.80587  Biso   1.000  C
  C38      1.0000 0.12350  0.91190  0.30587  Biso   1.000  C
  C39      1.0000 0.87650  0.41190  0.19413  Biso   1.000  C
  C40      1.0000 0.62350  0.58810  0.69413  Biso   1.000  C
  C41      1.0000 0.67500  0.95820  0.11992  Biso   1.000  C
  C42      1.0000 0.82500  0.04180  0.61992  Biso   1.000  C
  C43      1.0000 0.17500  0.54180  0.88008  Biso   1.000  C
  C44      1.0000 0.32500  0.45820  0.38008  Biso   1.000  C
  C45      1.0000 0.32500  0.04180  0.88008  Biso   1.000  C
  C46      1.0000 0.17500  0.95820  0.38008  Biso   1.000  C
  C47      1.0000 0.82500  0.45820  0.11992  Biso   1.000  C
  C48      1.0000 0.67500  0.54180  0.61992  Biso   1.000  C
  C49      1.0000 0.72960  0.00150  0.04681  Biso   1.000  C
  C50      1.0000 0.77040  0.99850  0.54681  Biso   1.000  C
  C51      1.0000 0.22960  0.49850  0.95319  Biso   1.000  C
  C52      1.0000 0.27040  0.50150  0.45319  Biso   1.000  C
  C53      1.0000 0.27040  0.99850  0.95319  Biso   1.000  C
  C54      1.0000 0.22960  0.00150  0.45319  Biso   1.000  C
  C55      1.0000 0.77040  0.50150  0.04681  Biso   1.000  C
  C56      1.0000 0.72960  0.49850  0.54681  Biso   1.000  C
  C57      1.0000 0.72030  0.97760  0.99978  Biso   1.000  C
  C58      1.0000 0.77970  0.02240  0.49978  Biso   1.000  C
  C59      1.0000 0.22030  0.52240  0.00022  Biso   1.000  C
  C60      1.0000 0.27970  0.47760  0.50022  Biso   1.000  C
  C61      1.0000 0.27970  0.02240  0.00022  Biso   1.000  C
  C62      1.0000 0.22030  0.97760  0.50022  Biso   1.000  C
  C63      1.0000 0.77970  0.47760  0.99978  Biso   1.000  C
  C64      1.0000 0.72030  0.52240  0.49978  Biso   1.000  C
  C65      1.0000 0.78660  0.05000  0.96924  Biso   1.000  C
  C66      1.0000 0.71340  0.95000  0.46924  Biso   1.000  C
  C67      1.0000 0.28660  0.45000  0.03076  Biso   1.000  C
  C68      1.0000 0.21340  0.55000  0.53076  Biso   1.000  C
  C69      1.0000 0.21340  0.95000  0.03076  Biso   1.000  C
  C70      1.0000 0.28660  0.05000  0.53076  Biso   1.000  C
  C71      1.0000 0.71340  0.55000  0.96924  Biso   1.000  C
  C72      1.0000 0.78660  0.45000  0.46924  Biso   1.000  C
  C73      1.0000 0.86580  0.15030  0.98351  Biso   1.000  C
  C74      1.0000 0.63420  0.84970  0.48351  Biso   1.000  C
  C75      1.0000 0.36580  0.34970  0.01649  Biso   1.000  C
  C76      1.0000 0.13420  0.65030  0.51649  Biso   1.000  C
  C77      1.0000 0.13420  0.84970  0.01649  Biso   1.000  C
  C78      1.0000 0.36580  0.15030  0.51649  Biso   1.000  C
  C79      1.0000 0.63420  0.65030  0.98351  Biso   1.000  C
  C80      1.0000 0.86580  0.34970  0.48351  Biso   1.000  C
  C81      1.0000 0.87850  0.17640  0.02758  Biso   1.000  C
  C82      1.0000 0.62150  0.82360  0.52758  Biso   1.000  C
  C83      1.0000 0.37850  0.32360  0.97242  Biso   1.000  C
  C84      1.0000 0.12150  0.67640  0.47242  Biso   1.000  C
  C85      1.0000 0.12150  0.82360  0.97242  Biso   1.000  C
  C86      1.0000 0.37850  0.17640  0.47242  Biso   1.000  C
  C87      1.0000 0.62150  0.67640  0.02758  Biso   1.000  C
  C88      1.0000 0.87850  0.32360  0.52758  Biso   1.000  C
  C89      1.0000 0.81060  0.10310  0.06068  Biso   1.000  C
  C90      1.0000 0.68940  0.89690  0.56068  Biso   1.000  C
  C91      1.0000 0.31060  0.39690  0.93932  Biso   1.000  C
  C92      1.0000 0.18940  0.60310  0.43932  Biso   1.000  C
  C93      1.0000 0.18940  0.89690  0.93932  Biso   1.000  C
  C94      1.0000 0.31060  0.10310  0.43932  Biso   1.000  C
  C95      1.0000 0.68940  0.60310  0.06068  Biso   1.000  C
  C96      1.0000 0.81060  0.39690  0.56068  Biso   1.000  C
  C97      1.0000 0.75540  0.05750  0.13477  Biso   1.000  C
  C98      1.0000 0.74460  0.94250  0.63477  Biso   1.000  C
  C99      1.0000 0.25540  0.44250  0.86523  Biso   1.000  C
  C100     1.0000 0.24460  0.55750  0.36523  Biso   1.000  C
  C101     1.0000 0.24460  0.94250  0.86523  Biso   1.000  C
  C102     1.0000 0.25540  0.05750  0.36523  Biso   1.000  C
  C103     1.0000 0.74460  0.55750  0.13477  Biso   1.000  C
  C104     1.0000 0.75540  0.44250  0.63477  Biso   1.000  C
  C105     1.0000 0.70070  0.01520  0.20773  Biso   1.000  C
  C106     1.0000 0.79930  0.98480  0.70773  Biso   1.000  C
  C107     1.0000 0.20070  0.48480  0.79227  Biso   1.000  C
  C108     1.0000 0.29930  0.51520  0.29227  Biso   1.000  C
  C109     1.0000 0.29930  0.98480  0.79227  Biso   1.000  C
  C110     1.0000 0.20070  0.01520  0.29227  Biso   1.000  C
  C111     1.0000 0.79930  0.51520  0.20773  Biso   1.000  C
  C112     1.0000 0.70070  0.48480  0.70773  Biso   1.000  C
  H1       1.0000 0.76100  0.10700  0.26400  Biso   1.000  H
  H2       1.0000 0.73900  0.89300  0.76400  Biso   1.000  H
  H3       1.0000 0.26100  0.39300  0.73600  Biso   1.000  H
  H4       1.0000 0.23900  0.60700  0.23600  Biso   1.000  H
  H5       1.0000 0.23900  0.89300  0.73600  Biso   1.000  H
  H6       1.0000 0.26100  0.10700  0.23600  Biso   1.000  H
  H7       1.0000 0.73900  0.60700  0.26400  Biso   1.000  H
  H8       1.0000 0.76100  0.39300  0.76400  Biso   1.000  H
  H9       1.0000 0.66000  0.98300  0.31740  Biso   1.000  H
  H10      1.0000 0.84000  0.01700  0.81740  Biso   1.000  H
  H11      1.0000 0.16000  0.51700  0.68260  Biso   1.000  H
  H12      1.0000 0.34000  0.48300  0.18260  Biso   1.000  H
  H13      1.0000 0.34000  0.01700  0.68260  Biso   1.000  H
  H14      1.0000 0.16000  0.98300  0.18260  Biso   1.000  H
  H15      1.0000 0.84000  0.48300  0.31740  Biso   1.000  H
  H16      1.0000 0.66000  0.51700  0.81740  Biso   1.000  H
  H17      1.0000 0.53000  0.81700  0.29630  Biso   1.000  H
  H18      1.0000 0.97000  0.18300  0.79630  Biso   1.000  H
  H19      1.0000 0.03000  0.68300  0.70370  Biso   1.000  H
  H20      1.0000 0.47000  0.31700  0.20370  Biso   1.000  H
  H21      1.0000 0.47000  0.18300  0.70370  Biso   1.000  H
  H22      1.0000 0.03000  0.81700  0.20370  Biso   1.000  H
  H23      1.0000 0.97000  0.31700  0.29630  Biso   1.000  H
  H24      1.0000 0.53000  0.68300  0.79630  Biso   1.000  H
  H25      1.0000 0.49200  0.76300  0.21610  Biso   1.000  H
  H26      1.0000 0.00800  0.23700  0.71610  Biso   1.000  H
  H27      1.0000 0.99200  0.73700  0.78390  Biso   1.000  H
  H28      1.0000 0.50800  0.26300  0.28390  Biso   1.000  H
  H29      1.0000 0.50800  0.23700  0.78390  Biso   1.000  H
  H30      1.0000 0.99200  0.76300  0.28390  Biso   1.000  H
  H31      1.0000 0.00800  0.26300  0.21610  Biso   1.000  H
  H32      1.0000 0.49200  0.73700  0.71610  Biso   1.000  H
  H33      1.0000 0.66400  0.91200  0.99010  Biso   1.000  H
  H34      1.0000 0.83600  0.08800  0.49010  Biso   1.000  H
  H35      1.0000 0.16400  0.58800  0.00990  Biso   1.000  H
  H36      1.0000 0.33600  0.41200  0.50990  Biso   1.000  H
  H37      1.0000 0.33600  0.08800  0.00990  Biso   1.000  H
  H38      1.0000 0.16400  0.91200  0.50990  Biso   1.000  H
  H39      1.0000 0.83600  0.41200  0.99010  Biso   1.000  H
  H40      1.0000 0.66400  0.58800  0.49010  Biso   1.000  H
  H41      1.0000 0.77800  0.03100  0.93820  Biso   1.000  H
  H42      1.0000 0.72200  0.96900  0.43820  Biso   1.000  H
  H43      1.0000 0.27800  0.46900  0.06180  Biso   1.000  H
  H44      1.0000 0.22200  0.53100  0.56180  Biso   1.000  H
  H45      1.0000 0.22200  0.96900  0.06180  Biso   1.000  H
  H46      1.0000 0.27800  0.03100  0.56180  Biso   1.000  H
  H47      1.0000 0.72200  0.53100  0.93820  Biso   1.000  H
  H48      1.0000 0.77800  0.46900  0.43820  Biso   1.000  H
  H49      1.0000 0.91900  0.19400  0.96280  Biso   1.000  H
  H50      1.0000 0.58100  0.80600  0.46280  Biso   1.000  H
  H51      1.0000 0.41900  0.30600  0.03720  Biso   1.000  H
  H52      1.0000 0.08100  0.69400  0.53720  Biso   1.000  H
  H53      1.0000 0.08100  0.80600  0.03720  Biso   1.000  H
  H54      1.0000 0.41900  0.19400  0.53720  Biso   1.000  H
  H55      1.0000 0.58100  0.69400  0.96280  Biso   1.000  H
  H56      1.0000 0.91900  0.30600  0.46280  Biso   1.000  H
  H57      1.0000 0.93500  0.24900  0.03670  Biso   1.000  H
  H58      1.0000 0.56500  0.75100  0.53670  Biso   1.000  H
  H59      1.0000 0.43500  0.25100  0.96330  Biso   1.000  H
  H60      1.0000 0.06500  0.74900  0.46330  Biso   1.000  H
  H61      1.0000 0.06500  0.75100  0.96330  Biso   1.000  H
  H62      1.0000 0.43500  0.24900  0.46330  Biso   1.000  H
  H63      1.0000 0.56500  0.74900  0.03670  Biso   1.000  H
  H64      1.0000 0.93500  0.25100  0.53670  Biso   1.000  H
