data_image0
_cell_length_a       18.156
_cell_length_b       23.801
_cell_length_c       13.932
_cell_angle_alpha    90
_cell_angle_beta     99.42
_cell_angle_gamma    90

_symmetry_space_group_name_H-M    "P 1"
_symmetry_int_tables_number       1

loop_
  _symmetry_equiv_pos_as_xyz
  'x, y, z'

loop_
  _atom_site_label
  _atom_site_occupancy
  _atom_site_fract_x
  _atom_site_fract_y
  _atom_site_fract_z
  _atom_site_thermal_displace_type
  _atom_site_B_iso_or_equiv
  _atom_site_type_symbol
  Sm1      1.0000 0.01943  0.59342  0.85740  Biso   1.000  Sm
  Sm2      1.0000 0.98057  0.09342  0.64260  Biso   1.000  Sm
  Sm3      1.0000 0.98057  0.40658  0.14260  Biso   1.000  Sm
  Sm4      1.0000 0.01943  0.90658  0.35740  Biso   1.000  Sm
  Sm5      1.0000 0.98510  0.39761  0.63607  Biso   1.000  Sm
  Sm6      1.0000 0.01490  0.89761  0.86393  Biso   1.000  Sm
  Sm7      1.0000 0.01490  0.60239  0.36393  Biso   1.000  Sm
  Sm8      1.0000 0.98510  0.10239  0.13607  Biso   1.000  Sm
  Cu1      1.0000 0.54347  0.51177  0.93460  Biso   1.000  Cu
  Cu2      1.0000 0.45653  0.01177  0.56540  Biso   1.000  Cu
  Cu3      1.0000 0.45653  0.48823  0.06540  Biso   1.000  Cu
  Cu4      1.0000 0.54347  0.98823  0.43460  Biso   1.000  Cu
  Cu5      1.0000 0.44580  0.42025  0.83675  Biso   1.000  Cu
  Cu6      1.0000 0.55420  0.92025  0.66325  Biso   1.000  Cu
  Cu7      1.0000 0.55420  0.57975  0.16325  Biso   1.000  Cu
  Cu8      1.0000 0.44580  0.07975  0.33675  Biso   1.000  Cu
  Cu9      1.0000 0.55583  0.31106  0.87593  Biso   1.000  Cu
  Cu10     1.0000 0.44417  0.81106  0.62407  Biso   1.000  Cu
  Cu11     1.0000 0.44417  0.68894  0.12407  Biso   1.000  Cu
  Cu12     1.0000 0.55583  0.18894  0.37593  Biso   1.000  Cu
  Cu13     1.0000 0.42931  0.25113  0.85880  Biso   1.000  Cu
  Cu14     1.0000 0.57069  0.75113  0.64120  Biso   1.000  Cu
  Cu15     1.0000 0.57069  0.74887  0.14120  Biso   1.000  Cu
  Cu16     1.0000 0.42931  0.24887  0.35880  Biso   1.000  Cu
  Cu17     1.0000 0.44646  0.68803  0.62466  Biso   1.000  Cu
  Cu18     1.0000 0.55354  0.18803  0.87534  Biso   1.000  Cu
  Cu19     1.0000 0.55354  0.31197  0.37534  Biso   1.000  Cu
  Cu20     1.0000 0.44646  0.81197  0.12466  Biso   1.000  Cu
  Cu21     1.0000 0.55957  0.57923  0.66162  Biso   1.000  Cu
  Cu22     1.0000 0.44043  0.07923  0.83838  Biso   1.000  Cu
  Cu23     1.0000 0.44043  0.42077  0.33838  Biso   1.000  Cu
  Cu24     1.0000 0.55957  0.92077  0.16162  Biso   1.000  Cu
  Cu25     1.0000 0.45968  0.48951  0.56950  Biso   1.000  Cu
  Cu26     1.0000 0.54032  0.98951  0.93050  Biso   1.000  Cu
  Cu27     1.0000 0.54032  0.51049  0.43050  Biso   1.000  Cu
  Cu28     1.0000 0.45968  0.01049  0.06950  Biso   1.000  Cu
  Br1      1.0000 0.50537  0.49849  0.75079  Biso   1.000  Br
  Br2      1.0000 0.49463  0.99849  0.74921  Biso   1.000  Br
  Br3      1.0000 0.49463  0.50151  0.24921  Biso   1.000  Br
  Br4      1.0000 0.50537  0.00151  0.25079  Biso   1.000  Br
  Br5      1.0000 0.52888  0.41297  0.00017  Biso   1.000  Br
  Br6      1.0000 0.47112  0.91297  0.49983  Biso   1.000  Br
  Br7      1.0000 0.47112  0.58703  0.99983  Biso   1.000  Br
  Br8      1.0000 0.52888  0.08703  0.50017  Biso   1.000  Br
  Br9      1.0000 0.45173  0.32910  0.74796  Biso   1.000  Br
  Br10     1.0000 0.54827  0.82910  0.75204  Biso   1.000  Br
  Br11     1.0000 0.54827  0.67090  0.25204  Biso   1.000  Br
  Br12     1.0000 0.45173  0.17090  0.24796  Biso   1.000  Br
  Br13     1.0000 0.44057  0.74951  0.48719  Biso   1.000  Br
  Br14     1.0000 0.55943  0.24951  0.01281  Biso   1.000  Br
  Br15     1.0000 0.55943  0.25049  0.51281  Biso   1.000  Br
  Br16     1.0000 0.44057  0.75049  0.98719  Biso   1.000  Br
  Br17     1.0000 0.55274  0.67003  0.75052  Biso   1.000  Br
  Br18     1.0000 0.44726  0.17003  0.74948  Biso   1.000  Br
  Br19     1.0000 0.44726  0.32997  0.24948  Biso   1.000  Br
  Br20     1.0000 0.55274  0.82997  0.25052  Biso   1.000  Br
  Br21     1.0000 0.47180  0.58718  0.50176  Biso   1.000  Br
  Br22     1.0000 0.52820  0.08718  0.99824  Biso   1.000  Br
  Br23     1.0000 0.52820  0.41282  0.49824  Biso   1.000  Br
  Br24     1.0000 0.47180  0.91282  0.00176  Biso   1.000  Br
  O1       1.0000 0.92400  0.52360  0.90130  Biso   1.000  O
  O2       1.0000 0.07600  0.02360  0.59870  Biso   1.000  O
  O3       1.0000 0.07600  0.47640  0.09870  Biso   1.000  O
  O4       1.0000 0.92400  0.97640  0.40130  Biso   1.000  O
  O5       1.0000 0.90020  0.61330  0.91490  Biso   1.000  O
  O6       1.0000 0.09980  0.11330  0.58510  Biso   1.000  O
  O7       1.0000 0.09980  0.38670  0.08510  Biso   1.000  O
  O8       1.0000 0.90020  0.88670  0.41490  Biso   1.000  O
  O9       1.0000 0.08730  0.51200  0.86060  Biso   1.000  O
  O10      1.0000 0.91270  0.01200  0.63940  Biso   1.000  O
  O11      1.0000 0.91270  0.48800  0.13940  Biso   1.000  O
  O12      1.0000 0.08730  0.98800  0.36060  Biso   1.000  O
  O13      1.0000 0.05650  0.43140  0.78670  Biso   1.000  O
  O14      1.0000 0.94350  0.93140  0.71330  Biso   1.000  O
  O15      1.0000 0.94350  0.56860  0.21330  Biso   1.000  O
  O16      1.0000 0.05650  0.06860  0.28670  Biso   1.000  O
  O17      1.0000 0.85280  0.35970  0.62540  Biso   1.000  O
  O18      1.0000 0.14720  0.85970  0.87460  Biso   1.000  O
  O19      1.0000 0.14720  0.64030  0.37460  Biso   1.000  O
  O20      1.0000 0.85280  0.14030  0.12540  Biso   1.000  O
  O21      1.0000 0.91140  0.37390  0.77560  Biso   1.000  O
  O22      1.0000 0.08860  0.87390  0.72440  Biso   1.000  O
  O23      1.0000 0.08860  0.62610  0.22440  Biso   1.000  O
  O24      1.0000 0.91140  0.12610  0.27560  Biso   1.000  O
  O25      1.0000 0.09590  0.25170  0.05250  Biso   1.000  O
  O26      1.0000 0.90410  0.75170  0.44750  Biso   1.000  O
  O27      1.0000 0.90410  0.74830  0.94750  Biso   1.000  O
  O28      1.0000 0.09590  0.24830  0.55250  Biso   1.000  O
  O29      1.0000 0.17840  0.23090  0.18460  Biso   1.000  O
  O30      1.0000 0.82160  0.73090  0.31540  Biso   1.000  O
  O31      1.0000 0.82160  0.76910  0.81540  Biso   1.000  O
  O32      1.0000 0.17840  0.26910  0.68460  Biso   1.000  O
  O33      1.0000 0.09210  0.61960  0.72540  Biso   1.000  O
  O34      1.0000 0.90790  0.11960  0.77460  Biso   1.000  O
  O35      1.0000 0.90790  0.38040  0.27460  Biso   1.000  O
  O36      1.0000 0.09210  0.88040  0.22540  Biso   1.000  O
  O37      1.0000 0.14880  0.63700  0.87420  Biso   1.000  O
  O38      1.0000 0.85120  0.13700  0.62580  Biso   1.000  O
  O39      1.0000 0.85120  0.36300  0.12580  Biso   1.000  O
  O40      1.0000 0.14880  0.86300  0.37420  Biso   1.000  O
  O41      1.0000 0.91730  0.48130  0.64550  Biso   1.000  O
  O42      1.0000 0.08270  0.98130  0.85450  Biso   1.000  O
  O43      1.0000 0.08270  0.51870  0.35450  Biso   1.000  O
  O44      1.0000 0.91730  0.01870  0.14550  Biso   1.000  O
  O45      1.0000 0.94880  0.56510  0.71290  Biso   1.000  O
  O46      1.0000 0.05120  0.06510  0.78710  Biso   1.000  O
  O47      1.0000 0.05120  0.43490  0.28710  Biso   1.000  O
  O48      1.0000 0.94880  0.93490  0.21290  Biso   1.000  O
  O49      1.0000 0.10420  0.38090  0.57660  Biso   1.000  O
  O50      1.0000 0.89580  0.88090  0.92340  Biso   1.000  O
  O51      1.0000 0.89580  0.61910  0.42340  Biso   1.000  O
  O52      1.0000 0.10420  0.11910  0.07660  Biso   1.000  O
  O53      1.0000 0.07830  0.46930  0.59900  Biso   1.000  O
  O54      1.0000 0.92170  0.96930  0.90100  Biso   1.000  O
  O55      1.0000 0.92170  0.53070  0.40100  Biso   1.000  O
  O56      1.0000 0.07830  0.03070  0.09900  Biso   1.000  O
  O57      1.0000 0.05690  0.58320  0.03270  Biso   1.000  O
  O58      1.0000 0.94310  0.08320  0.46730  Biso   1.000  O
  O59      1.0000 0.94310  0.41680  0.96730  Biso   1.000  O
  O60      1.0000 0.05690  0.91680  0.53270  Biso   1.000  O
  H1       1.0000 0.07160  0.59470  0.09030  Biso   1.000  H
  H2       1.0000 0.92840  0.09470  0.40970  Biso   1.000  H
  H3       1.0000 0.92840  0.40530  0.90970  Biso   1.000  H
  H4       1.0000 0.07160  0.90530  0.59030  Biso   1.000  H
  H5       1.0000 0.06200  0.54770  0.03940  Biso   1.000  H
  H6       1.0000 0.93800  0.04770  0.46060  Biso   1.000  H
  H7       1.0000 0.93800  0.45230  0.96060  Biso   1.000  H
  H8       1.0000 0.06200  0.95230  0.53940  Biso   1.000  H
  O61      1.0000 0.99100  0.68820  0.82910  Biso   1.000  O
  O62      1.0000 0.00900  0.18820  0.67090  Biso   1.000  O
  O63      1.0000 0.00900  0.31180  0.17090  Biso   1.000  O
  O64      1.0000 0.99100  0.81180  0.32910  Biso   1.000  O
  H9       1.0000 0.97310  0.72100  0.81830  Biso   1.000  H
  H10      1.0000 0.02690  0.22100  0.68170  Biso   1.000  H
  H11      1.0000 0.02690  0.27900  0.18170  Biso   1.000  H
  H12      1.0000 0.97310  0.77900  0.31830  Biso   1.000  H
  H13      1.0000 0.00080  0.69620  0.77290  Biso   1.000  H
  H14      1.0000 0.99920  0.19620  0.72710  Biso   1.000  H
  H15      1.0000 0.99920  0.30380  0.22710  Biso   1.000  H
  H16      1.0000 0.00080  0.80380  0.27290  Biso   1.000  H
  O65      1.0000 0.97020  0.31360  0.52230  Biso   1.000  O
  O66      1.0000 0.02980  0.81360  0.97770  Biso   1.000  O
  O67      1.0000 0.02980  0.68640  0.47770  Biso   1.000  O
  O68      1.0000 0.97020  0.18640  0.02230  Biso   1.000  O
  H17      1.0000 0.93800  0.29150  0.49140  Biso   1.000  H
  H18      1.0000 0.06200  0.79150  0.00860  Biso   1.000  H
  H19      1.0000 0.06200  0.70850  0.50860  Biso   1.000  H
  H20      1.0000 0.93800  0.20850  0.99140  Biso   1.000  H
  H21      1.0000 0.01020  0.29930  0.50780  Biso   1.000  H
  H22      1.0000 0.98980  0.79930  0.99220  Biso   1.000  H
  H23      1.0000 0.98980  0.70070  0.49220  Biso   1.000  H
  H24      1.0000 0.01020  0.20070  0.00780  Biso   1.000  H
  O69      1.0000 0.04280  0.31400  0.72070  Biso   1.000  O
  O70      1.0000 0.95720  0.81400  0.77930  Biso   1.000  O
  O71      1.0000 0.95720  0.68600  0.27930  Biso   1.000  O
  O72      1.0000 0.04280  0.18600  0.22070  Biso   1.000  O
  H25      1.0000 0.08510  0.30520  0.70660  Biso   1.000  H
  H26      1.0000 0.91490  0.80520  0.79340  Biso   1.000  H
  H27      1.0000 0.91490  0.69480  0.29340  Biso   1.000  H
  H28      1.0000 0.08510  0.19480  0.20660  Biso   1.000  H
  H29      1.0000 0.03640  0.31870  0.77940  Biso   1.000  H
  H30      1.0000 0.96360  0.81870  0.72060  Biso   1.000  H
  H31      1.0000 0.96360  0.68130  0.22060  Biso   1.000  H
  H32      1.0000 0.03640  0.18130  0.27940  Biso   1.000  H
  O73      1.0000 0.94200  0.42500  0.47030  Biso   1.000  O
  O74      1.0000 0.05800  0.92500  0.02970  Biso   1.000  O
  O75      1.0000 0.05800  0.57500  0.52970  Biso   1.000  O
  O76      1.0000 0.94200  0.07500  0.97030  Biso   1.000  O
  H33      1.0000 0.93780  0.45810  0.44730  Biso   1.000  H
  H34      1.0000 0.06220  0.95810  0.05270  Biso   1.000  H
  H35      1.0000 0.06220  0.54190  0.55270  Biso   1.000  H
  H36      1.0000 0.93780  0.04190  0.94730  Biso   1.000  H
  H37      1.0000 0.93890  0.39260  0.44490  Biso   1.000  H
  H38      1.0000 0.06110  0.89260  0.05510  Biso   1.000  H
  H39      1.0000 0.06110  0.60740  0.55510  Biso   1.000  H
  H40      1.0000 0.93890  0.10740  0.94490  Biso   1.000  H
  O77      1.0000 0.04100  0.32190  0.91140  Biso   1.000  O
  O78      1.0000 0.95900  0.82190  0.58860  Biso   1.000  O
  O79      1.0000 0.95900  0.67810  0.08860  Biso   1.000  O
  O80      1.0000 0.04100  0.17810  0.41140  Biso   1.000  O
  H41      1.0000 0.05720  0.30360  0.96300  Biso   1.000  H
  H42      1.0000 0.94280  0.80360  0.53700  Biso   1.000  H
  H43      1.0000 0.94280  0.69640  0.03700  Biso   1.000  H
  H44      1.0000 0.05720  0.19640  0.46300  Biso   1.000  H
  H45      1.0000 0.06950  0.32340  0.86930  Biso   1.000  H
  H46      1.0000 0.93050  0.82340  0.63070  Biso   1.000  H
  H47      1.0000 0.93050  0.67660  0.13070  Biso   1.000  H
  H48      1.0000 0.06950  0.17660  0.36930  Biso   1.000  H
  O81      1.0000 0.06570  0.74080  0.69330  Biso   1.000  O
  O82      1.0000 0.93430  0.24080  0.80670  Biso   1.000  O
  O83      1.0000 0.93430  0.25920  0.30670  Biso   1.000  O
  O84      1.0000 0.06570  0.75920  0.19330  Biso   1.000  O
  H49      1.0000 0.02380  0.75100  0.66150  Biso   1.000  H
  H50      1.0000 0.97620  0.25100  0.83850  Biso   1.000  H
  H51      1.0000 0.97620  0.24900  0.33850  Biso   1.000  H
  H52      1.0000 0.02380  0.74900  0.16150  Biso   1.000  H
  H53      1.0000 0.05810  0.72810  0.74790  Biso   1.000  H
  H54      1.0000 0.94190  0.22810  0.75210  Biso   1.000  H
  H55      1.0000 0.94190  0.27190  0.25210  Biso   1.000  H
  H56      1.0000 0.05810  0.77190  0.24790  Biso   1.000  H
  O85      1.0000 0.84640  0.24940  0.54240  Biso   1.000  O
  O86      1.0000 0.15360  0.74940  0.95760  Biso   1.000  O
  O87      1.0000 0.15360  0.75060  0.45760  Biso   1.000  O
  O88      1.0000 0.84640  0.25060  0.04240  Biso   1.000  O
  H57      1.0000 0.84130  0.28070  0.56980  Biso   1.000  H
  H58      1.0000 0.15870  0.78070  0.93020  Biso   1.000  H
  H59      1.0000 0.15870  0.71930  0.43020  Biso   1.000  H
  H60      1.0000 0.84130  0.21930  0.06980  Biso   1.000  H
  H61      1.0000 0.82330  0.22510  0.57090  Biso   1.000  H
  H62      1.0000 0.17670  0.72510  0.92910  Biso   1.000  H
  H63      1.0000 0.17670  0.77490  0.42910  Biso   1.000  H
  H64      1.0000 0.82330  0.27490  0.07090  Biso   1.000  H
  N1       1.0000 0.65070  0.52790  0.92960  Biso   1.000  N
  N2       1.0000 0.34930  0.02790  0.57040  Biso   1.000  N
  N3       1.0000 0.34930  0.47210  0.07040  Biso   1.000  N
  N4       1.0000 0.65070  0.97210  0.42960  Biso   1.000  N
  N5       1.0000 0.33690  0.43510  0.82440  Biso   1.000  N
  N6       1.0000 0.66310  0.93510  0.67560  Biso   1.000  N
  N7       1.0000 0.66310  0.56490  0.17560  Biso   1.000  N
  N8       1.0000 0.33690  0.06490  0.32440  Biso   1.000  N
  N9       1.0000 0.65050  0.32880  0.82700  Biso   1.000  N
  N10      1.0000 0.34950  0.82880  0.67300  Biso   1.000  N
  N11      1.0000 0.34950  0.67120  0.17300  Biso   1.000  N
  N12      1.0000 0.65050  0.17120  0.32700  Biso   1.000  N
  N13      1.0000 0.34580  0.25130  0.93870  Biso   1.000  N
  N14      1.0000 0.65420  0.75130  0.56130  Biso   1.000  N
  N15      1.0000 0.65420  0.74870  0.06130  Biso   1.000  N
  N16      1.0000 0.34580  0.24870  0.43870  Biso   1.000  N
  N17      1.0000 0.35080  0.66950  0.67350  Biso   1.000  N
  N18      1.0000 0.64920  0.16950  0.82650  Biso   1.000  N
  N19      1.0000 0.64920  0.33050  0.32650  Biso   1.000  N
  N20      1.0000 0.35080  0.83050  0.17350  Biso   1.000  N
  N21      1.0000 0.66890  0.56180  0.67230  Biso   1.000  N
  N22      1.0000 0.33110  0.06180  0.82770  Biso   1.000  N
  N23      1.0000 0.33110  0.43820  0.32770  Biso   1.000  N
  N24      1.0000 0.66890  0.93820  0.17230  Biso   1.000  N
  N25      1.0000 0.35300  0.47090  0.57060  Biso   1.000  N
  N26      1.0000 0.64700  0.97090  0.92940  Biso   1.000  N
  N27      1.0000 0.64700  0.52910  0.42940  Biso   1.000  N
  N28      1.0000 0.35300  0.02910  0.07060  Biso   1.000  N
  C1       1.0000 0.69690  0.48850  0.91150  Biso   1.000  C
  C2       1.0000 0.30310  0.98850  0.58850  Biso   1.000  C
  C3       1.0000 0.30310  0.51150  0.08850  Biso   1.000  C
  C4       1.0000 0.69690  0.01150  0.41150  Biso   1.000  C
  H65      1.0000 0.67800  0.45220  0.90130  Biso   1.000  H
  H66      1.0000 0.32200  0.95220  0.59870  Biso   1.000  H
  H67      1.0000 0.32200  0.54780  0.09870  Biso   1.000  H
  H68      1.0000 0.67800  0.04780  0.40130  Biso   1.000  H
  C5       1.0000 0.77220  0.49680  0.90640  Biso   1.000  C
  C6       1.0000 0.22780  0.99680  0.59360  Biso   1.000  C
  C7       1.0000 0.22780  0.50320  0.09360  Biso   1.000  C
  C8       1.0000 0.77220  0.00320  0.40640  Biso   1.000  C
  H69      1.0000 0.80220  0.46730  0.89190  Biso   1.000  H
  H70      1.0000 0.19780  0.96730  0.60810  Biso   1.000  H
  H71      1.0000 0.19780  0.53270  0.10810  Biso   1.000  H
  H72      1.0000 0.80220  0.03270  0.39190  Biso   1.000  H
  C9       1.0000 0.79980  0.54860  0.92320  Biso   1.000  C
  C10      1.0000 0.20020  0.04860  0.57680  Biso   1.000  C
  C11      1.0000 0.20020  0.45140  0.07680  Biso   1.000  C
  C12      1.0000 0.79980  0.95140  0.42320  Biso   1.000  C
  C13      1.0000 0.75280  0.59320  0.94100  Biso   1.000  C
  C14      1.0000 0.24720  0.09320  0.55900  Biso   1.000  C
  C15      1.0000 0.24720  0.40680  0.05900  Biso   1.000  C
  C16      1.0000 0.75280  0.90680  0.44100  Biso   1.000  C
  H73      1.0000 0.77020  0.62980  0.95010  Biso   1.000  H
  H74      1.0000 0.22980  0.12980  0.54990  Biso   1.000  H
  H75      1.0000 0.22980  0.37020  0.04990  Biso   1.000  H
  H76      1.0000 0.77020  0.87020  0.45010  Biso   1.000  H
  C17      1.0000 0.67790  0.57910  0.94410  Biso   1.000  C
  C18      1.0000 0.32210  0.07910  0.55590  Biso   1.000  C
  C19      1.0000 0.32210  0.42090  0.05590  Biso   1.000  C
  C20      1.0000 0.67790  0.92090  0.44410  Biso   1.000  C
  H77      1.0000 0.64580  0.60750  0.95710  Biso   1.000  H
  H78      1.0000 0.35420  0.10750  0.54290  Biso   1.000  H
  H79      1.0000 0.35420  0.39250  0.04290  Biso   1.000  H
  H80      1.0000 0.64580  0.89250  0.45710  Biso   1.000  H
  C21      1.0000 0.87990  0.56380  0.91440  Biso   1.000  C
  C22      1.0000 0.12010  0.06380  0.58560  Biso   1.000  C
  C23      1.0000 0.12010  0.43620  0.08560  Biso   1.000  C
  C24      1.0000 0.87990  0.93620  0.41440  Biso   1.000  C
  C25      1.0000 0.28550  0.39530  0.80440  Biso   1.000  C
  C26      1.0000 0.71450  0.89530  0.69560  Biso   1.000  C
  C27      1.0000 0.71450  0.60470  0.19560  Biso   1.000  C
  C28      1.0000 0.28550  0.10470  0.30440  Biso   1.000  C
  H81      1.0000 0.30170  0.35960  0.79060  Biso   1.000  H
  H82      1.0000 0.69830  0.85960  0.70940  Biso   1.000  H
  H83      1.0000 0.69830  0.64040  0.20940  Biso   1.000  H
  H84      1.0000 0.30170  0.14040  0.29060  Biso   1.000  H
  C29      1.0000 0.20850  0.40280  0.80240  Biso   1.000  C
  C30      1.0000 0.79150  0.90280  0.69760  Biso   1.000  C
  C31      1.0000 0.79150  0.59720  0.19760  Biso   1.000  C
  C32      1.0000 0.20850  0.09720  0.30240  Biso   1.000  C
  H85      1.0000 0.17490  0.37340  0.78660  Biso   1.000  H
  H86      1.0000 0.82510  0.87340  0.71340  Biso   1.000  H
  H87      1.0000 0.82510  0.62660  0.21340  Biso   1.000  H
  H88      1.0000 0.17490  0.12660  0.28660  Biso   1.000  H
  C33      1.0000 0.18450  0.45630  0.82520  Biso   1.000  C
  C34      1.0000 0.81550  0.95630  0.67480  Biso   1.000  C
  C35      1.0000 0.81550  0.54370  0.17480  Biso   1.000  C
  C36      1.0000 0.18450  0.04370  0.32520  Biso   1.000  C
  C37      1.0000 0.23560  0.49910  0.84290  Biso   1.000  C
  C38      1.0000 0.76440  0.99910  0.65710  Biso   1.000  C
  C39      1.0000 0.76440  0.50090  0.15710  Biso   1.000  C
  C40      1.0000 0.23560  0.00090  0.34290  Biso   1.000  C
  H89      1.0000 0.22080  0.53540  0.85530  Biso   1.000  H
  H90      1.0000 0.77920  0.03540  0.64470  Biso   1.000  H
  H91      1.0000 0.77920  0.46460  0.14470  Biso   1.000  H
  H92      1.0000 0.22080  0.96460  0.35530  Biso   1.000  H
  C41      1.0000 0.31080  0.48620  0.84150  Biso   1.000  C
  C42      1.0000 0.68920  0.98620  0.65850  Biso   1.000  C
  C43      1.0000 0.68920  0.51380  0.15850  Biso   1.000  C
  C44      1.0000 0.31080  0.01380  0.34150  Biso   1.000  C
  H93      1.0000 0.34520  0.51540  0.85340  Biso   1.000  H
  H94      1.0000 0.65480  0.01540  0.64660  Biso   1.000  H
  H95      1.0000 0.65480  0.48460  0.14660  Biso   1.000  H
  H96      1.0000 0.34520  0.98460  0.35340  Biso   1.000  H
  C45      1.0000 0.10140  0.46670  0.82330  Biso   1.000  C
  C46      1.0000 0.89860  0.96670  0.67670  Biso   1.000  C
  C47      1.0000 0.89860  0.53330  0.17670  Biso   1.000  C
  C48      1.0000 0.10140  0.03330  0.32330  Biso   1.000  C
  C49      1.0000 0.65030  0.34370  0.73430  Biso   1.000  C
  C50      1.0000 0.34970  0.84370  0.76570  Biso   1.000  C
  C51      1.0000 0.34970  0.65630  0.26570  Biso   1.000  C
  C52      1.0000 0.65030  0.15630  0.23430  Biso   1.000  C
  H97      1.0000 0.60490  0.34720  0.69280  Biso   1.000  H
  H98      1.0000 0.39510  0.84720  0.80720  Biso   1.000  H
  H99      1.0000 0.39510  0.65280  0.30720  Biso   1.000  H
  H100     1.0000 0.60490  0.15280  0.19280  Biso   1.000  H
  C53      1.0000 0.71620  0.35430  0.69810  Biso   1.000  C
  C54      1.0000 0.28380  0.85430  0.80190  Biso   1.000  C
  C55      1.0000 0.28380  0.64570  0.30190  Biso   1.000  C
  C56      1.0000 0.71620  0.14570  0.19810  Biso   1.000  C
  H101     1.0000 0.71390  0.36520  0.63360  Biso   1.000  H
  H102     1.0000 0.28610  0.86520  0.86640  Biso   1.000  H
  H103     1.0000 0.28610  0.63480  0.36640  Biso   1.000  H
  H104     1.0000 0.71390  0.13480  0.13360  Biso   1.000  H
  C57      1.0000 0.78280  0.34880  0.75540  Biso   1.000  C
  C58      1.0000 0.21720  0.84880  0.74460  Biso   1.000  C
  C59      1.0000 0.21720  0.65120  0.24460  Biso   1.000  C
  C60      1.0000 0.78280  0.15120  0.25540  Biso   1.000  C
  C61      1.0000 0.78390  0.33380  0.85210  Biso   1.000  C
  C62      1.0000 0.21610  0.83380  0.64790  Biso   1.000  C
  C63      1.0000 0.21610  0.66620  0.14790  Biso   1.000  C
  C64      1.0000 0.78390  0.16620  0.35210  Biso   1.000  C
  H105     1.0000 0.82900  0.33050  0.89430  Biso   1.000  H
  H106     1.0000 0.17100  0.83050  0.60570  Biso   1.000  H
  H107     1.0000 0.17100  0.66950  0.10570  Biso   1.000  H
  H108     1.0000 0.82900  0.16950  0.39430  Biso   1.000  H
  C65      1.0000 0.71760  0.32390  0.88470  Biso   1.000  C
  C66      1.0000 0.28240  0.82390  0.61530  Biso   1.000  C
  C67      1.0000 0.28240  0.67610  0.11530  Biso   1.000  C
  C68      1.0000 0.71760  0.17610  0.38470  Biso   1.000  C
  H109     1.0000 0.71910  0.31340  0.94930  Biso   1.000  H
  H110     1.0000 0.28090  0.81340  0.55070  Biso   1.000  H
  H111     1.0000 0.28090  0.68660  0.05070  Biso   1.000  H
  H112     1.0000 0.71910  0.18660  0.44930  Biso   1.000  H
  C69      1.0000 0.85330  0.36190  0.71540  Biso   1.000  C
  C70      1.0000 0.14670  0.86190  0.78460  Biso   1.000  C
  C71      1.0000 0.14670  0.63810  0.28460  Biso   1.000  C
  C72      1.0000 0.85330  0.13810  0.21540  Biso   1.000  C
  C73      1.0000 0.27570  0.25080  0.88860  Biso   1.000  C
  C74      1.0000 0.72430  0.75080  0.61140  Biso   1.000  C
  C75      1.0000 0.72430  0.74920  0.11140  Biso   1.000  C
  C76      1.0000 0.27570  0.24920  0.38860  Biso   1.000  C
  H113     1.0000 0.26750  0.25210  0.82100  Biso   1.000  H
  H114     1.0000 0.73250  0.75210  0.67900  Biso   1.000  H
  H115     1.0000 0.73250  0.74790  0.17900  Biso   1.000  H
  H116     1.0000 0.26750  0.24790  0.32100  Biso   1.000  H
  C77      1.0000 0.21490  0.24830  0.93960  Biso   1.000  C
  C78      1.0000 0.78510  0.74830  0.56040  Biso   1.000  C
  C79      1.0000 0.78510  0.75170  0.06040  Biso   1.000  C
  C80      1.0000 0.21490  0.25170  0.43960  Biso   1.000  C
  H117     1.0000 0.16650  0.24720  0.90540  Biso   1.000  H
  H118     1.0000 0.83350  0.74720  0.59460  Biso   1.000  H
  H119     1.0000 0.83350  0.75280  0.09460  Biso   1.000  H
  H120     1.0000 0.16650  0.25280  0.40540  Biso   1.000  H
  C81      1.0000 0.22620  0.24740  0.03660  Biso   1.000  C
  C82      1.0000 0.77380  0.74740  0.46340  Biso   1.000  C
  C83      1.0000 0.77380  0.75260  0.96340  Biso   1.000  C
  C84      1.0000 0.22620  0.25260  0.53660  Biso   1.000  C
  C85      1.0000 0.30030  0.24880  0.08680  Biso   1.000  C
  C86      1.0000 0.69970  0.74880  0.41320  Biso   1.000  C
  C87      1.0000 0.69970  0.75120  0.91320  Biso   1.000  C
  C88      1.0000 0.30030  0.25120  0.58680  Biso   1.000  C
  H121     1.0000 0.31190  0.24860  0.15440  Biso   1.000  H
  H122     1.0000 0.68810  0.74860  0.34560  Biso   1.000  H
  H123     1.0000 0.68810  0.75140  0.84560  Biso   1.000  H
  H124     1.0000 0.31190  0.25140  0.65440  Biso   1.000  H
  C89      1.0000 0.35600  0.25050  0.02550  Biso   1.000  C
  C90      1.0000 0.64400  0.75050  0.47450  Biso   1.000  C
  C91      1.0000 0.64400  0.74950  0.97450  Biso   1.000  C
  C92      1.0000 0.35600  0.24950  0.52550  Biso   1.000  C
  H125     1.0000 0.40540  0.25100  0.05650  Biso   1.000  H
  H126     1.0000 0.59460  0.75100  0.44350  Biso   1.000  H
  H127     1.0000 0.59460  0.74900  0.94350  Biso   1.000  H
  H128     1.0000 0.40540  0.24900  0.55650  Biso   1.000  H
  C93      1.0000 0.16260  0.24350  0.09720  Biso   1.000  C
  C94      1.0000 0.83740  0.74350  0.40280  Biso   1.000  C
  C95      1.0000 0.83740  0.75650  0.90280  Biso   1.000  C
  C96      1.0000 0.16260  0.25650  0.59720  Biso   1.000  C
  C97      1.0000 0.28460  0.66820  0.61600  Biso   1.000  C
  C98      1.0000 0.71540  0.16820  0.88400  Biso   1.000  C
  C99      1.0000 0.71540  0.33180  0.38400  Biso   1.000  C
  C100     1.0000 0.28460  0.83180  0.11600  Biso   1.000  C
  H129     1.0000 0.28260  0.67490  0.54980  Biso   1.000  H
  H130     1.0000 0.71740  0.17490  0.95020  Biso   1.000  H
  H131     1.0000 0.71740  0.32510  0.45020  Biso   1.000  H
  H132     1.0000 0.28260  0.82510  0.04980  Biso   1.000  H
  C101     1.0000 0.22140  0.65800  0.64900  Biso   1.000  C
  C102     1.0000 0.77860  0.15800  0.85100  Biso   1.000  C
  C103     1.0000 0.77860  0.34200  0.35100  Biso   1.000  C
  C104     1.0000 0.22140  0.84200  0.14900  Biso   1.000  C
  H133     1.0000 0.17670  0.65760  0.60540  Biso   1.000  H
  H134     1.0000 0.82330  0.15760  0.89460  Biso   1.000  H
  H135     1.0000 0.82330  0.34240  0.39460  Biso   1.000  H
  H136     1.0000 0.17670  0.84240  0.10540  Biso   1.000  H
  C105     1.0000 0.22020  0.64780  0.74690  Biso   1.000  C
  C106     1.0000 0.77980  0.14780  0.75310  Biso   1.000  C
  C107     1.0000 0.77980  0.35220  0.25310  Biso   1.000  C
  C108     1.0000 0.22020  0.85220  0.24690  Biso   1.000  C
  C109     1.0000 0.28900  0.64760  0.80920  Biso   1.000  C
  C110     1.0000 0.71100  0.14760  0.69080  Biso   1.000  C
  C111     1.0000 0.71100  0.35240  0.19080  Biso   1.000  C
  C112     1.0000 0.28900  0.85240  0.30920  Biso   1.000  C
  H137     1.0000 0.29180  0.64010  0.87520  Biso   1.000  H
  H138     1.0000 0.70820  0.14010  0.62480  Biso   1.000  H
  H139     1.0000 0.70820  0.35990  0.12480  Biso   1.000  H
  H140     1.0000 0.29180  0.85990  0.37520  Biso   1.000  H
  C113     1.0000 0.35270  0.65900  0.77000  Biso   1.000  C
  C114     1.0000 0.64730  0.15900  0.73000  Biso   1.000  C
  C115     1.0000 0.64730  0.34100  0.23000  Biso   1.000  C
  C116     1.0000 0.35270  0.84100  0.27000  Biso   1.000  C
  H141     1.0000 0.39860  0.65950  0.81110  Biso   1.000  H
  H142     1.0000 0.60140  0.15950  0.68890  Biso   1.000  H
  H143     1.0000 0.60140  0.34050  0.18890  Biso   1.000  H
  H144     1.0000 0.39860  0.84050  0.31110  Biso   1.000  H
  C117     1.0000 0.14890  0.63440  0.78490  Biso   1.000  C
  C118     1.0000 0.85110  0.13440  0.71510  Biso   1.000  C
  C119     1.0000 0.85110  0.36560  0.21510  Biso   1.000  C
  C120     1.0000 0.14890  0.86560  0.28490  Biso   1.000  C
  C121     1.0000 0.69160  0.51110  0.65390  Biso   1.000  C
  C122     1.0000 0.30840  0.01110  0.84610  Biso   1.000  C
  C123     1.0000 0.30840  0.48890  0.34610  Biso   1.000  C
  C124     1.0000 0.69160  0.98890  0.15390  Biso   1.000  C
  H145     1.0000 0.65660  0.48240  0.64080  Biso   1.000  H
  H146     1.0000 0.34340  0.98240  0.85920  Biso   1.000  H
  H147     1.0000 0.34340  0.51760  0.35920  Biso   1.000  H
  H148     1.0000 0.65660  0.01760  0.14080  Biso   1.000  H
  C125     1.0000 0.76660  0.49890  0.65350  Biso   1.000  C
  C126     1.0000 0.23340  0.99890  0.84650  Biso   1.000  C
  C127     1.0000 0.23340  0.50110  0.34650  Biso   1.000  C
  C128     1.0000 0.76660  0.00110  0.15350  Biso   1.000  C
  H149     1.0000 0.78110  0.46290  0.63840  Biso   1.000  H
  H150     1.0000 0.21890  0.96290  0.86160  Biso   1.000  H
  H151     1.0000 0.21890  0.53710  0.36160  Biso   1.000  H
  H152     1.0000 0.78110  0.03710  0.13840  Biso   1.000  H
  C129     1.0000 0.82020  0.54160  0.67610  Biso   1.000  C
  C130     1.0000 0.17980  0.04160  0.82390  Biso   1.000  C
  C131     1.0000 0.17980  0.45840  0.32390  Biso   1.000  C
  C132     1.0000 0.82020  0.95840  0.17610  Biso   1.000  C
  C133     1.0000 0.79450  0.59420  0.69340  Biso   1.000  C
  C134     1.0000 0.20550  0.09420  0.80660  Biso   1.000  C
  C135     1.0000 0.20550  0.40580  0.30660  Biso   1.000  C
  C136     1.0000 0.79450  0.90580  0.19340  Biso   1.000  C
  H153     1.0000 0.82800  0.62390  0.70680  Biso   1.000  H
  H154     1.0000 0.17200  0.12390  0.79320  Biso   1.000  H
  H155     1.0000 0.17200  0.37610  0.29320  Biso   1.000  H
  H156     1.0000 0.82800  0.87610  0.20680  Biso   1.000  H
  C137     1.0000 0.72000  0.60340  0.69110  Biso   1.000  C
  C138     1.0000 0.28000  0.10340  0.80890  Biso   1.000  C
  C139     1.0000 0.28000  0.39660  0.30890  Biso   1.000  C
  C140     1.0000 0.72000  0.89660  0.19110  Biso   1.000  C
  H157     1.0000 0.70380  0.63940  0.70290  Biso   1.000  H
  H158     1.0000 0.29620  0.13940  0.79710  Biso   1.000  H
  H159     1.0000 0.29620  0.36060  0.29710  Biso   1.000  H
  H160     1.0000 0.70380  0.86060  0.20290  Biso   1.000  H
  C141     1.0000 0.90270  0.52890  0.68110  Biso   1.000  C
  C142     1.0000 0.09730  0.02890  0.81890  Biso   1.000  C
  C143     1.0000 0.09730  0.47110  0.31890  Biso   1.000  C
  C144     1.0000 0.90270  0.97110  0.18110  Biso   1.000  C
  C145     1.0000 0.32710  0.41910  0.55770  Biso   1.000  C
  C146     1.0000 0.67290  0.91910  0.94230  Biso   1.000  C
  C147     1.0000 0.67290  0.58090  0.44230  Biso   1.000  C
  C148     1.0000 0.32710  0.08090  0.05770  Biso   1.000  C
  H161     1.0000 0.36020  0.39060  0.54810  Biso   1.000  H
  H162     1.0000 0.63980  0.89060  0.95190  Biso   1.000  H
  H163     1.0000 0.63980  0.60940  0.45190  Biso   1.000  H
  H164     1.0000 0.36020  0.10940  0.04810  Biso   1.000  H
  C149     1.0000 0.25210  0.40490  0.55770  Biso   1.000  C
  C150     1.0000 0.74790  0.90490  0.94230  Biso   1.000  C
  C151     1.0000 0.74790  0.59510  0.44230  Biso   1.000  C
  C152     1.0000 0.25210  0.09510  0.05770  Biso   1.000  C
  H165     1.0000 0.23580  0.36810  0.54590  Biso   1.000  H
  H166     1.0000 0.76420  0.86810  0.95410  Biso   1.000  H
  H167     1.0000 0.76420  0.63190  0.45410  Biso   1.000  H
  H168     1.0000 0.23580  0.13190  0.04590  Biso   1.000  H
  C153     1.0000 0.20250  0.44660  0.57570  Biso   1.000  C
  C154     1.0000 0.79750  0.94660  0.92430  Biso   1.000  C
  C155     1.0000 0.79750  0.55340  0.42430  Biso   1.000  C
  C156     1.0000 0.20250  0.05340  0.07570  Biso   1.000  C
  C157     1.0000 0.22920  0.50040  0.59130  Biso   1.000  C
  C158     1.0000 0.77080  0.00040  0.90870  Biso   1.000  C
  C159     1.0000 0.77080  0.49960  0.40870  Biso   1.000  C
  C160     1.0000 0.22920  0.99960  0.09130  Biso   1.000  C
  H169     1.0000 0.19750  0.52940  0.60300  Biso   1.000  H
  H170     1.0000 0.80250  0.02940  0.89700  Biso   1.000  H
  H171     1.0000 0.80250  0.47060  0.39700  Biso   1.000  H
  H172     1.0000 0.19750  0.97060  0.10300  Biso   1.000  H
  C161     1.0000 0.30400  0.51090  0.58930  Biso   1.000  C
  C162     1.0000 0.69600  0.01090  0.91070  Biso   1.000  C
  C163     1.0000 0.69600  0.48910  0.41070  Biso   1.000  C
  C164     1.0000 0.30400  0.98910  0.08930  Biso   1.000  C
  H173     1.0000 0.32150  0.54730  0.60150  Biso   1.000  H
  H174     1.0000 0.67850  0.04730  0.89850  Biso   1.000  H
  H175     1.0000 0.67850  0.45270  0.39850  Biso   1.000  H
  H176     1.0000 0.32150  0.95270  0.10150  Biso   1.000  H
  C165     1.0000 0.12390  0.43030  0.58450  Biso   1.000  C
  C166     1.0000 0.87610  0.93030  0.91550  Biso   1.000  C
  C167     1.0000 0.87610  0.56970  0.41550  Biso   1.000  C
  C168     1.0000 0.12390  0.06970  0.08450  Biso   1.000  C
