data_image0
_cell_length_a       6.6226
_cell_length_b       9.657
_cell_length_c       9.752
_cell_angle_alpha    95.92
_cell_angle_beta     108.9
_cell_angle_gamma    94.26

_symmetry_space_group_name_H-M    "P 1"
_symmetry_int_tables_number       1

loop_
  _symmetry_equiv_pos_as_xyz
  'x, y, z'

loop_
  _atom_site_label
  _atom_site_occupancy
  _atom_site_fract_x
  _atom_site_fract_y
  _atom_site_fract_z
  _atom_site_thermal_displace_type
  _atom_site_B_iso_or_equiv
  _atom_site_type_symbol
  Cu1      1.0000 0.42629  0.86703  0.45630  Biso   1.000  Cu
  Cu2      1.0000 0.57371  0.13297  0.54370  Biso   1.000  Cu
  C1       1.0000 0.77570  0.86610  0.23430  Biso   1.000  C
  C2       1.0000 0.22430  0.13390  0.76570  Biso   1.000  C
  C3       1.0000 0.74270  0.01640  0.24270  Biso   1.000  C
  C4       1.0000 0.25730  0.98360  0.75730  Biso   1.000  C
  C5       1.0000 0.54140  0.06030  0.18330  Biso   1.000  C
  C6       1.0000 0.45860  0.93970  0.81670  Biso   1.000  C
  H1       1.0000 0.42250  0.99430  0.13700  Biso   1.000  H
  H2       1.0000 0.57750  0.00570  0.86300  Biso   1.000  H
  C7       1.0000 0.51660  0.20120  0.19250  Biso   1.000  C
  C8       1.0000 0.48340  0.79880  0.80750  Biso   1.000  C
  C9       1.0000 0.69980  0.30060  0.26240  Biso   1.000  C
  C10      1.0000 0.30020  0.69940  0.73760  Biso   1.000  C
  C11      1.0000 0.89710  0.25610  0.32390  Biso   1.000  C
  C12      1.0000 0.10290  0.74390  0.67610  Biso   1.000  C
  H3       1.0000 0.01540  0.32170  0.37310  Biso   1.000  H
  H4       1.0000 0.98460  0.67830  0.62690  Biso   1.000  H
  C13      1.0000 0.92280  0.11400  0.31370  Biso   1.000  C
  C14      1.0000 0.07720  0.88600  0.68630  Biso   1.000  C
  C15      1.0000 0.13300  0.06880  0.37770  Biso   1.000  C
  C16      1.0000 0.86700  0.93120  0.62230  Biso   1.000  C
  C17      1.0000 0.30250  0.25320  0.13480  Biso   1.000  C
  C18      1.0000 0.69750  0.74680  0.86520  Biso   1.000  C
  C19      1.0000 0.68880  0.45640  0.27510  Biso   1.000  C
  C20      1.0000 0.31120  0.54360  0.72490  Biso   1.000  C
  N1       1.0000 0.97560  0.83820  0.29870  Biso   1.000  N
  N2       1.0000 0.02440  0.16180  0.70130  Biso   1.000  N
  N3       1.0000 0.15940  0.93420  0.37050  Biso   1.000  N
  N4       1.0000 0.84060  0.06580  0.62950  Biso   1.000  N
  O1       1.0000 0.62720  0.77050  0.16980  Biso   1.000  O
  O2       1.0000 0.37280  0.22950  0.83020  Biso   1.000  O
  O3       1.0000 0.29220  0.16260  0.44350  Biso   1.000  O
  O4       1.0000 0.70780  0.83740  0.55650  Biso   1.000  O
  O5       1.0000 0.27570  0.37590  0.15530  Biso   1.000  O
  O6       1.0000 0.72430  0.62410  0.84470  Biso   1.000  O
  O7       1.0000 0.14630  0.15420  0.06090  Biso   1.000  O
  O8       1.0000 0.85370  0.84580  0.93910  Biso   1.000  O
  H5       1.0000 0.03630  0.18980  0.02340  Biso   1.000  H
  H6       1.0000 0.96370  0.81020  0.97660  Biso   1.000  H
  O9       1.0000 0.68730  0.50670  0.15450  Biso   1.000  O
  O10      1.0000 0.31270  0.49330  0.84550  Biso   1.000  O
  H7       1.0000 0.65890  0.58790  0.15910  Biso   1.000  H
  H8       1.0000 0.34110  0.41210  0.84090  Biso   1.000  H
  O11      1.0000 0.69870  0.52550  0.38620  Biso   1.000  O
  O12      1.0000 0.30130  0.47450  0.61380  Biso   1.000  O
  O13      1.0000 0.23650  0.62240  0.37120  Biso   1.000  O
  O14      1.0000 0.76350  0.37760  0.62880  Biso   1.000  O
  H9       1.0000 0.23570  0.60480  0.28380  Biso   1.000  H
  H10      1.0000 0.76430  0.39520  0.71620  Biso   1.000  H
  H11      1.0000 0.26270  0.54970  0.41330  Biso   1.000  H
  H12      1.0000 0.73730  0.45030  0.58670  Biso   1.000  H
  H13      1.0000 0.98400  0.74300  0.30500  Biso   1.000  H
  H14      1.0000 0.01600  0.25700  0.69500  Biso   1.000  H
  O15      1.0000 0.18580  0.70780  0.05530  Biso   1.000  O
  O16      1.0000 0.81420  0.29220  0.94470  Biso   1.000  O
  H15      1.0000 0.16400  0.61800  0.01700  Biso   1.000  H
  H16      1.0000 0.83600  0.38200  0.98300  Biso   1.000  H
  H17      1.0000 0.31700  0.74000  0.10500  Biso   1.000  H
  H18      1.0000 0.68300  0.26000  0.89500  Biso   1.000  H
