data_image0
_cell_length_a       10.366
_cell_length_b       11.154
_cell_length_c       12.483
_cell_angle_alpha    96.342
_cell_angle_beta     105.741
_cell_angle_gamma    104.4

_symmetry_space_group_name_H-M    "P 1"
_symmetry_int_tables_number       1

loop_
  _symmetry_equiv_pos_as_xyz
  'x, y, z'

loop_
  _atom_site_label
  _atom_site_occupancy
  _atom_site_fract_x
  _atom_site_fract_y
  _atom_site_fract_z
  _atom_site_thermal_displace_type
  _atom_site_B_iso_or_equiv
  _atom_site_type_symbol
  Cu1      1.0000 0.91710  0.71419  0.83284  Biso   1.000  Cu
  Cu2      1.0000 0.08290  0.28581  0.16716  Biso   1.000  Cu
  Cu3      1.0000 0.06940  0.49373  0.10717  Biso   1.000  Cu
  Cu4      1.0000 0.93060  0.50627  0.89283  Biso   1.000  Cu
  Cu5      1.0000 0.10165  0.80763  0.73386  Biso   1.000  Cu
  Cu6      1.0000 0.89835  0.19237  0.26614  Biso   1.000  Cu
  Cu7      1.0000 0.10449  0.00639  0.58407  Biso   1.000  Cu
  Cu8      1.0000 0.89551  0.99361  0.41593  Biso   1.000  Cu
  I1       1.0000 0.06878  0.71381  0.06371  Biso   1.000  I
  I2       1.0000 0.93122  0.28619  0.93629  Biso   1.000  I
  I3       1.0000 0.67746  0.54550  0.80154  Biso   1.000  I
  I4       1.0000 0.32254  0.45450  0.19846  Biso   1.000  I
  I5       1.0000 0.04042  0.56722  0.71597  Biso   1.000  I
  I6       1.0000 0.95958  0.43278  0.28403  Biso   1.000  I
  I7       1.0000 0.94262  0.93530  0.78582  Biso   1.000  I
  I8       1.0000 0.05738  0.06470  0.21418  Biso   1.000  I
  I9       1.0000 0.96999  0.79349  0.44394  Biso   1.000  I
  I10      1.0000 0.03001  0.20651  0.55606  Biso   1.000  I
  N1       1.0000 0.51670  0.00490  0.75270  Biso   1.000  N
  N2       1.0000 0.48330  0.99510  0.24730  Biso   1.000  N
  N3       1.0000 0.30020  0.92400  0.73910  Biso   1.000  N
  N4       1.0000 0.69980  0.07600  0.26090  Biso   1.000  N
  N5       1.0000 0.29580  0.99170  0.67140  Biso   1.000  N
  N6       1.0000 0.70420  0.00830  0.32860  Biso   1.000  N
  N7       1.0000 0.58750  0.28210  0.46850  Biso   1.000  N
  N8       1.0000 0.41250  0.71790  0.53150  Biso   1.000  N
  N9       1.0000 0.59560  0.76580  0.07450  Biso   1.000  N
  N10      1.0000 0.40440  0.23420  0.92550  Biso   1.000  N
  C1       1.0000 0.66870  0.50070  0.44600  Biso   1.000  C
  C2       1.0000 0.33130  0.49930  0.55400  Biso   1.000  C
  H1       1.0000 0.70560  0.55430  0.39770  Biso   1.000  H
  H2       1.0000 0.29440  0.44570  0.60230  Biso   1.000  H
  H3       1.0000 0.57920  0.51280  0.44900  Biso   1.000  H
  H4       1.0000 0.42080  0.48720  0.55100  Biso   1.000  H
  H5       1.0000 0.73560  0.52360  0.52270  Biso   1.000  H
  H6       1.0000 0.26440  0.47640  0.47730  Biso   1.000  H
  C3       1.0000 0.64750  0.36910  0.39970  Biso   1.000  C
  C4       1.0000 0.35250  0.63090  0.60030  Biso   1.000  C
  H7       1.0000 0.58330  0.34750  0.32090  Biso   1.000  H
  H8       1.0000 0.41670  0.65250  0.67910  Biso   1.000  H
  H9       1.0000 0.73830  0.35710  0.39740  Biso   1.000  H
  H10      1.0000 0.26170  0.64290  0.60260  Biso   1.000  H
  C5       1.0000 0.67310  0.25980  0.56090  Biso   1.000  C
  C6       1.0000 0.32690  0.74020  0.43910  Biso   1.000  C
  H11      1.0000 0.77100  0.29870  0.58060  Biso   1.000  H
  H12      1.0000 0.22900  0.70130  0.41940  Biso   1.000  H
  C7       1.0000 0.62340  0.18220  0.62810  Biso   1.000  C
  C8       1.0000 0.37660  0.81780  0.37190  Biso   1.000  C
  H13      1.0000 0.68600  0.16720  0.69290  Biso   1.000  H
  H14      1.0000 0.31400  0.83280  0.30710  Biso   1.000  H
  C9       1.0000 0.47820  0.12550  0.59920  Biso   1.000  C
  C10      1.0000 0.52180  0.87450  0.40080  Biso   1.000  C
  C11      1.0000 0.38900  0.15240  0.50440  Biso   1.000  C
  C12      1.0000 0.61100  0.84760  0.49560  Biso   1.000  C
  H15      1.0000 0.29020  0.11920  0.48560  Biso   1.000  H
  H16      1.0000 0.70980  0.88080  0.51440  Biso   1.000  H
  C13      1.0000 0.44700  0.22790  0.43910  Biso   1.000  C
  C14      1.0000 0.55300  0.77210  0.56090  Biso   1.000  C
  H17      1.0000 0.38750  0.24230  0.37220  Biso   1.000  H
  H18      1.0000 0.61250  0.75770  0.62780  Biso   1.000  H
  C15      1.0000 0.42660  0.04090  0.67340  Biso   1.000  C
  C16      1.0000 0.57340  0.95910  0.32660  Biso   1.000  C
  C17      1.0000 0.42840  0.92740  0.79540  Biso   1.000  C
  C18      1.0000 0.57160  0.07260  0.20460  Biso   1.000  C
  C19      1.0000 0.48590  0.86880  0.89290  Biso   1.000  C
  C20      1.0000 0.51410  0.13120  0.10710  Biso   1.000  C
  C21      1.0000 0.62910  0.88770  0.93190  Biso   1.000  C
  C22      1.0000 0.37090  0.11230  0.06810  Biso   1.000  C
  H19      1.0000 0.68970  0.93740  0.89810  Biso   1.000  H
  H20      1.0000 0.31030  0.06260  0.10190  Biso   1.000  H
  C23      1.0000 0.68270  0.83180  0.02250  Biso   1.000  C
  C24      1.0000 0.31730  0.16820  0.97750  Biso   1.000  C
  H21      1.0000 0.78010  0.83980  0.04790  Biso   1.000  H
  H22      1.0000 0.21990  0.16020  0.95210  Biso   1.000  H
  C25      1.0000 0.45740  0.74870  0.03550  Biso   1.000  C
  C26      1.0000 0.54260  0.25130  0.96450  Biso   1.000  C
  H23      1.0000 0.39800  0.70070  0.07120  Biso   1.000  H
  H24      1.0000 0.60200  0.29930  0.92880  Biso   1.000  H
  C27      1.0000 0.40030  0.79750  0.94730  Biso   1.000  C
  C28      1.0000 0.59970  0.20250  0.05270  Biso   1.000  C
  H25      1.0000 0.30190  0.78400  0.92160  Biso   1.000  H
  H26      1.0000 0.69810  0.21600  0.07840  Biso   1.000  H
  C29      1.0000 0.65640  0.70590  0.16970  Biso   1.000  C
  C30      1.0000 0.34360  0.29410  0.83030  Biso   1.000  C
  H27      1.0000 0.59360  0.69310  0.21730  Biso   1.000  H
  H28      1.0000 0.40640  0.30690  0.78270  Biso   1.000  H
  H29      1.0000 0.74780  0.76450  0.21750  Biso   1.000  H
  H30      1.0000 0.25220  0.23550  0.78250  Biso   1.000  H
  C31      1.0000 0.67700  0.58430  0.13260  Biso   1.000  C
  C32      1.0000 0.32300  0.41570  0.86740  Biso   1.000  C
  H31      1.0000 0.71610  0.55040  0.19920  Biso   1.000  H
  H32      1.0000 0.28390  0.44960  0.80080  Biso   1.000  H
  H33      1.0000 0.58680  0.52510  0.08630  Biso   1.000  H
  H34      1.0000 0.41320  0.47490  0.91370  Biso   1.000  H
  H35      1.0000 0.74180  0.59640  0.08770  Biso   1.000  H
  H36      1.0000 0.25820  0.40360  0.91230  Biso   1.000  H
