data_image0
_cell_length_a       10.119
_cell_length_b       12.37
_cell_length_c       12.962
_cell_angle_alpha    103.19
_cell_angle_beta     111.06
_cell_angle_gamma    109.3

_symmetry_space_group_name_H-M    "P 1"
_symmetry_int_tables_number       1

loop_
  _symmetry_equiv_pos_as_xyz
  'x, y, z'

loop_
  _atom_site_label
  _atom_site_occupancy
  _atom_site_fract_x
  _atom_site_fract_y
  _atom_site_fract_z
  _atom_site_thermal_displace_type
  _atom_site_B_iso_or_equiv
  _atom_site_type_symbol
  Cu1      1.0000 0.12838  0.11542  0.55936  Biso   1.000  Cu
  Cu2      1.0000 0.87162  0.88458  0.44064  Biso   1.000  Cu
  I1       1.0000 0.16886  0.91188  0.52525  Biso   1.000  I
  I2       1.0000 0.83114  0.08812  0.47475  Biso   1.000  I
  N1       1.0000 0.23350  0.21420  0.47963  Biso   1.000  N
  N2       1.0000 0.76650  0.78580  0.52037  Biso   1.000  N
  N3       1.0000 0.23920  0.21590  0.74137  Biso   1.000  N
  N4       1.0000 0.76080  0.78410  0.25863  Biso   1.000  N
  N5       1.0000 0.61960  0.07630  0.68330  Biso   1.000  N
  N6       1.0000 0.38040  0.92370  0.31670  Biso   1.000  N
  H1       1.0000 0.52290  0.03000  0.63080  Biso   1.000  H
  H2       1.0000 0.47710  0.97000  0.36920  Biso   1.000  H
  H3       1.0000 0.67280  0.07110  0.64610  Biso   1.000  H
  H4       1.0000 0.32720  0.92890  0.35390  Biso   1.000  H
  N7       1.0000 0.74640  0.37200  0.81510  Biso   1.000  N
  N8       1.0000 0.25360  0.62800  0.18490  Biso   1.000  N
  H5       1.0000 0.69880  0.29680  0.76510  Biso   1.000  H
  H6       1.0000 0.30120  0.70320  0.23490  Biso   1.000  H
  H7       1.0000 0.76890  0.38860  0.88850  Biso   1.000  H
  H8       1.0000 0.23110  0.61140  0.11150  Biso   1.000  H
  C1       1.0000 0.18060  0.28690  0.43340  Biso   1.000  C
  C2       1.0000 0.81940  0.71310  0.56660  Biso   1.000  C
  H9       1.0000 0.09040  0.29060  0.43590  Biso   1.000  H
  H10      1.0000 0.90960  0.70940  0.56410  Biso   1.000  H
  C3       1.0000 0.25160  0.35640  0.38250  Biso   1.000  C
  C4       1.0000 0.74840  0.64360  0.61750  Biso   1.000  C
  H11      1.0000 0.20990  0.40640  0.35170  Biso   1.000  H
  H12      1.0000 0.79010  0.59360  0.64830  Biso   1.000  H
  C5       1.0000 0.38320  0.35370  0.37610  Biso   1.000  C
  C6       1.0000 0.61680  0.64630  0.62390  Biso   1.000  C
  C7       1.0000 0.43880  0.27980  0.42400  Biso   1.000  C
  C8       1.0000 0.56120  0.72020  0.57600  Biso   1.000  C
  H13      1.0000 0.52900  0.27520  0.42250  Biso   1.000  H
  H14      1.0000 0.47100  0.72480  0.57750  Biso   1.000  H
  C9       1.0000 0.36270  0.21220  0.47450  Biso   1.000  C
  C10      1.0000 0.63730  0.78780  0.52550  Biso   1.000  C
  H15      1.0000 0.40330  0.16240  0.50670  Biso   1.000  H
  H16      1.0000 0.59670  0.83760  0.49330  Biso   1.000  H
  C11      1.0000 0.45990  0.42640  0.31730  Biso   1.000  C
  C12      1.0000 0.54010  0.57360  0.68270  Biso   1.000  C
  H17      1.0000 0.57340  0.44860  0.35450  Biso   1.000  H
  H18      1.0000 0.42660  0.55140  0.64550  Biso   1.000  H
  H19      1.0000 0.44960  0.50380  0.33060  Biso   1.000  H
  H20      1.0000 0.55040  0.49620  0.66940  Biso   1.000  H
  C13      1.0000 0.38360  0.35140  0.18190  Biso   1.000  C
  C14      1.0000 0.61640  0.64860  0.81810  Biso   1.000  C
  H21      1.0000 0.39170  0.27310  0.16830  Biso   1.000  H
  H22      1.0000 0.60830  0.72690  0.83170  Biso   1.000  H
  H23      1.0000 0.27060  0.33090  0.14410  Biso   1.000  H
  H24      1.0000 0.72940  0.66910  0.85590  Biso   1.000  H
  C15      1.0000 0.46530  0.42530  0.12440  Biso   1.000  C
  C16      1.0000 0.53470  0.57470  0.87560  Biso   1.000  C
  H25      1.0000 0.45970  0.50460  0.14020  Biso   1.000  H
  H26      1.0000 0.54030  0.49540  0.85980  Biso   1.000  H
  H27      1.0000 0.57770  0.44400  0.16110  Biso   1.000  H
  H28      1.0000 0.42230  0.55600  0.83890  Biso   1.000  H
  C17      1.0000 0.38940  0.35450  0.99060  Biso   1.000  C
  C18      1.0000 0.61060  0.64550  0.00940  Biso   1.000  C
  C19      1.0000 0.25090  0.35130  0.91230  Biso   1.000  C
  C20      1.0000 0.74910  0.64870  0.08770  Biso   1.000  C
  H29      1.0000 0.20450  0.39610  0.94230  Biso   1.000  H
  H30      1.0000 0.79550  0.60390  0.05770  Biso   1.000  H
  C21      1.0000 0.18100  0.28300  0.79090  Biso   1.000  C
  C22      1.0000 0.81900  0.71700  0.20910  Biso   1.000  C
  H31      1.0000 0.08770  0.28330  0.74000  Biso   1.000  H
  H32      1.0000 0.91230  0.71670  0.26000  Biso   1.000  H
  C23      1.0000 0.37380  0.21980  0.81670  Biso   1.000  C
  C24      1.0000 0.62620  0.78020  0.18330  Biso   1.000  C
  H33      1.0000 0.41830  0.17460  0.78450  Biso   1.000  H
  H34      1.0000 0.58170  0.82540  0.21550  Biso   1.000  H
  C25      1.0000 0.45030  0.28680  0.93900  Biso   1.000  C
  C26      1.0000 0.54970  0.71320  0.06100  Biso   1.000  C
  H35      1.0000 0.54470  0.28640  0.98790  Biso   1.000  H
  H36      1.0000 0.45530  0.71360  0.01210  Biso   1.000  H
  C27      1.0000 0.87760  0.03380  0.13680  Biso   1.000  C
  C28      1.0000 0.12240  0.96620  0.86320  Biso   1.000  C
  H37      1.0000 0.82770  0.06060  0.18190  Biso   1.000  H
  H38      1.0000 0.17230  0.93940  0.81810  Biso   1.000  H
  H39      1.0000 0.99120  0.08790  0.18040  Biso   1.000  H
  H40      1.0000 0.00880  0.91210  0.81960  Biso   1.000  H
  H41      1.0000 0.85790  0.94870  0.12630  Biso   1.000  H
  H42      1.0000 0.14210  0.05130  0.87370  Biso   1.000  H
  C29      1.0000 0.80890  0.04010  0.01470  Biso   1.000  C
  C30      1.0000 0.19110  0.95990  0.98530  Biso   1.000  C
  C31      1.0000 0.64720  0.99280  0.94430  Biso   1.000  C
  C32      1.0000 0.35280  0.00720  0.05570  Biso   1.000  C
  H43      1.0000 0.57840  0.95310  0.97180  Biso   1.000  H
  H44      1.0000 0.42160  0.04690  0.02820  Biso   1.000  H
  C33      1.0000 0.58290  0.00190  0.83470  Biso   1.000  C
  C34      1.0000 0.41710  0.99810  0.16530  Biso   1.000  C
  H45      1.0000 0.47220  0.96920  0.78940  Biso   1.000  H
  H46      1.0000 0.52780  0.03080  0.21060  Biso   1.000  H
  C35      1.0000 0.68130  0.05910  0.79110  Biso   1.000  C
  C36      1.0000 0.31870  0.94090  0.20890  Biso   1.000  C
  C37      1.0000 0.84370  0.10520  0.86030  Biso   1.000  C
  C38      1.0000 0.15630  0.89480  0.13970  Biso   1.000  C
  H47      1.0000 0.91280  0.14360  0.83250  Biso   1.000  H
  H48      1.0000 0.08720  0.85640  0.16750  Biso   1.000  H
  C39      1.0000 0.90560  0.09530  0.97030  Biso   1.000  C
  C40      1.0000 0.09440  0.90470  0.02970  Biso   1.000  C
  H49      1.0000 0.01630  0.12690  0.01560  Biso   1.000  H
  H50      1.0000 0.98370  0.87310  0.98440  Biso   1.000  H
  C41      1.0000 0.21840  0.67570  0.72260  Biso   1.000  C
  C42      1.0000 0.78160  0.32430  0.27740  Biso   1.000  C
  H51      1.0000 0.22220  0.62580  0.65510  Biso   1.000  H
  H52      1.0000 0.77780  0.37420  0.34490  Biso   1.000  H
  H53      1.0000 0.32270  0.71780  0.79250  Biso   1.000  H
  H54      1.0000 0.67730  0.28220  0.20750  Biso   1.000  H
  H55      1.0000 0.18640  0.73710  0.70250  Biso   1.000  H
  H56      1.0000 0.81360  0.26290  0.29750  Biso   1.000  H
  C43      1.0000 0.10010  0.59260  0.74980  Biso   1.000  C
  C44      1.0000 0.89990  0.40740  0.25020  Biso   1.000  C
  C45      1.0000 0.09260  0.63550  0.85540  Biso   1.000  C
  C46      1.0000 0.90740  0.36450  0.14460  Biso   1.000  C
  H57      1.0000 0.16710  0.71640  0.91300  Biso   1.000  H
  H58      1.0000 0.83290  0.28360  0.08700  Biso   1.000  H
  C47      1.0000 0.97960  0.56300  0.87780  Biso   1.000  C
  C48      1.0000 0.02040  0.43700  0.12220  Biso   1.000  C
  H59      1.0000 0.97760  0.59540  0.95000  Biso   1.000  H
  H60      1.0000 0.02240  0.40460  0.05000  Biso   1.000  H
  C49      1.0000 0.86790  0.44270  0.79580  Biso   1.000  C
  C50      1.0000 0.13210  0.55730  0.20420  Biso   1.000  C
  C51      1.0000 0.87530  0.39820  0.69140  Biso   1.000  C
  C52      1.0000 0.12470  0.60180  0.30860  Biso   1.000  C
  H61      1.0000 0.80170  0.31670  0.63460  Biso   1.000  H
  H62      1.0000 0.19830  0.68330  0.36540  Biso   1.000  H
  C53      1.0000 0.98990  0.47190  0.66900  Biso   1.000  C
  C54      1.0000 0.01010  0.52810  0.33100  Biso   1.000  C
  H63      1.0000 0.99270  0.43920  0.59730  Biso   1.000  H
  H64      1.0000 0.00730  0.56080  0.40270  Biso   1.000  H
