data_image0
_cell_length_a       17.7
_cell_length_b       14.604
_cell_length_c       13.757
_cell_angle_alpha    90
_cell_angle_beta     109.53
_cell_angle_gamma    90

_symmetry_space_group_name_H-M    "P 1"
_symmetry_int_tables_number       1

loop_
  _symmetry_equiv_pos_as_xyz
  'x, y, z'

loop_
  _atom_site_label
  _atom_site_occupancy
  _atom_site_fract_x
  _atom_site_fract_y
  _atom_site_fract_z
  _atom_site_thermal_displace_type
  _atom_site_B_iso_or_equiv
  _atom_site_type_symbol
  Cu1      1.0000 0.10953  0.86540  0.29705  Biso   1.000  Cu
  Cu2      1.0000 0.89047  0.86540  0.20295  Biso   1.000  Cu
  Cu3      1.0000 0.60953  0.36540  0.29705  Biso   1.000  Cu
  Cu4      1.0000 0.39047  0.36540  0.20295  Biso   1.000  Cu
  Cu5      1.0000 0.89047  0.13460  0.70295  Biso   1.000  Cu
  Cu6      1.0000 0.10953  0.13460  0.79705  Biso   1.000  Cu
  Cu7      1.0000 0.39047  0.63460  0.70295  Biso   1.000  Cu
  Cu8      1.0000 0.60953  0.63460  0.79705  Biso   1.000  Cu
  I1       1.0000 0.00000  0.72585  0.25000  Biso   1.000  I
  I2       1.0000 0.50000  0.22585  0.25000  Biso   1.000  I
  I3       1.0000 0.00000  0.27415  0.75000  Biso   1.000  I
  I4       1.0000 0.50000  0.77415  0.75000  Biso   1.000  I
  I5       1.0000 0.00000  0.00533  0.25000  Biso   1.000  I
  I6       1.0000 0.50000  0.50533  0.25000  Biso   1.000  I
  I7       1.0000 0.00000  0.99467  0.75000  Biso   1.000  I
  I8       1.0000 0.50000  0.49467  0.75000  Biso   1.000  I
  I9       1.0000 0.02316  0.34964  0.00902  Biso   1.000  I
  I10      1.0000 0.97684  0.34964  0.49098  Biso   1.000  I
  I11      1.0000 0.52316  0.84964  0.00902  Biso   1.000  I
  I12      1.0000 0.47684  0.84964  0.49098  Biso   1.000  I
  I13      1.0000 0.97684  0.65036  0.99098  Biso   1.000  I
  I14      1.0000 0.02316  0.65036  0.50902  Biso   1.000  I
  I15      1.0000 0.47684  0.15036  0.99098  Biso   1.000  I
  I16      1.0000 0.52316  0.15036  0.50902  Biso   1.000  I
  N1       1.0000 0.16600  0.87300  0.45120  Biso   1.000  N
  N2       1.0000 0.83400  0.87300  0.04880  Biso   1.000  N
  N3       1.0000 0.66600  0.37300  0.45120  Biso   1.000  N
  N4       1.0000 0.33400  0.37300  0.04880  Biso   1.000  N
  N5       1.0000 0.83400  0.12700  0.54880  Biso   1.000  N
  N6       1.0000 0.16600  0.12700  0.95120  Biso   1.000  N
  N7       1.0000 0.33400  0.62700  0.54880  Biso   1.000  N
  N8       1.0000 0.66600  0.62700  0.95120  Biso   1.000  N
  C1       1.0000 0.24530  0.86650  0.49560  Biso   1.000  C
  C2       1.0000 0.75470  0.86650  0.00440  Biso   1.000  C
  C3       1.0000 0.74530  0.36650  0.49560  Biso   1.000  C
  C4       1.0000 0.25470  0.36650  0.00440  Biso   1.000  C
  C5       1.0000 0.75470  0.13350  0.50440  Biso   1.000  C
  C6       1.0000 0.24530  0.13350  0.99560  Biso   1.000  C
  C7       1.0000 0.25470  0.63350  0.50440  Biso   1.000  C
  C8       1.0000 0.74530  0.63350  0.99560  Biso   1.000  C
  H1       1.0000 0.27640  0.85710  0.45290  Biso   1.000  H
  H2       1.0000 0.72360  0.85710  0.04710  Biso   1.000  H
  H3       1.0000 0.77640  0.35710  0.45290  Biso   1.000  H
  H4       1.0000 0.22360  0.35710  0.04710  Biso   1.000  H
  H5       1.0000 0.72360  0.14290  0.54710  Biso   1.000  H
  H6       1.0000 0.27640  0.14290  0.95290  Biso   1.000  H
  H7       1.0000 0.22360  0.64290  0.54710  Biso   1.000  H
  H8       1.0000 0.77640  0.64290  0.95290  Biso   1.000  H
  C9       1.0000 0.28430  0.87270  0.60020  Biso   1.000  C
  C10      1.0000 0.71570  0.87270  0.89980  Biso   1.000  C
  C11      1.0000 0.78430  0.37270  0.60020  Biso   1.000  C
  C12      1.0000 0.21570  0.37270  0.89980  Biso   1.000  C
  C13      1.0000 0.71570  0.12730  0.39980  Biso   1.000  C
  C14      1.0000 0.28430  0.12730  0.10020  Biso   1.000  C
  C15      1.0000 0.21570  0.62730  0.39980  Biso   1.000  C
  C16      1.0000 0.78430  0.62730  0.10020  Biso   1.000  C
  H9       1.0000 0.34050  0.86800  0.62650  Biso   1.000  H
  H10      1.0000 0.65950  0.86800  0.87350  Biso   1.000  H
  H11      1.0000 0.84050  0.36800  0.62650  Biso   1.000  H
  H12      1.0000 0.15950  0.36800  0.87350  Biso   1.000  H
  H13      1.0000 0.65950  0.13200  0.37350  Biso   1.000  H
  H14      1.0000 0.34050  0.13200  0.12650  Biso   1.000  H
  H15      1.0000 0.15950  0.63200  0.37350  Biso   1.000  H
  H16      1.0000 0.84050  0.63200  0.12650  Biso   1.000  H
  C17      1.0000 0.24210  0.88560  0.66660  Biso   1.000  C
  C18      1.0000 0.75790  0.88560  0.83340  Biso   1.000  C
  C19      1.0000 0.74210  0.38560  0.66660  Biso   1.000  C
  C20      1.0000 0.25790  0.38560  0.83340  Biso   1.000  C
  C21      1.0000 0.75790  0.11440  0.33340  Biso   1.000  C
  C22      1.0000 0.24210  0.11440  0.16660  Biso   1.000  C
  C23      1.0000 0.25790  0.61440  0.33340  Biso   1.000  C
  C24      1.0000 0.74210  0.61440  0.16660  Biso   1.000  C
  C25      1.0000 0.16040  0.89280  0.62140  Biso   1.000  C
  C26      1.0000 0.83960  0.89280  0.87860  Biso   1.000  C
  C27      1.0000 0.66040  0.39280  0.62140  Biso   1.000  C
  C28      1.0000 0.33960  0.39280  0.87860  Biso   1.000  C
  C29      1.0000 0.83960  0.10720  0.37860  Biso   1.000  C
  C30      1.0000 0.16040  0.10720  0.12140  Biso   1.000  C
  C31      1.0000 0.33960  0.60720  0.37860  Biso   1.000  C
  C32      1.0000 0.66040  0.60720  0.12140  Biso   1.000  C
  H17      1.0000 0.12800  0.90170  0.66260  Biso   1.000  H
  H18      1.0000 0.87200  0.90170  0.83740  Biso   1.000  H
  H19      1.0000 0.62800  0.40170  0.66260  Biso   1.000  H
  H20      1.0000 0.37200  0.40170  0.83740  Biso   1.000  H
  H21      1.0000 0.87200  0.09830  0.33740  Biso   1.000  H
  H22      1.0000 0.12800  0.09830  0.16260  Biso   1.000  H
  H23      1.0000 0.37200  0.59830  0.33740  Biso   1.000  H
  H24      1.0000 0.62800  0.59830  0.16260  Biso   1.000  H
  C33      1.0000 0.12580  0.88700  0.51600  Biso   1.000  C
  C34      1.0000 0.87420  0.88700  0.98400  Biso   1.000  C
  C35      1.0000 0.62580  0.38700  0.51600  Biso   1.000  C
  C36      1.0000 0.37420  0.38700  0.98400  Biso   1.000  C
  C37      1.0000 0.87420  0.11300  0.48400  Biso   1.000  C
  C38      1.0000 0.12580  0.11300  0.01600  Biso   1.000  C
  C39      1.0000 0.37420  0.61300  0.48400  Biso   1.000  C
  C40      1.0000 0.62580  0.61300  0.01600  Biso   1.000  C
  H25      1.0000 0.06990  0.89340  0.48780  Biso   1.000  H
  H26      1.0000 0.93010  0.89340  0.01220  Biso   1.000  H
  H27      1.0000 0.56990  0.39340  0.48780  Biso   1.000  H
  H28      1.0000 0.43010  0.39340  0.01220  Biso   1.000  H
  H29      1.0000 0.93010  0.10660  0.51220  Biso   1.000  H
  H30      1.0000 0.06990  0.10660  0.98780  Biso   1.000  H
  H31      1.0000 0.43010  0.60660  0.51220  Biso   1.000  H
  H32      1.0000 0.56990  0.60660  0.98780  Biso   1.000  H
  C41      1.0000 0.28590  0.89110  0.78110  Biso   1.000  C
  C42      1.0000 0.71410  0.89110  0.71890  Biso   1.000  C
  C43      1.0000 0.78590  0.39110  0.78110  Biso   1.000  C
  C44      1.0000 0.21410  0.39110  0.71890  Biso   1.000  C
  C45      1.0000 0.71410  0.10890  0.21890  Biso   1.000  C
  C46      1.0000 0.28590  0.10890  0.28110  Biso   1.000  C
  C47      1.0000 0.21410  0.60890  0.21890  Biso   1.000  C
  C48      1.0000 0.78590  0.60890  0.28110  Biso   1.000  C
  H33      1.0000 0.31750  0.94770  0.79530  Biso   1.000  H
  H34      1.0000 0.68250  0.94770  0.70470  Biso   1.000  H
  H35      1.0000 0.81750  0.44770  0.79530  Biso   1.000  H
  H36      1.0000 0.18250  0.44770  0.70470  Biso   1.000  H
  H37      1.0000 0.68250  0.05230  0.20470  Biso   1.000  H
  H38      1.0000 0.31750  0.05230  0.29530  Biso   1.000  H
  H39      1.0000 0.18250  0.55230  0.20470  Biso   1.000  H
  H40      1.0000 0.81750  0.55230  0.29530  Biso   1.000  H
  H41      1.0000 0.32350  0.83980  0.80090  Biso   1.000  H
  H42      1.0000 0.67650  0.83980  0.69910  Biso   1.000  H
  H43      1.0000 0.82350  0.33980  0.80090  Biso   1.000  H
  H44      1.0000 0.17650  0.33980  0.69910  Biso   1.000  H
  H45      1.0000 0.67650  0.16020  0.19910  Biso   1.000  H
  H46      1.0000 0.32350  0.16020  0.30090  Biso   1.000  H
  H47      1.0000 0.17650  0.66020  0.19910  Biso   1.000  H
  H48      1.0000 0.82350  0.66020  0.30090  Biso   1.000  H
  C49      1.0000 0.23350  0.88960  0.84970  Biso   1.000  C
  C50      1.0000 0.76650  0.88960  0.65030  Biso   1.000  C
  C51      1.0000 0.73350  0.38960  0.84970  Biso   1.000  C
  C52      1.0000 0.26650  0.38960  0.65030  Biso   1.000  C
  C53      1.0000 0.76650  0.11040  0.15030  Biso   1.000  C
  C54      1.0000 0.23350  0.11040  0.34970  Biso   1.000  C
  C55      1.0000 0.26650  0.61040  0.15030  Biso   1.000  C
  C56      1.0000 0.73350  0.61040  0.34970  Biso   1.000  C
  H49      1.0000 0.20040  0.94490  0.83760  Biso   1.000  H
  H50      1.0000 0.79960  0.94490  0.66240  Biso   1.000  H
  H51      1.0000 0.70040  0.44490  0.83760  Biso   1.000  H
  H52      1.0000 0.29960  0.44490  0.66240  Biso   1.000  H
  H53      1.0000 0.79960  0.05510  0.16240  Biso   1.000  H
  H54      1.0000 0.20040  0.05510  0.33760  Biso   1.000  H
  H55      1.0000 0.29960  0.55510  0.16240  Biso   1.000  H
  H56      1.0000 0.70040  0.55510  0.33760  Biso   1.000  H
  H57      1.0000 0.19770  0.83640  0.83210  Biso   1.000  H
  H58      1.0000 0.80230  0.83640  0.66790  Biso   1.000  H
  H59      1.0000 0.69770  0.33640  0.83210  Biso   1.000  H
  H60      1.0000 0.30230  0.33640  0.66790  Biso   1.000  H
  H61      1.0000 0.80230  0.16360  0.16790  Biso   1.000  H
  H62      1.0000 0.19770  0.16360  0.33210  Biso   1.000  H
  H63      1.0000 0.30230  0.66360  0.16790  Biso   1.000  H
  H64      1.0000 0.69770  0.66360  0.33210  Biso   1.000  H
  C57      1.0000 0.28560  0.88470  0.96290  Biso   1.000  C
  C58      1.0000 0.71440  0.88470  0.53710  Biso   1.000  C
  C59      1.0000 0.78560  0.38470  0.96290  Biso   1.000  C
  C60      1.0000 0.21440  0.38470  0.53710  Biso   1.000  C
  C61      1.0000 0.71440  0.11530  0.03710  Biso   1.000  C
  C62      1.0000 0.28560  0.11530  0.46290  Biso   1.000  C
  C63      1.0000 0.21440  0.61530  0.03710  Biso   1.000  C
  C64      1.0000 0.78560  0.61530  0.46290  Biso   1.000  C
  H65      1.0000 0.32110  0.83150  0.97220  Biso   1.000  H
  H66      1.0000 0.67890  0.83150  0.52780  Biso   1.000  H
  H67      1.0000 0.82110  0.33150  0.97220  Biso   1.000  H
  H68      1.0000 0.17890  0.33150  0.52780  Biso   1.000  H
  H69      1.0000 0.67890  0.16850  0.02780  Biso   1.000  H
  H70      1.0000 0.32110  0.16850  0.47220  Biso   1.000  H
  H71      1.0000 0.17890  0.66850  0.02780  Biso   1.000  H
  H72      1.0000 0.82110  0.66850  0.47220  Biso   1.000  H
  H73      1.0000 0.31960  0.93940  0.97940  Biso   1.000  H
  H74      1.0000 0.68040  0.93940  0.52060  Biso   1.000  H
  H75      1.0000 0.81960  0.43940  0.97940  Biso   1.000  H
  H76      1.0000 0.18040  0.43940  0.52060  Biso   1.000  H
  H77      1.0000 0.68040  0.06060  0.02060  Biso   1.000  H
  H78      1.0000 0.31960  0.06060  0.47940  Biso   1.000  H
  H79      1.0000 0.18040  0.56060  0.02060  Biso   1.000  H
  H80      1.0000 0.81960  0.56060  0.47940  Biso   1.000  H
  C65      1.0000 0.01020  0.35650  0.15540  Biso   1.000  C
  C66      1.0000 0.98980  0.35650  0.34460  Biso   1.000  C
  C67      1.0000 0.51020  0.85650  0.15540  Biso   1.000  C
  C68      1.0000 0.48980  0.85650  0.34460  Biso   1.000  C
  C69      1.0000 0.98980  0.64350  0.84460  Biso   1.000  C
  C70      1.0000 0.01020  0.64350  0.65540  Biso   1.000  C
  C71      1.0000 0.48980  0.14350  0.84460  Biso   1.000  C
  C72      1.0000 0.51020  0.14350  0.65540  Biso   1.000  C
  C73      1.0000 0.00550  0.43910  0.20270  Biso   1.000  C
  C74      1.0000 0.99450  0.43910  0.29730  Biso   1.000  C
  C75      1.0000 0.50550  0.93910  0.20270  Biso   1.000  C
  C76      1.0000 0.49450  0.93910  0.29730  Biso   1.000  C
  C77      1.0000 0.99450  0.56090  0.79730  Biso   1.000  C
  C78      1.0000 0.00550  0.56090  0.70270  Biso   1.000  C
  C79      1.0000 0.49450  0.06090  0.79730  Biso   1.000  C
  C80      1.0000 0.50550  0.06090  0.70270  Biso   1.000  C
  H81      1.0000 0.00960  0.49480  0.17050  Biso   1.000  H
  H82      1.0000 0.99040  0.49480  0.32950  Biso   1.000  H
  H83      1.0000 0.50960  0.99480  0.17050  Biso   1.000  H
  H84      1.0000 0.49040  0.99480  0.32950  Biso   1.000  H
  H85      1.0000 0.99040  0.50520  0.82950  Biso   1.000  H
  H86      1.0000 0.00960  0.50520  0.67050  Biso   1.000  H
  H87      1.0000 0.49040  0.00520  0.82950  Biso   1.000  H
  H88      1.0000 0.50960  0.00520  0.67050  Biso   1.000  H
  C81      1.0000 0.00530  0.27450  0.20300  Biso   1.000  C
  C82      1.0000 0.99470  0.27450  0.29700  Biso   1.000  C
  C83      1.0000 0.50530  0.77450  0.20300  Biso   1.000  C
  C84      1.0000 0.49470  0.77450  0.29700  Biso   1.000  C
  C85      1.0000 0.99470  0.72550  0.79700  Biso   1.000  C
  C86      1.0000 0.00530  0.72550  0.70300  Biso   1.000  C
  C87      1.0000 0.49470  0.22550  0.79700  Biso   1.000  C
  C88      1.0000 0.50530  0.22550  0.70300  Biso   1.000  C
  H89      1.0000 0.00930  0.21880  0.17080  Biso   1.000  H
  H90      1.0000 0.99070  0.21880  0.32920  Biso   1.000  H
  H91      1.0000 0.50930  0.71880  0.17080  Biso   1.000  H
  H92      1.0000 0.49070  0.71880  0.32920  Biso   1.000  H
  H93      1.0000 0.99070  0.78120  0.82920  Biso   1.000  H
  H94      1.0000 0.00930  0.78120  0.67080  Biso   1.000  H
  H95      1.0000 0.49070  0.28120  0.82920  Biso   1.000  H
  H96      1.0000 0.50930  0.28120  0.67080  Biso   1.000  H
  C89      1.0000 0.24120  0.87760  0.04010  Biso   1.000  C
  C90      1.0000 0.75880  0.87760  0.45990  Biso   1.000  C
  C91      1.0000 0.74120  0.37760  0.04010  Biso   1.000  C
  C92      1.0000 0.25880  0.37760  0.45990  Biso   1.000  C
  C93      1.0000 0.75880  0.12240  0.95990  Biso   1.000  C
  C94      1.0000 0.24120  0.12240  0.54010  Biso   1.000  C
  C95      1.0000 0.25880  0.62240  0.95990  Biso   1.000  C
  C96      1.0000 0.74120  0.62240  0.54010  Biso   1.000  C
  C97      1.0000 0.15920  0.88170  0.01460  Biso   1.000  C
  C98      1.0000 0.84080  0.88170  0.48540  Biso   1.000  C
  C99      1.0000 0.65920  0.38170  0.01460  Biso   1.000  C
  C100     1.0000 0.34080  0.38170  0.48540  Biso   1.000  C
  C101     1.0000 0.84080  0.11830  0.98540  Biso   1.000  C
  C102     1.0000 0.15920  0.11830  0.51460  Biso   1.000  C
  C103     1.0000 0.34080  0.61830  0.98540  Biso   1.000  C
  C104     1.0000 0.65920  0.61830  0.51460  Biso   1.000  C
  H97      1.0000 0.12660  0.88860  0.94540  Biso   1.000  H
  H98      1.0000 0.87340  0.88860  0.55460  Biso   1.000  H
  H99      1.0000 0.62660  0.38860  0.94540  Biso   1.000  H
  H100     1.0000 0.37340  0.38860  0.55460  Biso   1.000  H
  H101     1.0000 0.87340  0.11140  0.05460  Biso   1.000  H
  H102     1.0000 0.12660  0.11140  0.44540  Biso   1.000  H
  H103     1.0000 0.37340  0.61140  0.05460  Biso   1.000  H
  H104     1.0000 0.62660  0.61140  0.44540  Biso   1.000  H
  C105     1.0000 0.28450  0.86660  0.14380  Biso   1.000  C
  C106     1.0000 0.71550  0.86660  0.35620  Biso   1.000  C
  C107     1.0000 0.78450  0.36660  0.14380  Biso   1.000  C
  C108     1.0000 0.21550  0.36660  0.35620  Biso   1.000  C
  C109     1.0000 0.71550  0.13340  0.85620  Biso   1.000  C
  C110     1.0000 0.28450  0.13340  0.64380  Biso   1.000  C
  C111     1.0000 0.21550  0.63340  0.85620  Biso   1.000  C
  C112     1.0000 0.78450  0.63340  0.64380  Biso   1.000  C
  H105     1.0000 0.34070  0.86330  0.16550  Biso   1.000  H
  H106     1.0000 0.65930  0.86330  0.33450  Biso   1.000  H
  H107     1.0000 0.84070  0.36330  0.16550  Biso   1.000  H
  H108     1.0000 0.15930  0.36330  0.33450  Biso   1.000  H
  H109     1.0000 0.65930  0.13670  0.83450  Biso   1.000  H
  H110     1.0000 0.34070  0.13670  0.66550  Biso   1.000  H
  H111     1.0000 0.15930  0.63670  0.83450  Biso   1.000  H
  H112     1.0000 0.84070  0.63670  0.66550  Biso   1.000  H
  C113     1.0000 0.12500  0.87550  0.09110  Biso   1.000  C
  C114     1.0000 0.87500  0.87550  0.40890  Biso   1.000  C
  C115     1.0000 0.62500  0.37550  0.09110  Biso   1.000  C
  C116     1.0000 0.37500  0.37550  0.40890  Biso   1.000  C
  C117     1.0000 0.87500  0.12450  0.90890  Biso   1.000  C
  C118     1.0000 0.12500  0.12450  0.59110  Biso   1.000  C
  C119     1.0000 0.37500  0.62450  0.90890  Biso   1.000  C
  C120     1.0000 0.62500  0.62450  0.59110  Biso   1.000  C
  H113     1.0000 0.06890  0.87870  0.07140  Biso   1.000  H
  H114     1.0000 0.93110  0.87870  0.42860  Biso   1.000  H
  H115     1.0000 0.56890  0.37870  0.07140  Biso   1.000  H
  H116     1.0000 0.43110  0.37870  0.42860  Biso   1.000  H
  H117     1.0000 0.93110  0.12130  0.92860  Biso   1.000  H
  H118     1.0000 0.06890  0.12130  0.57140  Biso   1.000  H
  H119     1.0000 0.43110  0.62130  0.92860  Biso   1.000  H
  H120     1.0000 0.56890  0.62130  0.57140  Biso   1.000  H
  N9       1.0000 0.16660  0.86530  0.19130  Biso   1.000  N
  N10      1.0000 0.83340  0.86530  0.30870  Biso   1.000  N
  N11      1.0000 0.66660  0.36530  0.19130  Biso   1.000  N
  N12      1.0000 0.33340  0.36530  0.30870  Biso   1.000  N
  N13      1.0000 0.83340  0.13470  0.80870  Biso   1.000  N
  N14      1.0000 0.16660  0.13470  0.69130  Biso   1.000  N
  N15      1.0000 0.33340  0.63470  0.80870  Biso   1.000  N
  N16      1.0000 0.66660  0.63470  0.69130  Biso   1.000  N
  C121     1.0000 0.24600  0.86060  0.21490  Biso   1.000  C
  C122     1.0000 0.75400  0.86060  0.28510  Biso   1.000  C
  C123     1.0000 0.74600  0.36060  0.21490  Biso   1.000  C
  C124     1.0000 0.25400  0.36060  0.28510  Biso   1.000  C
  C125     1.0000 0.75400  0.13940  0.78510  Biso   1.000  C
  C126     1.0000 0.24600  0.13940  0.71490  Biso   1.000  C
  C127     1.0000 0.25400  0.63940  0.78510  Biso   1.000  C
  C128     1.0000 0.74600  0.63940  0.71490  Biso   1.000  C
  H121     1.0000 0.27730  0.85260  0.28450  Biso   1.000  H
  H122     1.0000 0.72270  0.85260  0.21550  Biso   1.000  H
  H123     1.0000 0.77730  0.35260  0.28450  Biso   1.000  H
  H124     1.0000 0.22270  0.35260  0.21550  Biso   1.000  H
  H125     1.0000 0.72270  0.14740  0.71550  Biso   1.000  H
  H126     1.0000 0.27730  0.14740  0.78450  Biso   1.000  H
  H127     1.0000 0.22270  0.64740  0.71550  Biso   1.000  H
  H128     1.0000 0.77730  0.64740  0.78450  Biso   1.000  H
