data_image0
_cell_length_a       12.4823
_cell_length_b       11.8834
_cell_length_c       8.7986
_cell_angle_alpha    90
_cell_angle_beta     129.467
_cell_angle_gamma    90

_symmetry_space_group_name_H-M    "P 1"
_symmetry_int_tables_number       1

loop_
  _symmetry_equiv_pos_as_xyz
  'x, y, z'

loop_
  _atom_site_label
  _atom_site_occupancy
  _atom_site_fract_x
  _atom_site_fract_y
  _atom_site_fract_z
  _atom_site_thermal_displace_type
  _atom_site_B_iso_or_equiv
  _atom_site_type_symbol
  Cu1      1.0000 0.81651  0.90261  0.58978  Biso   1.000  Cu
  Cu2      1.0000 0.18349  0.90261  0.91022  Biso   1.000  Cu
  Cu3      1.0000 0.31651  0.40261  0.58978  Biso   1.000  Cu
  Cu4      1.0000 0.68349  0.40261  0.91022  Biso   1.000  Cu
  Cu5      1.0000 0.18349  0.09739  0.41022  Biso   1.000  Cu
  Cu6      1.0000 0.81651  0.09739  0.08978  Biso   1.000  Cu
  Cu7      1.0000 0.68349  0.59739  0.41022  Biso   1.000  Cu
  Cu8      1.0000 0.31651  0.59739  0.08978  Biso   1.000  Cu
  Cu9      1.0000 0.50000  0.44509  0.25000  Biso   1.000  Cu
  Cu10     1.0000 0.00000  0.94509  0.25000  Biso   1.000  Cu
  Cu11     1.0000 0.50000  0.55491  0.75000  Biso   1.000  Cu
  Cu12     1.0000 0.00000  0.05491  0.75000  Biso   1.000  Cu
  N1       1.0000 0.61320  0.85232  0.37140  Biso   1.000  N
  N2       1.0000 0.38680  0.85232  0.12860  Biso   1.000  N
  N3       1.0000 0.11320  0.35232  0.37140  Biso   1.000  N
  N4       1.0000 0.88680  0.35232  0.12860  Biso   1.000  N
  N5       1.0000 0.38680  0.14768  0.62860  Biso   1.000  N
  N6       1.0000 0.61320  0.14768  0.87140  Biso   1.000  N
  N7       1.0000 0.88680  0.64768  0.62860  Biso   1.000  N
  N8       1.0000 0.11320  0.64768  0.87140  Biso   1.000  N
  N9       1.0000 0.56750  0.74555  0.32160  Biso   1.000  N
  N10      1.0000 0.43250  0.74555  0.17840  Biso   1.000  N
  N11      1.0000 0.06750  0.24555  0.32160  Biso   1.000  N
  N12      1.0000 0.93250  0.24555  0.17840  Biso   1.000  N
  N13      1.0000 0.43250  0.25445  0.67840  Biso   1.000  N
  N14      1.0000 0.56750  0.25445  0.82160  Biso   1.000  N
  N15      1.0000 0.93250  0.75445  0.67840  Biso   1.000  N
  N16      1.0000 0.06750  0.75445  0.82160  Biso   1.000  N
  N17      1.0000 0.50000  0.27530  0.25000  Biso   1.000  N
  N18      1.0000 0.00000  0.77530  0.25000  Biso   1.000  N
  N19      1.0000 0.50000  0.72470  0.75000  Biso   1.000  N
  N20      1.0000 0.00000  0.22470  0.75000  Biso   1.000  N
  N21      1.0000 0.32650  0.44950  0.81720  Biso   1.000  N
  N22      1.0000 0.67350  0.44950  0.68280  Biso   1.000  N
  N23      1.0000 0.82650  0.94950  0.81720  Biso   1.000  N
  N24      1.0000 0.17350  0.94950  0.68280  Biso   1.000  N
  N25      1.0000 0.67350  0.55050  0.18280  Biso   1.000  N
  N26      1.0000 0.32650  0.55050  0.31720  Biso   1.000  N
  N27      1.0000 0.17350  0.05050  0.18280  Biso   1.000  N
  N28      1.0000 0.82650  0.05050  0.31720  Biso   1.000  N
  C1       1.0000 0.42960  0.21580  0.08140  Biso   1.000  C
  C2       1.0000 0.57040  0.21580  0.41860  Biso   1.000  C
  C3       1.0000 0.92960  0.71580  0.08140  Biso   1.000  C
  C4       1.0000 0.07040  0.71580  0.41860  Biso   1.000  C
  C5       1.0000 0.57040  0.78420  0.91860  Biso   1.000  C
  C6       1.0000 0.42960  0.78420  0.58140  Biso   1.000  C
  C7       1.0000 0.07040  0.28420  0.91860  Biso   1.000  C
  C8       1.0000 0.92960  0.28420  0.58140  Biso   1.000  C
  H1       1.0000 0.38050  0.25510  0.96320  Biso   1.000  H
  H2       1.0000 0.61950  0.25510  0.53680  Biso   1.000  H
  H3       1.0000 0.88050  0.75510  0.96320  Biso   1.000  H
  H4       1.0000 0.11950  0.75510  0.53680  Biso   1.000  H
  H5       1.0000 0.61950  0.74490  0.03680  Biso   1.000  H
  H6       1.0000 0.38050  0.74490  0.46320  Biso   1.000  H
  H7       1.0000 0.11950  0.24490  0.03680  Biso   1.000  H
  H8       1.0000 0.88050  0.24490  0.46320  Biso   1.000  H
  C9       1.0000 0.42660  0.09980  0.07490  Biso   1.000  C
  C10      1.0000 0.57340  0.09980  0.42510  Biso   1.000  C
  C11      1.0000 0.92660  0.59980  0.07490  Biso   1.000  C
  C12      1.0000 0.07340  0.59980  0.42510  Biso   1.000  C
  C13      1.0000 0.57340  0.90020  0.92510  Biso   1.000  C
  C14      1.0000 0.42660  0.90020  0.57490  Biso   1.000  C
  C15      1.0000 0.07340  0.40020  0.92510  Biso   1.000  C
  C16      1.0000 0.92660  0.40020  0.57490  Biso   1.000  C
  H9       1.0000 0.37610  0.06230  0.95490  Biso   1.000  H
  H10      1.0000 0.62390  0.06230  0.54510  Biso   1.000  H
  H11      1.0000 0.87610  0.56230  0.95490  Biso   1.000  H
  H12      1.0000 0.12390  0.56230  0.54510  Biso   1.000  H
  H13      1.0000 0.62390  0.93770  0.04510  Biso   1.000  H
  H14      1.0000 0.37610  0.93770  0.45490  Biso   1.000  H
  H15      1.0000 0.12390  0.43770  0.04510  Biso   1.000  H
  H16      1.0000 0.87610  0.43770  0.45490  Biso   1.000  H
  C17      1.0000 0.50000  0.03970  0.25000  Biso   1.000  C
  C18      1.0000 0.00000  0.53970  0.25000  Biso   1.000  C
  C19      1.0000 0.50000  0.96030  0.75000  Biso   1.000  C
  C20      1.0000 0.00000  0.46030  0.75000  Biso   1.000  C
  C21      1.0000 0.50000  0.91580  0.25000  Biso   1.000  C
  C22      1.0000 0.00000  0.41580  0.25000  Biso   1.000  C
  C23      1.0000 0.50000  0.08420  0.75000  Biso   1.000  C
  C24      1.0000 0.00000  0.58420  0.75000  Biso   1.000  C
  C25      1.0000 0.35010  0.48680  0.95640  Biso   1.000  C
  C26      1.0000 0.64990  0.48680  0.54360  Biso   1.000  C
  C27      1.0000 0.85010  0.98680  0.95640  Biso   1.000  C
  C28      1.0000 0.14990  0.98680  0.54360  Biso   1.000  C
  C29      1.0000 0.64990  0.51320  0.04360  Biso   1.000  C
  C30      1.0000 0.35010  0.51320  0.45640  Biso   1.000  C
  C31      1.0000 0.14990  0.01320  0.04360  Biso   1.000  C
  C32      1.0000 0.85010  0.01320  0.45640  Biso   1.000  C
