data_image0
_cell_length_a       9.943
_cell_length_b       6.4899
_cell_length_c       18.33
_cell_angle_alpha    90
_cell_angle_beta     90
_cell_angle_gamma    90

_symmetry_space_group_name_H-M    "P 1"
_symmetry_int_tables_number       1

loop_
  _symmetry_equiv_pos_as_xyz
  'x, y, z'

loop_
  _atom_site_label
  _atom_site_occupancy
  _atom_site_fract_x
  _atom_site_fract_y
  _atom_site_fract_z
  _atom_site_thermal_displace_type
  _atom_site_B_iso_or_equiv
  _atom_site_type_symbol
  Cu1      1.0000 0.30748  0.28513  0.44817  Biso   1.000  Cu
  Cu2      1.0000 0.19252  0.71487  0.94817  Biso   1.000  Cu
  Cu3      1.0000 0.69252  0.78513  0.05183  Biso   1.000  Cu
  Cu4      1.0000 0.80748  0.21487  0.55183  Biso   1.000  Cu
  Cu5      1.0000 0.69252  0.71487  0.55183  Biso   1.000  Cu
  Cu6      1.0000 0.80748  0.28513  0.05183  Biso   1.000  Cu
  Cu7      1.0000 0.30748  0.21487  0.94817  Biso   1.000  Cu
  Cu8      1.0000 0.19252  0.78513  0.44817  Biso   1.000  Cu
  Cl1      1.0000 0.14775  0.48081  0.39318  Biso   1.000  Cl
  Cl2      1.0000 0.35225  0.51919  0.89318  Biso   1.000  Cl
  Cl3      1.0000 0.85225  0.98081  0.10682  Biso   1.000  Cl
  Cl4      1.0000 0.64775  0.01919  0.60682  Biso   1.000  Cl
  Cl5      1.0000 0.85225  0.51919  0.60682  Biso   1.000  Cl
  Cl6      1.0000 0.64775  0.48081  0.10682  Biso   1.000  Cl
  Cl7      1.0000 0.14775  0.01919  0.89318  Biso   1.000  Cl
  Cl8      1.0000 0.35225  0.98081  0.39318  Biso   1.000  Cl
  N1       1.0000 0.43710  0.40650  0.65208  Biso   1.000  N
  N2       1.0000 0.06290  0.59350  0.15208  Biso   1.000  N
  N3       1.0000 0.56290  0.90650  0.84792  Biso   1.000  N
  N4       1.0000 0.93710  0.09350  0.34792  Biso   1.000  N
  N5       1.0000 0.56290  0.59350  0.34792  Biso   1.000  N
  N6       1.0000 0.93710  0.40650  0.84792  Biso   1.000  N
  N7       1.0000 0.43710  0.09350  0.15208  Biso   1.000  N
  N8       1.0000 0.06290  0.90650  0.65208  Biso   1.000  N
  N9       1.0000 0.33470  0.29250  0.67683  Biso   1.000  N
  N10      1.0000 0.16530  0.70750  0.17683  Biso   1.000  N
  N11      1.0000 0.66530  0.79250  0.82317  Biso   1.000  N
  N12      1.0000 0.83470  0.20750  0.32317  Biso   1.000  N
  N13      1.0000 0.66530  0.70750  0.32317  Biso   1.000  N
  N14      1.0000 0.83470  0.29250  0.82317  Biso   1.000  N
  N15      1.0000 0.33470  0.20750  0.17683  Biso   1.000  N
  N16      1.0000 0.16530  0.79250  0.67683  Biso   1.000  N
  N17      1.0000 0.26850  0.22720  0.61994  Biso   1.000  N
  N18      1.0000 0.23150  0.77280  0.11994  Biso   1.000  N
  N19      1.0000 0.73150  0.72720  0.88006  Biso   1.000  N
  N20      1.0000 0.76850  0.27280  0.38006  Biso   1.000  N
  N21      1.0000 0.73150  0.77280  0.38006  Biso   1.000  N
  N22      1.0000 0.76850  0.22720  0.88006  Biso   1.000  N
  N23      1.0000 0.26850  0.27280  0.11994  Biso   1.000  N
  N24      1.0000 0.23150  0.72720  0.61994  Biso   1.000  N
  N25      1.0000 0.32610  0.29690  0.55808  Biso   1.000  N
  N26      1.0000 0.17390  0.70310  0.05808  Biso   1.000  N
  N27      1.0000 0.67390  0.79690  0.94192  Biso   1.000  N
  N28      1.0000 0.82610  0.20310  0.44192  Biso   1.000  N
  N29      1.0000 0.67390  0.70310  0.44192  Biso   1.000  N
  N30      1.0000 0.82610  0.29690  0.94192  Biso   1.000  N
  N31      1.0000 0.32610  0.20310  0.05808  Biso   1.000  N
  N32      1.0000 0.17390  0.79690  0.55808  Biso   1.000  N
  C1       1.0000 0.43080  0.40800  0.57934  Biso   1.000  C
  C2       1.0000 0.06920  0.59200  0.07934  Biso   1.000  C
  C3       1.0000 0.56920  0.90800  0.92066  Biso   1.000  C
  C4       1.0000 0.93080  0.09200  0.42066  Biso   1.000  C
  C5       1.0000 0.56920  0.59200  0.42066  Biso   1.000  C
  C6       1.0000 0.93080  0.40800  0.92066  Biso   1.000  C
  C7       1.0000 0.43080  0.09200  0.07934  Biso   1.000  C
  C8       1.0000 0.06920  0.90800  0.57934  Biso   1.000  C
  C9       1.0000 0.47160  0.49030  0.29814  Biso   1.000  C
  C10      1.0000 0.02840  0.50970  0.79814  Biso   1.000  C
  C11      1.0000 0.52840  0.99030  0.20186  Biso   1.000  C
  C12      1.0000 0.97160  0.00970  0.70186  Biso   1.000  C
  C13      1.0000 0.52840  0.50970  0.70186  Biso   1.000  C
  C14      1.0000 0.97160  0.49030  0.20186  Biso   1.000  C
  C15      1.0000 0.47160  0.00970  0.79814  Biso   1.000  C
  C16      1.0000 0.02840  0.99030  0.29814  Biso   1.000  C
  H1       1.0000 0.45570  0.35220  0.31480  Biso   1.000  H
  H2       1.0000 0.04430  0.64780  0.81480  Biso   1.000  H
  H3       1.0000 0.54430  0.85220  0.18520  Biso   1.000  H
  H4       1.0000 0.95570  0.14780  0.68520  Biso   1.000  H
  H5       1.0000 0.54430  0.64780  0.68520  Biso   1.000  H
  H6       1.0000 0.95570  0.35220  0.18520  Biso   1.000  H
  H7       1.0000 0.45570  0.14780  0.81480  Biso   1.000  H
  H8       1.0000 0.04430  0.85220  0.31480  Biso   1.000  H
  H9       1.0000 0.51070  0.48650  0.25030  Biso   1.000  H
  H10      1.0000 0.98930  0.51350  0.75030  Biso   1.000  H
  H11      1.0000 0.48930  0.98650  0.24970  Biso   1.000  H
  H12      1.0000 0.01070  0.01350  0.74970  Biso   1.000  H
  H13      1.0000 0.48930  0.51350  0.74970  Biso   1.000  H
  H14      1.0000 0.01070  0.48650  0.24970  Biso   1.000  H
  H15      1.0000 0.51070  0.01350  0.75030  Biso   1.000  H
  H16      1.0000 0.98930  0.98650  0.25030  Biso   1.000  H
  H17      1.0000 0.38790  0.56400  0.29640  Biso   1.000  H
  H18      1.0000 0.11210  0.43600  0.79640  Biso   1.000  H
  H19      1.0000 0.61210  0.06400  0.20360  Biso   1.000  H
  H20      1.0000 0.88790  0.93600  0.70360  Biso   1.000  H
  H21      1.0000 0.61210  0.43600  0.70360  Biso   1.000  H
  H22      1.0000 0.88790  0.56400  0.20360  Biso   1.000  H
  H23      1.0000 0.38790  0.93600  0.79640  Biso   1.000  H
  H24      1.0000 0.11210  0.06400  0.29640  Biso   1.000  H
  N33      1.0000 0.51580  0.51590  0.53384  Biso   1.000  N
  N34      1.0000 0.98420  0.48410  0.03384  Biso   1.000  N
  N35      1.0000 0.48420  0.01590  0.96616  Biso   1.000  N
  N36      1.0000 0.01580  0.98410  0.46616  Biso   1.000  N
  N37      1.0000 0.48420  0.48410  0.46616  Biso   1.000  N
  N38      1.0000 0.01580  0.51590  0.96616  Biso   1.000  N
  N39      1.0000 0.51580  0.98410  0.03384  Biso   1.000  N
  N40      1.0000 0.98420  0.01590  0.53384  Biso   1.000  N
