data_image0
_cell_length_a       8.528
_cell_length_b       6.2456
_cell_length_c       10.059
_cell_angle_alpha    90
_cell_angle_beta     105.462
_cell_angle_gamma    90

_symmetry_space_group_name_H-M    "P 1"
_symmetry_int_tables_number       1

loop_
  _symmetry_equiv_pos_as_xyz
  'x, y, z'

loop_
  _atom_site_label
  _atom_site_occupancy
  _atom_site_fract_x
  _atom_site_fract_y
  _atom_site_fract_z
  _atom_site_thermal_displace_type
  _atom_site_B_iso_or_equiv
  _atom_site_type_symbol
  Cu1      1.0000 0.00000  0.77784  0.25000  Biso   1.000  Cu
  Cu2      1.0000 0.00000  0.22216  0.75000  Biso   1.000  Cu
  Cl1      1.0000 0.00000  0.43280  0.25000  Biso   1.000  Cl
  Cl2      1.0000 0.00000  0.56720  0.75000  Biso   1.000  Cl
  N1       1.0000 0.70460  0.78250  0.51220  Biso   1.000  N
  N2       1.0000 0.29540  0.78250  0.98780  Biso   1.000  N
  N3       1.0000 0.29540  0.21750  0.48780  Biso   1.000  N
  N4       1.0000 0.70460  0.21750  0.01220  Biso   1.000  N
  N5       1.0000 0.61290  0.81470  0.59960  Biso   1.000  N
  N6       1.0000 0.38710  0.81470  0.90040  Biso   1.000  N
  N7       1.0000 0.38710  0.18530  0.40040  Biso   1.000  N
  N8       1.0000 0.61290  0.18530  0.09960  Biso   1.000  N
  N9       1.0000 0.67720  0.97170  0.68070  Biso   1.000  N
  N10      1.0000 0.32280  0.97170  0.81930  Biso   1.000  N
  N11      1.0000 0.32280  0.02830  0.31930  Biso   1.000  N
  N12      1.0000 0.67720  0.02830  0.18070  Biso   1.000  N
  N13      1.0000 0.81160  0.04350  0.64680  Biso   1.000  N
  N14      1.0000 0.18840  0.04350  0.85320  Biso   1.000  N
  N15      1.0000 0.18840  0.95650  0.35320  Biso   1.000  N
  N16      1.0000 0.81160  0.95650  0.14680  Biso   1.000  N
  C1       1.0000 0.82610  0.92340  0.54300  Biso   1.000  C
  C2       1.0000 0.17390  0.92340  0.95700  Biso   1.000  C
  C3       1.0000 0.17390  0.07660  0.45700  Biso   1.000  C
  C4       1.0000 0.82610  0.07660  0.04300  Biso   1.000  C
  C5       1.0000 0.67650  0.60400  0.41550  Biso   1.000  C
  C6       1.0000 0.32350  0.60400  0.08450  Biso   1.000  C
  C7       1.0000 0.32350  0.39600  0.58450  Biso   1.000  C
  C8       1.0000 0.67650  0.39600  0.91550  Biso   1.000  C
  H1       1.0000 0.70080  0.64760  0.33170  Biso   1.000  H
  H2       1.0000 0.29920  0.64760  0.16830  Biso   1.000  H
  H3       1.0000 0.29920  0.35240  0.66830  Biso   1.000  H
  H4       1.0000 0.70080  0.35240  0.83170  Biso   1.000  H
  H5       1.0000 0.56470  0.56030  0.39580  Biso   1.000  H
  H6       1.0000 0.43530  0.56030  0.10420  Biso   1.000  H
  H7       1.0000 0.43530  0.43970  0.60420  Biso   1.000  H
  H8       1.0000 0.56470  0.43970  0.89580  Biso   1.000  H
  H9       1.0000 0.74550  0.48630  0.45550  Biso   1.000  H
  H10      1.0000 0.25450  0.48630  0.04450  Biso   1.000  H
  H11      1.0000 0.25450  0.51370  0.54450  Biso   1.000  H
  H12      1.0000 0.74550  0.51370  0.95550  Biso   1.000  H
  N17      1.0000 0.94680  0.92980  0.47406  Biso   1.000  N
  N18      1.0000 0.05320  0.92980  0.02594  Biso   1.000  N
  N19      1.0000 0.05320  0.07020  0.52594  Biso   1.000  N
  N20      1.0000 0.94680  0.07020  0.97406  Biso   1.000  N
