data_image0
_cell_length_a       7.921
_cell_length_b       13.266
_cell_length_c       10.498
_cell_angle_alpha    90
_cell_angle_beta     107.79
_cell_angle_gamma    90

_symmetry_space_group_name_H-M    "P 1"
_symmetry_int_tables_number       1

loop_
  _symmetry_equiv_pos_as_xyz
  'x, y, z'

loop_
  _atom_site_label
  _atom_site_occupancy
  _atom_site_fract_x
  _atom_site_fract_y
  _atom_site_fract_z
  _atom_site_thermal_displace_type
  _atom_site_B_iso_or_equiv
  _atom_site_type_symbol
  I1       1.0000 0.71948  0.00000  0.38773  Biso   1.000  I
  I2       1.0000 0.28052  0.00000  0.61227  Biso   1.000  I
  I3       1.0000 0.21948  0.50000  0.38773  Biso   1.000  I
  I4       1.0000 0.78052  0.50000  0.61227  Biso   1.000  I
  Cu1      1.0000 0.04190  0.00000  0.37711  Biso   1.000  Cu
  Cu2      1.0000 0.95810  0.00000  0.62289  Biso   1.000  Cu
  Cu3      1.0000 0.54190  0.50000  0.37711  Biso   1.000  Cu
  Cu4      1.0000 0.45810  0.50000  0.62289  Biso   1.000  Cu
  S1       1.0000 0.10140  0.12573  0.23430  Biso   1.000  S
  S2       1.0000 0.89860  0.12573  0.76570  Biso   1.000  S
  S3       1.0000 0.60140  0.62573  0.23430  Biso   1.000  S
  S4       1.0000 0.39860  0.62573  0.76570  Biso   1.000  S
  S5       1.0000 0.89860  0.87427  0.76570  Biso   1.000  S
  S6       1.0000 0.10140  0.87427  0.23430  Biso   1.000  S
  S7       1.0000 0.39860  0.37427  0.76570  Biso   1.000  S
  S8       1.0000 0.60140  0.37427  0.23430  Biso   1.000  S
  S9       1.0000 0.32300  0.11089  0.04840  Biso   1.000  S
  S10      1.0000 0.67700  0.11089  0.95160  Biso   1.000  S
  S11      1.0000 0.82300  0.61089  0.04840  Biso   1.000  S
  S12      1.0000 0.17700  0.61089  0.95160  Biso   1.000  S
  S13      1.0000 0.67700  0.88911  0.95160  Biso   1.000  S
  S14      1.0000 0.32300  0.88911  0.04840  Biso   1.000  S
  S15      1.0000 0.17700  0.38911  0.95160  Biso   1.000  S
  S16      1.0000 0.82300  0.38911  0.04840  Biso   1.000  S
  C1       1.0000 0.42790  0.00000  0.02000  Biso   1.000  C
  C2       1.0000 0.57210  0.00000  0.98000  Biso   1.000  C
  C3       1.0000 0.92790  0.50000  0.02000  Biso   1.000  C
  C4       1.0000 0.07210  0.50000  0.98000  Biso   1.000  C
  C5       1.0000 0.21150  0.05040  0.14810  Biso   1.000  C
  C6       1.0000 0.78850  0.05040  0.85190  Biso   1.000  C
  C7       1.0000 0.71150  0.55040  0.14810  Biso   1.000  C
  C8       1.0000 0.28850  0.55040  0.85190  Biso   1.000  C
  C9       1.0000 0.78850  0.94960  0.85190  Biso   1.000  C
  C10      1.0000 0.21150  0.94960  0.14810  Biso   1.000  C
  C11      1.0000 0.28850  0.44960  0.85190  Biso   1.000  C
  C12      1.0000 0.71150  0.44960  0.14810  Biso   1.000  C
  C13      1.0000 0.27980  0.20520  0.32830  Biso   1.000  C
  C14      1.0000 0.72020  0.20520  0.67170  Biso   1.000  C
  C15      1.0000 0.77980  0.70520  0.32830  Biso   1.000  C
  C16      1.0000 0.22020  0.70520  0.67170  Biso   1.000  C
  C17      1.0000 0.72020  0.79480  0.67170  Biso   1.000  C
  C18      1.0000 0.27980  0.79480  0.32830  Biso   1.000  C
  C19      1.0000 0.22020  0.29480  0.67170  Biso   1.000  C
  C20      1.0000 0.77980  0.29480  0.32830  Biso   1.000  C
  H1       1.0000 0.37380  0.16450  0.38800  Biso   1.000  H
  H2       1.0000 0.62620  0.16450  0.61200  Biso   1.000  H
  H3       1.0000 0.87380  0.66450  0.38800  Biso   1.000  H
  H4       1.0000 0.12620  0.66450  0.61200  Biso   1.000  H
  H5       1.0000 0.62620  0.83550  0.61200  Biso   1.000  H
  H6       1.0000 0.37380  0.83550  0.38800  Biso   1.000  H
  H7       1.0000 0.12620  0.33550  0.61200  Biso   1.000  H
  H8       1.0000 0.87380  0.33550  0.38800  Biso   1.000  H
  H9       1.0000 0.33040  0.24230  0.27220  Biso   1.000  H
  H10      1.0000 0.66960  0.24230  0.72780  Biso   1.000  H
  H11      1.0000 0.83040  0.74230  0.27220  Biso   1.000  H
  H12      1.0000 0.16960  0.74230  0.72780  Biso   1.000  H
  H13      1.0000 0.66960  0.75770  0.72780  Biso   1.000  H
  H14      1.0000 0.33040  0.75770  0.27220  Biso   1.000  H
  H15      1.0000 0.16960  0.25770  0.72780  Biso   1.000  H
  H16      1.0000 0.83040  0.25770  0.27220  Biso   1.000  H
  H17      1.0000 0.24070  0.25110  0.38410  Biso   1.000  H
  H18      1.0000 0.75930  0.25110  0.61590  Biso   1.000  H
  H19      1.0000 0.74070  0.75110  0.38410  Biso   1.000  H
  H20      1.0000 0.25930  0.75110  0.61590  Biso   1.000  H
  H21      1.0000 0.75930  0.74890  0.61590  Biso   1.000  H
  H22      1.0000 0.24070  0.74890  0.38410  Biso   1.000  H
  H23      1.0000 0.25930  0.24890  0.61590  Biso   1.000  H
  H24      1.0000 0.74070  0.24890  0.38410  Biso   1.000  H
