data_image0
_cell_length_a       7.928
_cell_length_b       13.272
_cell_length_c       10.523
_cell_angle_alpha    90
_cell_angle_beta     107.82
_cell_angle_gamma    90

_symmetry_space_group_name_H-M    "P 1"
_symmetry_int_tables_number       1

loop_
  _symmetry_equiv_pos_as_xyz
  'x, y, z'

loop_
  _atom_site_label
  _atom_site_occupancy
  _atom_site_fract_x
  _atom_site_fract_y
  _atom_site_fract_z
  _atom_site_thermal_displace_type
  _atom_site_B_iso_or_equiv
  _atom_site_type_symbol
  I1       1.0000 0.21950  0.00000  0.38780  Biso   1.000  I
  I2       1.0000 0.71950  0.50000  0.38780  Biso   1.000  I
  I3       1.0000 0.78050  0.00000  0.61220  Biso   1.000  I
  I4       1.0000 0.28050  0.50000  0.61220  Biso   1.000  I
  Cu1      1.0000 0.45820  0.00000  0.62300  Biso   1.000  Cu
  Cu2      1.0000 0.95820  0.50000  0.62300  Biso   1.000  Cu
  Cu3      1.0000 0.54180  0.00000  0.37700  Biso   1.000  Cu
  Cu4      1.0000 0.04180  0.50000  0.37700  Biso   1.000  Cu
  S1       1.0000 0.17670  0.11070  0.95160  Biso   1.000  S
  S2       1.0000 0.67670  0.61070  0.95160  Biso   1.000  S
  S3       1.0000 0.82330  0.11070  0.04840  Biso   1.000  S
  S4       1.0000 0.32330  0.61070  0.04840  Biso   1.000  S
  S5       1.0000 0.82330  0.88930  0.04840  Biso   1.000  S
  S6       1.0000 0.32330  0.38930  0.04840  Biso   1.000  S
  S7       1.0000 0.17670  0.88930  0.95160  Biso   1.000  S
  S8       1.0000 0.67670  0.38930  0.95160  Biso   1.000  S
  S9       1.0000 0.39840  0.12570  0.76560  Biso   1.000  S
  S10      1.0000 0.89840  0.62570  0.76560  Biso   1.000  S
  S11      1.0000 0.60160  0.12570  0.23440  Biso   1.000  S
  S12      1.0000 0.10160  0.62570  0.23440  Biso   1.000  S
  S13      1.0000 0.60160  0.87430  0.23440  Biso   1.000  S
  S14      1.0000 0.10160  0.37430  0.23440  Biso   1.000  S
  S15      1.0000 0.39840  0.87430  0.76560  Biso   1.000  S
  S16      1.0000 0.89840  0.37430  0.76560  Biso   1.000  S
  C1       1.0000 0.07390  0.00000  0.98080  Biso   1.000  C
  C2       1.0000 0.57390  0.50000  0.98080  Biso   1.000  C
  C3       1.0000 0.92610  0.00000  0.01920  Biso   1.000  C
  C4       1.0000 0.42610  0.50000  0.01920  Biso   1.000  C
  C5       1.0000 0.28870  0.05060  0.85290  Biso   1.000  C
  C6       1.0000 0.78870  0.55060  0.85290  Biso   1.000  C
  C7       1.0000 0.71130  0.05060  0.14710  Biso   1.000  C
  C8       1.0000 0.21130  0.55060  0.14710  Biso   1.000  C
  C9       1.0000 0.71130  0.94940  0.14710  Biso   1.000  C
  C10      1.0000 0.21130  0.44940  0.14710  Biso   1.000  C
  C11      1.0000 0.28870  0.94940  0.85290  Biso   1.000  C
  C12      1.0000 0.78870  0.44940  0.85290  Biso   1.000  C
  C13      1.0000 0.22010  0.20380  0.66920  Biso   1.000  C
  C14      1.0000 0.72010  0.70380  0.66920  Biso   1.000  C
  C15      1.0000 0.77990  0.20380  0.33080  Biso   1.000  C
  C16      1.0000 0.27990  0.70380  0.33080  Biso   1.000  C
  C17      1.0000 0.77990  0.79620  0.33080  Biso   1.000  C
  C18      1.0000 0.27990  0.29620  0.33080  Biso   1.000  C
  C19      1.0000 0.22010  0.79620  0.66920  Biso   1.000  C
  C20      1.0000 0.72010  0.29620  0.66920  Biso   1.000  C
  H1       1.0000 0.26720  0.24821  0.61645  Biso   1.000  H
  H2       1.0000 0.76720  0.74821  0.61645  Biso   1.000  H
  H3       1.0000 0.73280  0.24821  0.38355  Biso   1.000  H
  H4       1.0000 0.23280  0.74821  0.38355  Biso   1.000  H
  H5       1.0000 0.73280  0.75179  0.38355  Biso   1.000  H
  H6       1.0000 0.23280  0.25179  0.38355  Biso   1.000  H
  H7       1.0000 0.26720  0.75179  0.61645  Biso   1.000  H
  H8       1.0000 0.76720  0.25179  0.61645  Biso   1.000  H
  H9       1.0000 0.19811  0.24103  0.74073  Biso   1.000  H
  H10      1.0000 0.69811  0.74103  0.74073  Biso   1.000  H
  H11      1.0000 0.80189  0.24103  0.25927  Biso   1.000  H
  H12      1.0000 0.30189  0.74103  0.25927  Biso   1.000  H
  H13      1.0000 0.80189  0.75897  0.25927  Biso   1.000  H
  H14      1.0000 0.30189  0.25897  0.25927  Biso   1.000  H
  H15      1.0000 0.19811  0.75897  0.74073  Biso   1.000  H
  H16      1.0000 0.69811  0.25897  0.74073  Biso   1.000  H
  H17      1.0000 0.11115  0.17495  0.61410  Biso   1.000  H
  H18      1.0000 0.61115  0.67495  0.61410  Biso   1.000  H
  H19      1.0000 0.88885  0.17495  0.38590  Biso   1.000  H
  H20      1.0000 0.38885  0.67495  0.38590  Biso   1.000  H
  H21      1.0000 0.88885  0.82505  0.38590  Biso   1.000  H
  H22      1.0000 0.38885  0.32505  0.38590  Biso   1.000  H
  H23      1.0000 0.11115  0.82505  0.61410  Biso   1.000  H
  H24      1.0000 0.61115  0.32505  0.61410  Biso   1.000  H
