data_image0
_cell_length_a       10.627
_cell_length_b       10.696
_cell_length_c       16.733
_cell_angle_alpha    91.775
_cell_angle_beta     93.851
_cell_angle_gamma    119.079

_symmetry_space_group_name_H-M    "P 1"
_symmetry_int_tables_number       1

loop_
  _symmetry_equiv_pos_as_xyz
  'x, y, z'

loop_
  _atom_site_label
  _atom_site_occupancy
  _atom_site_fract_x
  _atom_site_fract_y
  _atom_site_fract_z
  _atom_site_thermal_displace_type
  _atom_site_B_iso_or_equiv
  _atom_site_type_symbol
  Cu1      1.0000 0.69537  0.38679  0.21250  Biso   1.000  Cu
  Cu2      1.0000 0.30463  0.61321  0.78750  Biso   1.000  Cu
  P1       1.0000 0.62270  0.44160  0.32117  Biso   1.000  P
  P2       1.0000 0.37730  0.55840  0.67883  Biso   1.000  P
  N1       1.0000 0.83940  0.31500  0.20670  Biso   1.000  N
  N2       1.0000 0.16060  0.68500  0.79330  Biso   1.000  N
  O1       1.0000 0.02630  0.29130  0.17510  Biso   1.000  O
  O2       1.0000 0.97370  0.70870  0.82490  Biso   1.000  O
  O3       1.0000 0.57770  0.37030  0.96810  Biso   1.000  O
  O4       1.0000 0.42230  0.62970  0.03190  Biso   1.000  O
  N3       1.0000 0.64990  0.41250  0.09850  Biso   1.000  N
  N4       1.0000 0.35010  0.58750  0.90150  Biso   1.000  N
  C1       1.0000 0.95140  0.36490  0.16760  Biso   1.000  C
  C2       1.0000 0.04860  0.63510  0.83240  Biso   1.000  C
  C3       1.0000 0.70330  0.54420  0.06400  Biso   1.000  C
  C4       1.0000 0.29670  0.45580  0.93600  Biso   1.000  C
  C5       1.0000 0.83390  0.19530  0.24340  Biso   1.000  C
  C6       1.0000 0.16610  0.80470  0.75660  Biso   1.000  C
  C7       1.0000 0.97020  0.43790  0.02640  Biso   1.000  C
  C8       1.0000 0.02980  0.56210  0.97360  Biso   1.000  C
  H1       1.0000 0.00850  0.37470  0.01340  Biso   1.000  H
  H2       1.0000 0.99150  0.62530  0.98660  Biso   1.000  H
  H3       1.0000 0.86580  0.38380  0.01520  Biso   1.000  H
  H4       1.0000 0.13420  0.61620  0.98480  Biso   1.000  H
  C9       1.0000 0.66030  0.51720  0.98280  Biso   1.000  C
  C10      1.0000 0.33970  0.48280  0.01720  Biso   1.000  C
  C11      1.0000 0.49170  0.50510  0.30840  Biso   1.000  C
  C12      1.0000 0.50830  0.49490  0.69160  Biso   1.000  C
  C13      1.0000 0.00780  0.48650  0.11560  Biso   1.000  C
  C14      1.0000 0.99220  0.51350  0.88440  Biso   1.000  C
  H5       1.0000 0.11210  0.54190  0.12660  Biso   1.000  H
  H6       1.0000 0.88790  0.45810  0.87340  Biso   1.000  H
  H7       1.0000 0.96820  0.54860  0.12870  Biso   1.000  H
  H8       1.0000 0.03180  0.45140  0.87130  Biso   1.000  H
  C15      1.0000 0.53500  0.29530  0.38410  Biso   1.000  C
  C16      1.0000 0.46500  0.70470  0.61590  Biso   1.000  C
  C17      1.0000 0.57010  0.30170  0.46520  Biso   1.000  C
  C18      1.0000 0.42990  0.69830  0.53480  Biso   1.000  C
  H9       1.0000 0.64710  0.38570  0.48990  Biso   1.000  H
  H10      1.0000 0.35290  0.61430  0.51010  Biso   1.000  H
  C19      1.0000 0.95070  0.18150  0.22310  Biso   1.000  C
  C20      1.0000 0.04930  0.81850  0.77690  Biso   1.000  C
  C21      1.0000 0.76960  0.58080  0.38790  Biso   1.000  C
  C22      1.0000 0.23040  0.41920  0.61210  Biso   1.000  C
  C23      1.0000 0.79130  0.68320  0.09550  Biso   1.000  C
  C24      1.0000 0.20870  0.31680  0.90450  Biso   1.000  C
  H11      1.0000 0.82170  0.70300  0.15010  Biso   1.000  H
  H12      1.0000 0.17830  0.29700  0.84990  Biso   1.000  H
  C25      1.0000 0.69850  0.62230  0.93020  Biso   1.000  C
  C26      1.0000 0.30150  0.37770  0.06980  Biso   1.000  C
  H13      1.0000 0.66870  0.60170  0.87560  Biso   1.000  H
  H14      1.0000 0.33130  0.39830  0.12440  Biso   1.000  H
  C27      1.0000 0.75360  0.67340  0.43950  Biso   1.000  C
  C28      1.0000 0.24640  0.32660  0.56050  Biso   1.000  C
  H15      1.0000 0.66480  0.67090  0.43820  Biso   1.000  H
  H16      1.0000 0.33520  0.32910  0.56180  Biso   1.000  H
  C29      1.0000 0.49560  0.18840  0.51140  Biso   1.000  C
  C30      1.0000 0.50440  0.81160  0.48860  Biso   1.000  C
  H17      1.0000 0.51930  0.19690  0.56660  Biso   1.000  H
  H18      1.0000 0.48070  0.80310  0.43340  Biso   1.000  H
  C31      1.0000 0.57840  0.31690  0.04000  Biso   1.000  C
  C32      1.0000 0.42160  0.68310  0.96000  Biso   1.000  C
  C33      1.0000 0.34910  0.04900  0.39320  Biso   1.000  C
  C34      1.0000 0.65090  0.95100  0.60680  Biso   1.000  C
  H19      1.0000 0.27610  0.96250  0.36850  Biso   1.000  H
  H20      1.0000 0.72390  0.03750  0.63150  Biso   1.000  H
  C35      1.0000 0.36430  0.44770  0.34600  Biso   1.000  C
  C36      1.0000 0.63570  0.55230  0.65400  Biso   1.000  C
  H21      1.0000 0.34130  0.37270  0.37910  Biso   1.000  H
  H22      1.0000 0.65870  0.62730  0.62090  Biso   1.000  H
  C37      1.0000 0.98280  0.07930  0.24850  Biso   1.000  C
  C38      1.0000 0.01720  0.92070  0.75150  Biso   1.000  C
  H23      1.0000 0.06310  0.07390  0.23400  Biso   1.000  H
  H24      1.0000 0.93690  0.92610  0.76600  Biso   1.000  H
  C39      1.0000 0.78410  0.76070  0.96330  Biso   1.000  C
  C40      1.0000 0.21590  0.23930  0.03670  Biso   1.000  C
  H25      1.0000 0.81040  0.83630  0.93030  Biso   1.000  H
  H26      1.0000 0.18960  0.16370  0.06970  Biso   1.000  H
  C41      1.0000 0.76720  0.99140  0.31710  Biso   1.000  C
  C42      1.0000 0.23280  0.00860  0.68290  Biso   1.000  C
  H27      1.0000 0.70430  0.92290  0.34900  Biso   1.000  H
  H28      1.0000 0.29570  0.07710  0.65100  Biso   1.000  H
  C43      1.0000 0.42340  0.16700  0.34880  Biso   1.000  C
  C44      1.0000 0.57660  0.83300  0.65120  Biso   1.000  C
  H29      1.0000 0.39740  0.15930  0.29400  Biso   1.000  H
  H30      1.0000 0.60260  0.84070  0.70600  Biso   1.000  H
  C45      1.0000 0.51870  0.61380  0.25760  Biso   1.000  C
  C46      1.0000 0.48130  0.38620  0.74240  Biso   1.000  C
  H31      1.0000 0.60160  0.65040  0.23050  Biso   1.000  H
  H32      1.0000 0.39840  0.34960  0.76950  Biso   1.000  H
  C47      1.0000 0.49750  0.16150  0.04420  Biso   1.000  C
  C48      1.0000 0.50250  0.83850  0.95580  Biso   1.000  C
  H33      1.0000 0.49890  0.14040  0.10010  Biso   1.000  H
  H34      1.0000 0.50110  0.85960  0.89990  Biso   1.000  H
  H35      1.0000 0.39750  0.12800  0.02450  Biso   1.000  H
  H36      1.0000 0.60250  0.87200  0.97550  Biso   1.000  H
  C49      1.0000 0.42590  0.66900  0.24630  Biso   1.000  C
  C50      1.0000 0.57410  0.33100  0.75370  Biso   1.000  C
  H37      1.0000 0.44660  0.74260  0.21240  Biso   1.000  H
  H38      1.0000 0.55340  0.25740  0.78760  Biso   1.000  H
  C51      1.0000 0.73750  0.09640  0.29120  Biso   1.000  C
  C52      1.0000 0.26250  0.90360  0.70880  Biso   1.000  C
  H39      1.0000 0.65630  0.10050  0.30530  Biso   1.000  H
  H40      1.0000 0.34370  0.89950  0.69470  Biso   1.000  H
  C53      1.0000 0.27150  0.50490  0.33310  Biso   1.000  C
  C54      1.0000 0.72850  0.49510  0.66690  Biso   1.000  C
  H41      1.0000 0.18590  0.46670  0.35790  Biso   1.000  H
  H42      1.0000 0.81410  0.53330  0.64210  Biso   1.000  H
  C55      1.0000 0.01570  0.68660  0.44520  Biso   1.000  C
  C56      1.0000 0.98430  0.31340  0.55480  Biso   1.000  C
  H43      1.0000 0.10550  0.69100  0.44840  Biso   1.000  H
  H44      1.0000 0.89450  0.30900  0.55160  Biso   1.000  H
  C57      1.0000 0.88710  0.98580  0.29690  Biso   1.000  C
  C58      1.0000 0.11290  0.01420  0.70310  Biso   1.000  C
  H45      1.0000 0.90420  0.91490  0.31720  Biso   1.000  H
  H46      1.0000 0.09580  0.08510  0.68280  Biso   1.000  H
  C59      1.0000 0.99290  0.77490  0.49490  Biso   1.000  C
  C60      1.0000 0.00710  0.22510  0.50510  Biso   1.000  C
  H47      1.0000 0.06820  0.84070  0.53120  Biso   1.000  H
  H48      1.0000 0.93180  0.15930  0.46880  Biso   1.000  H
  C61      1.0000 0.83260  0.79080  0.04510  Biso   1.000  C
  C62      1.0000 0.16740  0.20920  0.95490  Biso   1.000  C
  H49      1.0000 0.89360  0.88510  0.06510  Biso   1.000  H
  H50      1.0000 0.10640  0.11490  0.93490  Biso   1.000  H
  C63      1.0000 0.90480  0.58930  0.38950  Biso   1.000  C
  C64      1.0000 0.09520  0.41070  0.61050  Biso   1.000  C
  H51      1.0000 0.92070  0.53100  0.35400  Biso   1.000  H
  H52      1.0000 0.07930  0.46900  0.64600  Biso   1.000  H
  C65      1.0000 0.38640  0.06370  0.47440  Biso   1.000  C
  C66      1.0000 0.61360  0.93630  0.52560  Biso   1.000  C
  H53      1.0000 0.33590  0.98640  0.50500  Biso   1.000  H
  H54      1.0000 0.66410  0.01360  0.49500  Biso   1.000  H
  C67      1.0000 0.86520  0.76900  0.49250  Biso   1.000  C
  C68      1.0000 0.13480  0.23100  0.50750  Biso   1.000  C
  H55      1.0000 0.85150  0.83020  0.52710  Biso   1.000  H
  H56      1.0000 0.14850  0.16980  0.47290  Biso   1.000  H
  C69      1.0000 0.54960  0.08230  0.99990  Biso   1.000  C
  C70      1.0000 0.45040  0.91770  0.00010  Biso   1.000  C
  H57      1.0000 0.64590  0.10750  0.02310  Biso   1.000  H
  H58      1.0000 0.35410  0.89250  0.97690  Biso   1.000  H
  H59      1.0000 0.55680  0.10920  0.94490  Biso   1.000  H
  H60      1.0000 0.44320  0.89080  0.05510  Biso   1.000  H
  C71      1.0000 0.30320  0.61460  0.28550  Biso   1.000  C
  C72      1.0000 0.69680  0.38540  0.71450  Biso   1.000  C
  H61      1.0000 0.24140  0.65280  0.27940  Biso   1.000  H
  H62      1.0000 0.75860  0.34720  0.72060  Biso   1.000  H
  O5       1.0000 0.23450  0.04150  0.17640  Biso   1.000  O
  O6       1.0000 0.76550  0.95850  0.82360  Biso   1.000  O
  O7       1.0000 0.35050  0.91760  0.20060  Biso   1.000  O
  O8       1.0000 0.64950  0.08240  0.79940  Biso   1.000  O
  O9       1.0000 0.11220  0.82020  0.22920  Biso   1.000  O
  O10      1.0000 0.88780  0.17980  0.77080  Biso   1.000  O
  Cl1      1.0000 0.21160  0.89830  0.17250  Biso   1.000  Cl
  Cl2      1.0000 0.78840  0.10170  0.82750  Biso   1.000  Cl
  O11      1.0000 0.15630  0.85070  0.09150  Biso   1.000  O
  O12      1.0000 0.84370  0.14930  0.90850  Biso   1.000  O
  O13      1.0000 0.19700  0.79900  0.10870  Biso   1.000  O
  O14      1.0000 0.80300  0.20100  0.89130  Biso   1.000  O
