data_image0
_cell_length_a       21.99
_cell_length_b       15.109
_cell_length_c       15.286
_cell_angle_alpha    90
_cell_angle_beta     125.63
_cell_angle_gamma    90

_symmetry_space_group_name_H-M    "P 1"
_symmetry_int_tables_number       1

loop_
  _symmetry_equiv_pos_as_xyz
  'x, y, z'

loop_
  _atom_site_label
  _atom_site_occupancy
  _atom_site_fract_x
  _atom_site_fract_y
  _atom_site_fract_z
  _atom_site_thermal_displace_type
  _atom_site_B_iso_or_equiv
  _atom_site_type_symbol
  I1       1.0000 0.43909  0.58681  0.85300  Biso   1.000  I
  I2       1.0000 0.93909  0.08681  0.85300  Biso   1.000  I
  I3       1.0000 0.56091  0.58681  0.64700  Biso   1.000  I
  I4       1.0000 0.06091  0.08681  0.64700  Biso   1.000  I
  I5       1.0000 0.56091  0.41319  0.14700  Biso   1.000  I
  I6       1.0000 0.06091  0.91319  0.14700  Biso   1.000  I
  I7       1.0000 0.43909  0.41319  0.35300  Biso   1.000  I
  I8       1.0000 0.93909  0.91319  0.35300  Biso   1.000  I
  I9       1.0000 0.45572  0.29498  0.84748  Biso   1.000  I
  I10      1.0000 0.95572  0.79498  0.84748  Biso   1.000  I
  I11      1.0000 0.54428  0.29498  0.65252  Biso   1.000  I
  I12      1.0000 0.04428  0.79498  0.65252  Biso   1.000  I
  I13      1.0000 0.54428  0.70502  0.15252  Biso   1.000  I
  I14      1.0000 0.04428  0.20502  0.15252  Biso   1.000  I
  I15      1.0000 0.45572  0.70502  0.34748  Biso   1.000  I
  I16      1.0000 0.95572  0.20502  0.34748  Biso   1.000  I
  I17      1.0000 0.35469  0.45653  0.55158  Biso   1.000  I
  I18      1.0000 0.85469  0.95653  0.55158  Biso   1.000  I
  I19      1.0000 0.64531  0.45653  0.94842  Biso   1.000  I
  I20      1.0000 0.14531  0.95653  0.94842  Biso   1.000  I
  I21      1.0000 0.64531  0.54347  0.44842  Biso   1.000  I
  I22      1.0000 0.14531  0.04347  0.44842  Biso   1.000  I
  I23      1.0000 0.35469  0.54347  0.05158  Biso   1.000  I
  I24      1.0000 0.85469  0.04347  0.05158  Biso   1.000  I
  I25      1.0000 0.34564  0.15965  0.56135  Biso   1.000  I
  I26      1.0000 0.84564  0.65965  0.56135  Biso   1.000  I
  I27      1.0000 0.65436  0.15965  0.93865  Biso   1.000  I
  I28      1.0000 0.15436  0.65965  0.93865  Biso   1.000  I
  I29      1.0000 0.65436  0.84035  0.43865  Biso   1.000  I
  I30      1.0000 0.15436  0.34035  0.43865  Biso   1.000  I
  I31      1.0000 0.34564  0.84035  0.06135  Biso   1.000  I
  I32      1.0000 0.84564  0.34035  0.06135  Biso   1.000  I
  Cu1      1.0000 0.37463  0.43892  0.74664  Biso   1.000  Cu
  Cu2      1.0000 0.87463  0.93892  0.74664  Biso   1.000  Cu
  Cu3      1.0000 0.62537  0.43892  0.75336  Biso   1.000  Cu
  Cu4      1.0000 0.12537  0.93892  0.75336  Biso   1.000  Cu
  Cu5      1.0000 0.62537  0.56108  0.25336  Biso   1.000  Cu
  Cu6      1.0000 0.12537  0.06108  0.25336  Biso   1.000  Cu
  Cu7      1.0000 0.37463  0.56108  0.24664  Biso   1.000  Cu
  Cu8      1.0000 0.87463  0.06108  0.24664  Biso   1.000  Cu
  Cu9      1.0000 0.52425  0.44727  0.95145  Biso   1.000  Cu
  Cu10     1.0000 0.02425  0.94727  0.95145  Biso   1.000  Cu
  Cu11     1.0000 0.47575  0.44727  0.54855  Biso   1.000  Cu
  Cu12     1.0000 0.97575  0.94727  0.54855  Biso   1.000  Cu
  Cu13     1.0000 0.47575  0.55273  0.04855  Biso   1.000  Cu
  Cu14     1.0000 0.97575  0.05273  0.04855  Biso   1.000  Cu
  Cu15     1.0000 0.52425  0.55273  0.45145  Biso   1.000  Cu
  Cu16     1.0000 0.02425  0.05273  0.45145  Biso   1.000  Cu
  Cu17     1.0000 0.42064  0.30537  0.64919  Biso   1.000  Cu
  Cu18     1.0000 0.92064  0.80537  0.64919  Biso   1.000  Cu
  Cu19     1.0000 0.57936  0.30537  0.85081  Biso   1.000  Cu
  Cu20     1.0000 0.07936  0.80537  0.85081  Biso   1.000  Cu
  Cu21     1.0000 0.57936  0.69463  0.35081  Biso   1.000  Cu
  Cu22     1.0000 0.07936  0.19463  0.35081  Biso   1.000  Cu
  Cu23     1.0000 0.42064  0.69463  0.14919  Biso   1.000  Cu
  Cu24     1.0000 0.92064  0.19463  0.14919  Biso   1.000  Cu
  Cu25     1.0000 0.27774  0.30511  0.45102  Biso   1.000  Cu
  Cu26     1.0000 0.77774  0.80511  0.45102  Biso   1.000  Cu
  Cu27     1.0000 0.72226  0.30511  0.04898  Biso   1.000  Cu
  Cu28     1.0000 0.22226  0.80511  0.04898  Biso   1.000  Cu
  Cu29     1.0000 0.72226  0.69489  0.54898  Biso   1.000  Cu
  Cu30     1.0000 0.22226  0.19489  0.54898  Biso   1.000  Cu
  Cu31     1.0000 0.27774  0.69489  0.95102  Biso   1.000  Cu
  Cu32     1.0000 0.77774  0.19489  0.95102  Biso   1.000  Cu
  N1       1.0000 0.27740  0.43190  0.72350  Biso   1.000  N
  N2       1.0000 0.77740  0.93190  0.72350  Biso   1.000  N
  N3       1.0000 0.72260  0.43190  0.77650  Biso   1.000  N
  N4       1.0000 0.22260  0.93190  0.77650  Biso   1.000  N
  N5       1.0000 0.72260  0.56810  0.27650  Biso   1.000  N
  N6       1.0000 0.22260  0.06810  0.27650  Biso   1.000  N
  N7       1.0000 0.27740  0.56810  0.22350  Biso   1.000  N
  N8       1.0000 0.77740  0.06810  0.22350  Biso   1.000  N
  C1       1.0000 0.14180  0.43800  0.67620  Biso   1.000  C
  C2       1.0000 0.64180  0.93800  0.67620  Biso   1.000  C
  C3       1.0000 0.85820  0.43800  0.82380  Biso   1.000  C
  C4       1.0000 0.35820  0.93800  0.82380  Biso   1.000  C
  C5       1.0000 0.85820  0.56200  0.32380  Biso   1.000  C
  C6       1.0000 0.35820  0.06200  0.32380  Biso   1.000  C
  C7       1.0000 0.14180  0.56200  0.17620  Biso   1.000  C
  C8       1.0000 0.64180  0.06200  0.17620  Biso   1.000  C
  C9       1.0000 0.09390  0.36710  0.62420  Biso   1.000  C
  C10      1.0000 0.59390  0.86710  0.62420  Biso   1.000  C
  C11      1.0000 0.90610  0.36710  0.87580  Biso   1.000  C
  C12      1.0000 0.40610  0.86710  0.87580  Biso   1.000  C
  C13      1.0000 0.90610  0.63290  0.37580  Biso   1.000  C
  C14      1.0000 0.40610  0.13290  0.37580  Biso   1.000  C
  C15      1.0000 0.09390  0.63290  0.12420  Biso   1.000  C
  C16      1.0000 0.59390  0.13290  0.12420  Biso   1.000  C
  C17      1.0000 0.02170  0.37490  0.59480  Biso   1.000  C
  C18      1.0000 0.52170  0.87490  0.59480  Biso   1.000  C
  C19      1.0000 0.97830  0.37490  0.90520  Biso   1.000  C
  C20      1.0000 0.47830  0.87490  0.90520  Biso   1.000  C
  C21      1.0000 0.97830  0.62510  0.40520  Biso   1.000  C
  C22      1.0000 0.47830  0.12510  0.40520  Biso   1.000  C
  C23      1.0000 0.02170  0.62510  0.09480  Biso   1.000  C
  C24      1.0000 0.52170  0.12510  0.09480  Biso   1.000  C
  C25      1.0000 0.00060  0.45200  0.62000  Biso   1.000  C
  C26      1.0000 0.50060  0.95200  0.62000  Biso   1.000  C
  C27      1.0000 0.99940  0.45200  0.88000  Biso   1.000  C
  C28      1.0000 0.49940  0.95200  0.88000  Biso   1.000  C
  C29      1.0000 0.99940  0.54800  0.38000  Biso   1.000  C
  C30      1.0000 0.49940  0.04800  0.38000  Biso   1.000  C
  C31      1.0000 0.00060  0.54800  0.12000  Biso   1.000  C
  C32      1.0000 0.50060  0.04800  0.12000  Biso   1.000  C
  C33      1.0000 0.04800  0.52010  0.67080  Biso   1.000  C
  C34      1.0000 0.54800  0.02010  0.67080  Biso   1.000  C
  C35      1.0000 0.95200  0.52010  0.82920  Biso   1.000  C
  C36      1.0000 0.45200  0.02010  0.82920  Biso   1.000  C
  C37      1.0000 0.95200  0.47990  0.32920  Biso   1.000  C
  C38      1.0000 0.45200  0.97990  0.32920  Biso   1.000  C
  C39      1.0000 0.04800  0.47990  0.17080  Biso   1.000  C
  C40      1.0000 0.54800  0.97990  0.17080  Biso   1.000  C
  C41      1.0000 0.12000  0.51290  0.69960  Biso   1.000  C
  C42      1.0000 0.62000  0.01290  0.69960  Biso   1.000  C
  C43      1.0000 0.88000  0.51290  0.80040  Biso   1.000  C
  C44      1.0000 0.38000  0.01290  0.80040  Biso   1.000  C
  C45      1.0000 0.88000  0.48710  0.30040  Biso   1.000  C
  C46      1.0000 0.38000  0.98710  0.30040  Biso   1.000  C
  C47      1.0000 0.12000  0.48710  0.19960  Biso   1.000  C
  C48      1.0000 0.62000  0.98710  0.19960  Biso   1.000  C
  C49      1.0000 0.21720  0.43380  0.70290  Biso   1.000  C
  C50      1.0000 0.71720  0.93380  0.70290  Biso   1.000  C
  C51      1.0000 0.78280  0.43380  0.79710  Biso   1.000  C
  C52      1.0000 0.28280  0.93380  0.79710  Biso   1.000  C
  C53      1.0000 0.78280  0.56620  0.29710  Biso   1.000  C
  C54      1.0000 0.28280  0.06620  0.29710  Biso   1.000  C
  C55      1.0000 0.21720  0.56620  0.20290  Biso   1.000  C
  C56      1.0000 0.71720  0.06620  0.20290  Biso   1.000  C
  N9       1.0000 0.25520  0.29920  0.30740  Biso   1.000  N
  N10      1.0000 0.75520  0.79920  0.30740  Biso   1.000  N
  N11      1.0000 0.74480  0.29920  0.19260  Biso   1.000  N
  N12      1.0000 0.24480  0.79920  0.19260  Biso   1.000  N
  N13      1.0000 0.74480  0.70080  0.69260  Biso   1.000  N
  N14      1.0000 0.24480  0.20080  0.69260  Biso   1.000  N
  N15      1.0000 0.25520  0.70080  0.80740  Biso   1.000  N
  N16      1.0000 0.75520  0.20080  0.80740  Biso   1.000  N
  C57      1.0000 0.20200  0.29360  0.10390  Biso   1.000  C
  C58      1.0000 0.70200  0.79360  0.10390  Biso   1.000  C
  C59      1.0000 0.79800  0.29360  0.39610  Biso   1.000  C
  C60      1.0000 0.29800  0.79360  0.39610  Biso   1.000  C
  C61      1.0000 0.79800  0.70640  0.89610  Biso   1.000  C
  C62      1.0000 0.29800  0.20640  0.89610  Biso   1.000  C
  C63      1.0000 0.20200  0.70640  0.60390  Biso   1.000  C
  C64      1.0000 0.70200  0.20640  0.60390  Biso   1.000  C
  C65      1.0000 0.15940  0.22240  0.04250  Biso   1.000  C
  C66      1.0000 0.65940  0.72240  0.04250  Biso   1.000  C
  C67      1.0000 0.84060  0.22240  0.45750  Biso   1.000  C
  C68      1.0000 0.34060  0.72240  0.45750  Biso   1.000  C
  C69      1.0000 0.84060  0.77760  0.95750  Biso   1.000  C
  C70      1.0000 0.34060  0.27760  0.95750  Biso   1.000  C
  C71      1.0000 0.15940  0.77760  0.54250  Biso   1.000  C
  C72      1.0000 0.65940  0.27760  0.54250  Biso   1.000  C
  C73      1.0000 0.12920  0.22240  0.93370  Biso   1.000  C
  C74      1.0000 0.62920  0.72240  0.93370  Biso   1.000  C
  C75      1.0000 0.87080  0.22240  0.56630  Biso   1.000  C
  C76      1.0000 0.37080  0.72240  0.56630  Biso   1.000  C
  C77      1.0000 0.87080  0.77760  0.06630  Biso   1.000  C
  C78      1.0000 0.37080  0.27760  0.06630  Biso   1.000  C
  C79      1.0000 0.12920  0.77760  0.43370  Biso   1.000  C
  C80      1.0000 0.62920  0.27760  0.43370  Biso   1.000  C
  C81      1.0000 0.14050  0.29300  0.88850  Biso   1.000  C
  C82      1.0000 0.64050  0.79300  0.88850  Biso   1.000  C
  C83      1.0000 0.85950  0.29300  0.61150  Biso   1.000  C
  C84      1.0000 0.35950  0.79300  0.61150  Biso   1.000  C
  C85      1.0000 0.85950  0.70700  0.11150  Biso   1.000  C
  C86      1.0000 0.35950  0.20700  0.11150  Biso   1.000  C
  C87      1.0000 0.14050  0.70700  0.38850  Biso   1.000  C
  C88      1.0000 0.64050  0.20700  0.38850  Biso   1.000  C
  C89      1.0000 0.18210  0.36210  0.94940  Biso   1.000  C
  C90      1.0000 0.68210  0.86210  0.94940  Biso   1.000  C
  C91      1.0000 0.81790  0.36210  0.55060  Biso   1.000  C
  C92      1.0000 0.31790  0.86210  0.55060  Biso   1.000  C
  C93      1.0000 0.81790  0.63790  0.05060  Biso   1.000  C
  C94      1.0000 0.31790  0.13790  0.05060  Biso   1.000  C
  C95      1.0000 0.18210  0.63790  0.44940  Biso   1.000  C
  C96      1.0000 0.68210  0.13790  0.44940  Biso   1.000  C
  C97      1.0000 0.21310  0.36330  0.05910  Biso   1.000  C
  C98      1.0000 0.71310  0.86330  0.05910  Biso   1.000  C
  C99      1.0000 0.78690  0.36330  0.44090  Biso   1.000  C
  C100     1.0000 0.28690  0.86330  0.44090  Biso   1.000  C
  C101     1.0000 0.78690  0.63670  0.94090  Biso   1.000  C
  C102     1.0000 0.28690  0.13670  0.94090  Biso   1.000  C
  C103     1.0000 0.21310  0.63670  0.55910  Biso   1.000  C
  C104     1.0000 0.71310  0.13670  0.55910  Biso   1.000  C
  C105     1.0000 0.23120  0.29500  0.21580  Biso   1.000  C
  C106     1.0000 0.73120  0.79500  0.21580  Biso   1.000  C
  C107     1.0000 0.76880  0.29500  0.28420  Biso   1.000  C
  C108     1.0000 0.26880  0.79500  0.28420  Biso   1.000  C
  C109     1.0000 0.76880  0.70500  0.78420  Biso   1.000  C
  C110     1.0000 0.26880  0.20500  0.78420  Biso   1.000  C
  C111     1.0000 0.23120  0.70500  0.71580  Biso   1.000  C
  C112     1.0000 0.73120  0.20500  0.71580  Biso   1.000  C
  H1       1.0000 0.11000  0.33500  0.61100  Biso   1.000  H
  H2       1.0000 0.61000  0.83500  0.61100  Biso   1.000  H
  H3       1.0000 0.89000  0.33500  0.88900  Biso   1.000  H
  H4       1.0000 0.39000  0.83500  0.88900  Biso   1.000  H
  H5       1.0000 0.89000  0.66500  0.38900  Biso   1.000  H
  H6       1.0000 0.39000  0.16500  0.38900  Biso   1.000  H
  H7       1.0000 0.11000  0.66500  0.11100  Biso   1.000  H
  H8       1.0000 0.61000  0.16500  0.11100  Biso   1.000  H
  H9       1.0000 0.99100  0.33000  0.55500  Biso   1.000  H
  H10      1.0000 0.49100  0.83000  0.55500  Biso   1.000  H
  H11      1.0000 0.00900  0.33000  0.94500  Biso   1.000  H
  H12      1.0000 0.50900  0.83000  0.94500  Biso   1.000  H
  H13      1.0000 0.00900  0.67000  0.44500  Biso   1.000  H
  H14      1.0000 0.50900  0.17000  0.44500  Biso   1.000  H
  H15      1.0000 0.99100  0.67000  0.05500  Biso   1.000  H
  H16      1.0000 0.49100  0.17000  0.05500  Biso   1.000  H
  H17      1.0000 0.94900  0.45800  0.58800  Biso   1.000  H
  H18      1.0000 0.44900  0.95800  0.58800  Biso   1.000  H
  H19      1.0000 0.05100  0.45800  0.91200  Biso   1.000  H
  H20      1.0000 0.55100  0.95800  0.91200  Biso   1.000  H
  H21      1.0000 0.05100  0.54200  0.41200  Biso   1.000  H
  H22      1.0000 0.55100  0.04200  0.41200  Biso   1.000  H
  H23      1.0000 0.94900  0.54200  0.08800  Biso   1.000  H
  H24      1.0000 0.44900  0.04200  0.08800  Biso   1.000  H
  H25      1.0000 0.02400  0.57000  0.68100  Biso   1.000  H
  H26      1.0000 0.52400  0.07000  0.68100  Biso   1.000  H
  H27      1.0000 0.97600  0.57000  0.81900  Biso   1.000  H
  H28      1.0000 0.47600  0.07000  0.81900  Biso   1.000  H
  H29      1.0000 0.97600  0.43000  0.31900  Biso   1.000  H
  H30      1.0000 0.47600  0.93000  0.31900  Biso   1.000  H
  H31      1.0000 0.02400  0.43000  0.18100  Biso   1.000  H
  H32      1.0000 0.52400  0.93000  0.18100  Biso   1.000  H
  H33      1.0000 0.15000  0.56000  0.73100  Biso   1.000  H
  H34      1.0000 0.65000  0.06000  0.73100  Biso   1.000  H
  H35      1.0000 0.85000  0.56000  0.76900  Biso   1.000  H
  H36      1.0000 0.35000  0.06000  0.76900  Biso   1.000  H
  H37      1.0000 0.85000  0.44000  0.26900  Biso   1.000  H
  H38      1.0000 0.35000  0.94000  0.26900  Biso   1.000  H
  H39      1.0000 0.15000  0.44000  0.23100  Biso   1.000  H
  H40      1.0000 0.65000  0.94000  0.23100  Biso   1.000  H
  H41      1.0000 0.14700  0.18500  0.05400  Biso   1.000  H
  H42      1.0000 0.64700  0.68500  0.05400  Biso   1.000  H
  H43      1.0000 0.85300  0.18500  0.44600  Biso   1.000  H
  H44      1.0000 0.35300  0.68500  0.44600  Biso   1.000  H
  H45      1.0000 0.85300  0.81500  0.94600  Biso   1.000  H
  H46      1.0000 0.35300  0.31500  0.94600  Biso   1.000  H
  H47      1.0000 0.14700  0.81500  0.55400  Biso   1.000  H
  H48      1.0000 0.64700  0.31500  0.55400  Biso   1.000  H
  H49      1.0000 0.09700  0.19400  0.89400  Biso   1.000  H
  H50      1.0000 0.59700  0.69400  0.89400  Biso   1.000  H
  H51      1.0000 0.90300  0.19400  0.60600  Biso   1.000  H
  H52      1.0000 0.40300  0.69400  0.60600  Biso   1.000  H
  H53      1.0000 0.90300  0.80600  0.10600  Biso   1.000  H
  H54      1.0000 0.40300  0.30600  0.10600  Biso   1.000  H
  H55      1.0000 0.09700  0.80600  0.39400  Biso   1.000  H
  H56      1.0000 0.59700  0.30600  0.39400  Biso   1.000  H
  H57      1.0000 0.12500  0.28100  0.82700  Biso   1.000  H
  H58      1.0000 0.62500  0.78100  0.82700  Biso   1.000  H
  H59      1.0000 0.87500  0.28100  0.67300  Biso   1.000  H
  H60      1.0000 0.37500  0.78100  0.67300  Biso   1.000  H
  H61      1.0000 0.87500  0.71900  0.17300  Biso   1.000  H
  H62      1.0000 0.37500  0.21900  0.17300  Biso   1.000  H
  H63      1.0000 0.12500  0.71900  0.32700  Biso   1.000  H
  H64      1.0000 0.62500  0.21900  0.32700  Biso   1.000  H
  H65      1.0000 0.19400  0.42100  0.92500  Biso   1.000  H
  H66      1.0000 0.69400  0.92100  0.92500  Biso   1.000  H
  H67      1.0000 0.80600  0.42100  0.57500  Biso   1.000  H
  H68      1.0000 0.30600  0.92100  0.57500  Biso   1.000  H
  H69      1.0000 0.80600  0.57900  0.07500  Biso   1.000  H
  H70      1.0000 0.30600  0.07900  0.07500  Biso   1.000  H
  H71      1.0000 0.19400  0.57900  0.42500  Biso   1.000  H
  H72      1.0000 0.69400  0.07900  0.42500  Biso   1.000  H
  H73      1.0000 0.25100  0.40300  0.10100  Biso   1.000  H
  H74      1.0000 0.75100  0.90300  0.10100  Biso   1.000  H
  H75      1.0000 0.74900  0.40300  0.39900  Biso   1.000  H
  H76      1.0000 0.24900  0.90300  0.39900  Biso   1.000  H
  H77      1.0000 0.74900  0.59700  0.89900  Biso   1.000  H
  H78      1.0000 0.24900  0.09700  0.89900  Biso   1.000  H
  H79      1.0000 0.25100  0.59700  0.60100  Biso   1.000  H
  H80      1.0000 0.75100  0.09700  0.60100  Biso   1.000  H
