data_image0
_cell_length_a       6.2566
_cell_length_b       7.5975
_cell_length_c       11.1251
_cell_angle_alpha    90.896
_cell_angle_beta     92.827
_cell_angle_gamma    94.34

_symmetry_space_group_name_H-M    "P 1"
_symmetry_int_tables_number       1

loop_
  _symmetry_equiv_pos_as_xyz
  'x, y, z'

loop_
  _atom_site_label
  _atom_site_occupancy
  _atom_site_fract_x
  _atom_site_fract_y
  _atom_site_fract_z
  _atom_site_thermal_displace_type
  _atom_site_B_iso_or_equiv
  _atom_site_type_symbol
  Cu1      1.0000 0.59235  0.24515  0.32605  Biso   1.000  Cu
  Cu2      1.0000 0.40765  0.75485  0.67395  Biso   1.000  Cu
  Cu3      1.0000 0.22063  0.22907  0.14249  Biso   1.000  Cu
  Cu4      1.0000 0.77937  0.77093  0.85751  Biso   1.000  Cu
  Cl1      1.0000 0.85760  0.25661  0.16448  Biso   1.000  Cl
  Cl2      1.0000 0.14240  0.74339  0.83552  Biso   1.000  Cl
  Cl3      1.0000 0.38829  0.48436  0.27683  Biso   1.000  Cl
  Cl4      1.0000 0.61171  0.51564  0.72317  Biso   1.000  Cl
  Cl5      1.0000 0.33515  0.01679  0.27456  Biso   1.000  Cl
  Cl6      1.0000 0.66485  0.98321  0.72544  Biso   1.000  Cl
  N1       1.0000 0.82070  0.25010  0.45060  Biso   1.000  N
  N2       1.0000 0.17930  0.74990  0.54940  Biso   1.000  N
  N3       1.0000 0.05680  0.33200  0.76280  Biso   1.000  N
  N4       1.0000 0.94320  0.66800  0.23720  Biso   1.000  N
  H1       1.0000 0.92540  0.33560  0.72660  Biso   1.000  H
  H2       1.0000 0.07460  0.66440  0.27340  Biso   1.000  H
  H3       1.0000 0.12500  0.44010  0.75850  Biso   1.000  H
  H4       1.0000 0.87500  0.55990  0.24150  Biso   1.000  H
  C1       1.0000 0.98350  0.25080  0.49920  Biso   1.000  C
  C2       1.0000 0.01650  0.74920  0.50080  Biso   1.000  C
  C3       1.0000 0.19330  0.25270  0.56450  Biso   1.000  C
  C4       1.0000 0.80670  0.74730  0.43550  Biso   1.000  C
  H5       1.0000 0.26580  0.36970  0.56030  Biso   1.000  H
  H6       1.0000 0.73420  0.63030  0.43970  Biso   1.000  H
  H7       1.0000 0.27990  0.17050  0.52520  Biso   1.000  H
  H8       1.0000 0.72010  0.82950  0.47480  Biso   1.000  H
  C5       1.0000 0.17760  0.20350  0.69640  Biso   1.000  C
  C6       1.0000 0.82240  0.79650  0.30360  Biso   1.000  C
  H9       1.0000 0.10590  0.08620  0.70140  Biso   1.000  H
  H10      1.0000 0.89410  0.91380  0.29860  Biso   1.000  H
  H11      1.0000 0.32080  0.20110  0.73370  Biso   1.000  H
  H12      1.0000 0.67920  0.79890  0.26630  Biso   1.000  H
  C7       1.0000 0.03260  0.28780  0.89400  Biso   1.000  C
  C8       1.0000 0.96740  0.71220  0.10600  Biso   1.000  C
  H13      1.0000 0.93070  0.36180  0.92830  Biso   1.000  H
  H14      1.0000 0.06930  0.63820  0.07170  Biso   1.000  H
  H15      1.0000 0.97770  0.16560  0.90020  Biso   1.000  H
  H16      1.0000 0.02230  0.83440  0.09980  Biso   1.000  H
  C9       1.0000 0.24540  0.31660  0.96260  Biso   1.000  C
  C10      1.0000 0.75460  0.68340  0.03740  Biso   1.000  C
  H17      1.0000 0.29010  0.42950  0.99170  Biso   1.000  H
  H18      1.0000 0.70990  0.57050  0.00830  Biso   1.000  H
  C11      1.0000 0.37450  0.18420  0.98370  Biso   1.000  C
  C12      1.0000 0.62550  0.81580  0.01630  Biso   1.000  C
  H19      1.0000 0.33240  0.07040  0.95520  Biso   1.000  H
  H20      1.0000 0.66760  0.92960  0.04480  Biso   1.000  H
  H21      1.0000 0.50530  0.20690  0.02650  Biso   1.000  H
  H22      1.0000 0.49470  0.79310  0.97350  Biso   1.000  H
