data_image0
_cell_length_a       12.183
_cell_length_b       10.667
_cell_length_c       8.47
_cell_angle_alpha    90
_cell_angle_beta     92.444
_cell_angle_gamma    90

_symmetry_space_group_name_H-M    "P 1"
_symmetry_int_tables_number       1

loop_
  _symmetry_equiv_pos_as_xyz
  'x, y, z'

loop_
  _atom_site_label
  _atom_site_occupancy
  _atom_site_fract_x
  _atom_site_fract_y
  _atom_site_fract_z
  _atom_site_thermal_displace_type
  _atom_site_B_iso_or_equiv
  _atom_site_type_symbol
  Cu1      1.0000 0.50000  0.12670  0.75000  Biso   1.000  Cu
  Cu2      1.0000 0.00000  0.62670  0.75000  Biso   1.000  Cu
  Cu3      1.0000 0.50000  0.87330  0.25000  Biso   1.000  Cu
  Cu4      1.0000 0.00000  0.37330  0.25000  Biso   1.000  Cu
  O1       1.0000 0.38500  0.58880  0.77980  Biso   1.000  O
  O2       1.0000 0.88500  0.08880  0.77980  Biso   1.000  O
  O3       1.0000 0.61500  0.58880  0.72020  Biso   1.000  O
  O4       1.0000 0.11500  0.08880  0.72020  Biso   1.000  O
  O5       1.0000 0.61500  0.41120  0.22020  Biso   1.000  O
  O6       1.0000 0.11500  0.91120  0.22020  Biso   1.000  O
  O7       1.0000 0.38500  0.41120  0.27980  Biso   1.000  O
  O8       1.0000 0.88500  0.91120  0.27980  Biso   1.000  O
  N1       1.0000 0.37610  0.25690  0.77440  Biso   1.000  N
  N2       1.0000 0.87610  0.75690  0.77440  Biso   1.000  N
  N3       1.0000 0.62390  0.25690  0.72560  Biso   1.000  N
  N4       1.0000 0.12390  0.75690  0.72560  Biso   1.000  N
  N5       1.0000 0.62390  0.74310  0.22560  Biso   1.000  N
  N6       1.0000 0.12390  0.24310  0.22560  Biso   1.000  N
  N7       1.0000 0.37610  0.74310  0.27440  Biso   1.000  N
  N8       1.0000 0.87610  0.24310  0.27440  Biso   1.000  N
  C1       1.0000 0.32250  0.33660  0.81400  Biso   1.000  C
  C2       1.0000 0.82250  0.83660  0.81400  Biso   1.000  C
  C3       1.0000 0.67750  0.33660  0.68600  Biso   1.000  C
  C4       1.0000 0.17750  0.83660  0.68600  Biso   1.000  C
  C5       1.0000 0.67750  0.66340  0.18600  Biso   1.000  C
  C6       1.0000 0.17750  0.16340  0.18600  Biso   1.000  C
  C7       1.0000 0.32250  0.66340  0.31400  Biso   1.000  C
  C8       1.0000 0.82250  0.16340  0.31400  Biso   1.000  C
  C9       1.0000 0.25330  0.44250  0.86140  Biso   1.000  C
  C10      1.0000 0.75330  0.94250  0.86140  Biso   1.000  C
  C11      1.0000 0.74670  0.44250  0.63860  Biso   1.000  C
  C12      1.0000 0.24670  0.94250  0.63860  Biso   1.000  C
  C13      1.0000 0.74670  0.55750  0.13860  Biso   1.000  C
  C14      1.0000 0.24670  0.05750  0.13860  Biso   1.000  C
  C15      1.0000 0.25330  0.55750  0.36140  Biso   1.000  C
  C16      1.0000 0.75330  0.05750  0.36140  Biso   1.000  C
  H1       1.0000 0.20950  0.41690  0.94880  Biso   1.000  H
  H2       1.0000 0.70950  0.91690  0.94880  Biso   1.000  H
  H3       1.0000 0.79050  0.41690  0.55120  Biso   1.000  H
  H4       1.0000 0.29050  0.91690  0.55120  Biso   1.000  H
  H5       1.0000 0.79050  0.58310  0.05120  Biso   1.000  H
  H6       1.0000 0.29050  0.08310  0.05120  Biso   1.000  H
  H7       1.0000 0.20950  0.58310  0.44880  Biso   1.000  H
  H8       1.0000 0.70950  0.08310  0.44880  Biso   1.000  H
  H9       1.0000 0.20350  0.46560  0.77380  Biso   1.000  H
  H10      1.0000 0.70350  0.96560  0.77380  Biso   1.000  H
  H11      1.0000 0.79650  0.46560  0.72620  Biso   1.000  H
  H12      1.0000 0.29650  0.96560  0.72620  Biso   1.000  H
  H13      1.0000 0.79650  0.53440  0.22620  Biso   1.000  H
  H14      1.0000 0.29650  0.03440  0.22620  Biso   1.000  H
  H15      1.0000 0.20350  0.53440  0.27380  Biso   1.000  H
  H16      1.0000 0.70350  0.03440  0.27380  Biso   1.000  H
  C17      1.0000 0.32280  0.55500  0.91040  Biso   1.000  C
  C18      1.0000 0.82280  0.05500  0.91040  Biso   1.000  C
  C19      1.0000 0.67720  0.55500  0.58960  Biso   1.000  C
  C20      1.0000 0.17720  0.05500  0.58960  Biso   1.000  C
  C21      1.0000 0.67720  0.44500  0.08960  Biso   1.000  C
  C22      1.0000 0.17720  0.94500  0.08960  Biso   1.000  C
  C23      1.0000 0.32280  0.44500  0.41040  Biso   1.000  C
  C24      1.0000 0.82280  0.94500  0.41040  Biso   1.000  C
  H17      1.0000 0.27620  0.62420  0.93980  Biso   1.000  H
  H18      1.0000 0.77620  0.12420  0.93980  Biso   1.000  H
  H19      1.0000 0.72380  0.62420  0.56020  Biso   1.000  H
  H20      1.0000 0.22380  0.12420  0.56020  Biso   1.000  H
  H21      1.0000 0.72380  0.37580  0.06020  Biso   1.000  H
  H22      1.0000 0.22380  0.87580  0.06020  Biso   1.000  H
  H23      1.0000 0.27620  0.37580  0.43980  Biso   1.000  H
  H24      1.0000 0.77620  0.87580  0.43980  Biso   1.000  H
  H25      1.0000 0.37120  0.53400  0.00040  Biso   1.000  H
  H26      1.0000 0.87120  0.03400  0.00040  Biso   1.000  H
  H27      1.0000 0.62880  0.53400  0.49960  Biso   1.000  H
  H28      1.0000 0.12880  0.03400  0.49960  Biso   1.000  H
  H29      1.0000 0.62880  0.46600  0.99960  Biso   1.000  H
  H30      1.0000 0.12880  0.96600  0.99960  Biso   1.000  H
  H31      1.0000 0.37120  0.46600  0.50040  Biso   1.000  H
  H32      1.0000 0.87120  0.96600  0.50040  Biso   1.000  H
  C25      1.0000 0.45850  0.68830  0.80980  Biso   1.000  C
  C26      1.0000 0.95850  0.18830  0.80980  Biso   1.000  C
  C27      1.0000 0.54150  0.68830  0.69020  Biso   1.000  C
  C28      1.0000 0.04150  0.18830  0.69020  Biso   1.000  C
  C29      1.0000 0.54150  0.31170  0.19020  Biso   1.000  C
  C30      1.0000 0.04150  0.81170  0.19020  Biso   1.000  C
  C31      1.0000 0.45850  0.31170  0.30980  Biso   1.000  C
  C32      1.0000 0.95850  0.81170  0.30980  Biso   1.000  C
  H33      1.0000 0.49370  0.67880  0.91400  Biso   1.000  H
  H34      1.0000 0.99370  0.17880  0.91400  Biso   1.000  H
  H35      1.0000 0.50630  0.67880  0.58600  Biso   1.000  H
  H36      1.0000 0.00630  0.17880  0.58600  Biso   1.000  H
  H37      1.0000 0.50630  0.32120  0.08600  Biso   1.000  H
  H38      1.0000 0.00630  0.82120  0.08600  Biso   1.000  H
  H39      1.0000 0.49370  0.32120  0.41400  Biso   1.000  H
  H40      1.0000 0.99370  0.82120  0.41400  Biso   1.000  H
  H41      1.0000 0.41900  0.76730  0.80680  Biso   1.000  H
  H42      1.0000 0.91900  0.26730  0.80680  Biso   1.000  H
  H43      1.0000 0.58100  0.76730  0.69320  Biso   1.000  H
  H44      1.0000 0.08100  0.26730  0.69320  Biso   1.000  H
  H45      1.0000 0.58100  0.23270  0.19320  Biso   1.000  H
  H46      1.0000 0.08100  0.73270  0.19320  Biso   1.000  H
  H47      1.0000 0.41900  0.23270  0.30680  Biso   1.000  H
  H48      1.0000 0.91900  0.73270  0.30680  Biso   1.000  H
  C33      1.0000 0.50110  0.03320  0.94400  Biso   1.000  C
  C34      1.0000 0.00110  0.53320  0.94400  Biso   1.000  C
  C35      1.0000 0.49890  0.03320  0.55600  Biso   1.000  C
  C36      1.0000 0.99890  0.53320  0.55600  Biso   1.000  C
  C37      1.0000 0.49890  0.96680  0.05600  Biso   1.000  C
  C38      1.0000 0.99890  0.46680  0.05600  Biso   1.000  C
  C39      1.0000 0.50110  0.96680  0.44400  Biso   1.000  C
  C40      1.0000 0.00110  0.46680  0.44400  Biso   1.000  C
