data_image0
_cell_length_a       5.858
_cell_length_b       22.09
_cell_length_c       8.212
_cell_angle_alpha    90
_cell_angle_beta     109.255
_cell_angle_gamma    90

_symmetry_space_group_name_H-M    "P 1"
_symmetry_int_tables_number       1

loop_
  _symmetry_equiv_pos_as_xyz
  'x, y, z'

loop_
  _atom_site_label
  _atom_site_occupancy
  _atom_site_fract_x
  _atom_site_fract_y
  _atom_site_fract_z
  _atom_site_thermal_displace_type
  _atom_site_B_iso_or_equiv
  _atom_site_type_symbol
  Cu1      1.0000 0.71214  0.53306  0.70560  Biso   1.000  Cu
  Cu2      1.0000 0.28786  0.03306  0.79440  Biso   1.000  Cu
  Cu3      1.0000 0.28786  0.46694  0.29440  Biso   1.000  Cu
  Cu4      1.0000 0.71214  0.96694  0.20560  Biso   1.000  Cu
  N1       1.0000 0.41320  0.50890  0.73100  Biso   1.000  N
  N2       1.0000 0.58680  0.00890  0.76900  Biso   1.000  N
  N3       1.0000 0.58680  0.49110  0.26900  Biso   1.000  N
  N4       1.0000 0.41320  0.99110  0.23100  Biso   1.000  N
  N5       1.0000 0.03940  0.51300  0.74310  Biso   1.000  N
  N6       1.0000 0.96060  0.01300  0.75690  Biso   1.000  N
  N7       1.0000 0.96060  0.48700  0.25690  Biso   1.000  N
  N8       1.0000 0.03940  0.98700  0.24310  Biso   1.000  N
  N9       1.0000 0.26090  0.61710  0.48300  Biso   1.000  N
  N10      1.0000 0.73910  0.11710  0.01700  Biso   1.000  N
  N11      1.0000 0.73910  0.38290  0.51700  Biso   1.000  N
  N12      1.0000 0.26090  0.88290  0.98300  Biso   1.000  N
  N13      1.0000 0.00940  0.55320  0.67770  Biso   1.000  N
  N14      1.0000 0.99060  0.05320  0.82230  Biso   1.000  N
  N15      1.0000 0.99060  0.44680  0.32230  Biso   1.000  N
  N16      1.0000 0.00940  0.94680  0.17770  Biso   1.000  N
  N17      1.0000 0.38620  0.55470  0.67230  Biso   1.000  N
  N18      1.0000 0.61380  0.05470  0.82770  Biso   1.000  N
  N19      1.0000 0.61380  0.44530  0.32770  Biso   1.000  N
  N20      1.0000 0.38620  0.94530  0.17230  Biso   1.000  N
  N21      1.0000 0.13880  0.44680  0.90320  Biso   1.000  N
  N22      1.0000 0.86120  0.94680  0.59680  Biso   1.000  N
  N23      1.0000 0.86120  0.55320  0.09680  Biso   1.000  N
  N24      1.0000 0.13880  0.05320  0.40320  Biso   1.000  N
  C1       1.0000 0.37510  0.45740  0.80910  Biso   1.000  C
  C2       1.0000 0.62490  0.95740  0.69090  Biso   1.000  C
  C3       1.0000 0.62490  0.54260  0.19090  Biso   1.000  C
  C4       1.0000 0.37510  0.04260  0.30910  Biso   1.000  C
  C5       1.0000 0.52260  0.40860  0.88320  Biso   1.000  C
  C6       1.0000 0.47740  0.90860  0.61680  Biso   1.000  C
  C7       1.0000 0.47740  0.59140  0.11680  Biso   1.000  C
  C8       1.0000 0.52260  0.09140  0.38320  Biso   1.000  C
  C9       1.0000 0.43720  0.36320  0.96530  Biso   1.000  C
  C10      1.0000 0.56280  0.86320  0.53470  Biso   1.000  C
  C11      1.0000 0.56280  0.63680  0.03470  Biso   1.000  C
  C12      1.0000 0.43720  0.13680  0.46530  Biso   1.000  C
  C13      1.0000 0.20430  0.36670  0.97340  Biso   1.000  C
  C14      1.0000 0.79570  0.86670  0.52660  Biso   1.000  C
  C15      1.0000 0.79570  0.63330  0.02660  Biso   1.000  C
  C16      1.0000 0.20430  0.13330  0.47340  Biso   1.000  C
  C17      1.0000 0.05670  0.41550  0.89930  Biso   1.000  C
  C18      1.0000 0.94330  0.91550  0.60070  Biso   1.000  C
  C19      1.0000 0.94330  0.58450  0.10070  Biso   1.000  C
  C20      1.0000 0.05670  0.08450  0.39930  Biso   1.000  C
  C21      1.0000 0.14210  0.46080  0.81720  Biso   1.000  C
  C22      1.0000 0.85790  0.96080  0.68280  Biso   1.000  C
  C23      1.0000 0.85790  0.53920  0.18280  Biso   1.000  C
  C24      1.0000 0.14210  0.03920  0.31720  Biso   1.000  C
  C25      1.0000 0.21000  0.54150  0.69530  Biso   1.000  C
  C26      1.0000 0.79000  0.04150  0.80470  Biso   1.000  C
  C27      1.0000 0.79000  0.45850  0.30470  Biso   1.000  C
  C28      1.0000 0.21000  0.95850  0.19530  Biso   1.000  C
  C29      1.0000 0.17230  0.60110  0.61470  Biso   1.000  C
  C30      1.0000 0.82770  0.10110  0.88530  Biso   1.000  C
  C31      1.0000 0.82770  0.39890  0.38530  Biso   1.000  C
  C32      1.0000 0.17230  0.89890  0.11470  Biso   1.000  C
  C33      1.0000 0.04110  0.64280  0.67480  Biso   1.000  C
  C34      1.0000 0.95890  0.14280  0.82520  Biso   1.000  C
  C35      1.0000 0.95890  0.35720  0.32520  Biso   1.000  C
  C36      1.0000 0.04110  0.85720  0.17480  Biso   1.000  C
  C37      1.0000 0.99840  0.70040  0.60340  Biso   1.000  C
  C38      1.0000 0.00160  0.20040  0.89660  Biso   1.000  C
  C39      1.0000 0.00160  0.29960  0.39660  Biso   1.000  C
  C40      1.0000 0.99840  0.79960  0.10340  Biso   1.000  C
  C41      1.0000 0.08700  0.71640  0.47170  Biso   1.000  C
  C42      1.0000 0.91300  0.21640  0.02830  Biso   1.000  C
  C43      1.0000 0.91300  0.28360  0.52830  Biso   1.000  C
  C44      1.0000 0.08700  0.78360  0.97170  Biso   1.000  C
  C45      1.0000 0.21820  0.67480  0.41160  Biso   1.000  C
  C46      1.0000 0.78180  0.17480  0.08840  Biso   1.000  C
  C47      1.0000 0.78180  0.32520  0.58840  Biso   1.000  C
  C48      1.0000 0.21820  0.82520  0.91160  Biso   1.000  C
  C49      1.0000 0.04650  0.60740  0.61410  Biso   1.000  C
  C50      1.0000 0.95350  0.10740  0.88590  Biso   1.000  C
  C51      1.0000 0.95350  0.39260  0.38590  Biso   1.000  C
  C52      1.0000 0.04650  0.89260  0.11410  Biso   1.000  C
  C53      1.0000 0.89480  0.65660  0.55180  Biso   1.000  C
  C54      1.0000 0.10520  0.15660  0.94820  Biso   1.000  C
  C55      1.0000 0.10520  0.34340  0.44820  Biso   1.000  C
  C56      1.0000 0.89480  0.84340  0.05180  Biso   1.000  C
  C57      1.0000 0.97940  0.70690  0.48750  Biso   1.000  C
  C58      1.0000 0.02060  0.20690  0.01250  Biso   1.000  C
  C59      1.0000 0.02060  0.29310  0.51250  Biso   1.000  C
  C60      1.0000 0.97940  0.79310  0.98750  Biso   1.000  C
  C61      1.0000 0.21570  0.70800  0.48560  Biso   1.000  C
  C62      1.0000 0.78430  0.20800  0.01440  Biso   1.000  C
  C63      1.0000 0.78430  0.29200  0.51440  Biso   1.000  C
  C64      1.0000 0.21570  0.79200  0.98560  Biso   1.000  C
  C65      1.0000 0.36750  0.65890  0.54790  Biso   1.000  C
  C66      1.0000 0.63250  0.15890  0.95210  Biso   1.000  C
  C67      1.0000 0.63250  0.34110  0.45210  Biso   1.000  C
  C68      1.0000 0.36750  0.84110  0.04790  Biso   1.000  C
  C69      1.0000 0.28290  0.60850  0.61210  Biso   1.000  C
  C70      1.0000 0.71710  0.10850  0.88790  Biso   1.000  C
  C71      1.0000 0.71710  0.39150  0.38790  Biso   1.000  C
  C72      1.0000 0.28290  0.89150  0.11210  Biso   1.000  C
  C73      1.0000 0.21700  0.52250  0.71000  Biso   1.000  C
  C74      1.0000 0.78300  0.02250  0.79000  Biso   1.000  C
  C75      1.0000 0.78300  0.47750  0.29000  Biso   1.000  C
  C76      1.0000 0.21700  0.97750  0.21000  Biso   1.000  C
  C77      1.0000 0.25540  0.46160  0.78610  Biso   1.000  C
  C78      1.0000 0.74460  0.96160  0.71390  Biso   1.000  C
  C79      1.0000 0.74460  0.53840  0.21390  Biso   1.000  C
  C80      1.0000 0.25540  0.03840  0.28610  Biso   1.000  C
  C81      1.0000 0.40060  0.41910  0.74270  Biso   1.000  C
  C82      1.0000 0.59940  0.91910  0.75730  Biso   1.000  C
  C83      1.0000 0.59940  0.58090  0.25730  Biso   1.000  C
  C84      1.0000 0.40060  0.08090  0.24270  Biso   1.000  C
  C85      1.0000 0.42900  0.36170  0.81630  Biso   1.000  C
  C86      1.0000 0.57100  0.86170  0.68370  Biso   1.000  C
  C87      1.0000 0.57100  0.63830  0.18370  Biso   1.000  C
  C88      1.0000 0.42900  0.13830  0.31630  Biso   1.000  C
  C89      1.0000 0.31230  0.34690  0.93340  Biso   1.000  C
  C90      1.0000 0.68770  0.84690  0.56660  Biso   1.000  C
  C91      1.0000 0.68770  0.65310  0.06660  Biso   1.000  C
  C92      1.0000 0.31230  0.15310  0.43340  Biso   1.000  C
  C93      1.0000 0.16720  0.38940  0.97680  Biso   1.000  C
  C94      1.0000 0.83280  0.88940  0.52320  Biso   1.000  C
  C95      1.0000 0.83280  0.61060  0.02320  Biso   1.000  C
  C96      1.0000 0.16720  0.11060  0.47680  Biso   1.000  C
  H1       1.0000 0.67840  0.40630  0.87770  Biso   1.000  H
  H2       1.0000 0.32160  0.90630  0.62230  Biso   1.000  H
  H3       1.0000 0.32160  0.59370  0.12230  Biso   1.000  H
  H4       1.0000 0.67840  0.09370  0.37770  Biso   1.000  H
  H5       1.0000 0.53590  0.33060  0.01480  Biso   1.000  H
  H6       1.0000 0.46410  0.83060  0.48520  Biso   1.000  H
  H7       1.0000 0.46410  0.66940  0.98520  Biso   1.000  H
  H8       1.0000 0.53590  0.16940  0.51480  Biso   1.000  H
  H9       1.0000 0.14710  0.33630  0.02830  Biso   1.000  H
  H10      1.0000 0.85290  0.83630  0.47170  Biso   1.000  H
  H11      1.0000 0.85290  0.66370  0.97170  Biso   1.000  H
  H12      1.0000 0.14710  0.16370  0.52830  Biso   1.000  H
  H13      1.0000 0.90090  0.41780  0.90470  Biso   1.000  H
  H14      1.0000 0.09910  0.91780  0.59530  Biso   1.000  H
  H15      1.0000 0.09910  0.58220  0.09530  Biso   1.000  H
  H16      1.0000 0.90090  0.08220  0.40470  Biso   1.000  H
  H17      1.0000 0.98190  0.63210  0.76290  Biso   1.000  H
  H18      1.0000 0.01810  0.13210  0.73710  Biso   1.000  H
  H19      1.0000 0.01810  0.36790  0.23710  Biso   1.000  H
  H20      1.0000 0.98190  0.86790  0.26290  Biso   1.000  H
  H21      1.0000 0.91060  0.72830  0.64360  Biso   1.000  H
  H22      1.0000 0.08940  0.22830  0.85640  Biso   1.000  H
  H23      1.0000 0.08940  0.27170  0.35640  Biso   1.000  H
  H24      1.0000 0.91060  0.77170  0.14360  Biso   1.000  H
  H25      1.0000 0.05840  0.75500  0.42390  Biso   1.000  H
  H26      1.0000 0.94160  0.25500  0.07610  Biso   1.000  H
  H27      1.0000 0.94160  0.24500  0.57610  Biso   1.000  H
  H28      1.0000 0.05840  0.74500  0.92390  Biso   1.000  H
  H29      1.0000 0.27740  0.68550  0.32350  Biso   1.000  H
  H30      1.0000 0.72260  0.18550  0.17650  Biso   1.000  H
  H31      1.0000 0.72260  0.31450  0.67650  Biso   1.000  H
  H32      1.0000 0.27740  0.81450  0.82350  Biso   1.000  H
  H33      1.0000 0.73670  0.65580  0.55300  Biso   1.000  H
  H34      1.0000 0.26330  0.15580  0.94700  Biso   1.000  H
  H35      1.0000 0.26330  0.34420  0.44700  Biso   1.000  H
  H36      1.0000 0.73670  0.84420  0.05300  Biso   1.000  H
  H37      1.0000 0.87790  0.73980  0.44580  Biso   1.000  H
  H38      1.0000 0.12210  0.23980  0.05420  Biso   1.000  H
  H39      1.0000 0.12210  0.26020  0.55420  Biso   1.000  H
  H40      1.0000 0.87790  0.76020  0.94580  Biso   1.000  H
  H41      1.0000 0.27230  0.74170  0.44260  Biso   1.000  H
  H42      1.0000 0.72770  0.24170  0.05740  Biso   1.000  H
  H43      1.0000 0.72770  0.25830  0.55740  Biso   1.000  H
  H44      1.0000 0.27230  0.75830  0.94260  Biso   1.000  H
  H45      1.0000 0.52560  0.65960  0.54660  Biso   1.000  H
  H46      1.0000 0.47440  0.15960  0.95340  Biso   1.000  H
  H47      1.0000 0.47440  0.34040  0.45340  Biso   1.000  H
  H48      1.0000 0.52560  0.84040  0.04660  Biso   1.000  H
  H49      1.0000 0.47860  0.42900  0.66440  Biso   1.000  H
  H50      1.0000 0.52140  0.92900  0.83560  Biso   1.000  H
  H51      1.0000 0.52140  0.57100  0.33560  Biso   1.000  H
  H52      1.0000 0.47860  0.07100  0.16440  Biso   1.000  H
  H53      1.0000 0.52610  0.33330  0.78730  Biso   1.000  H
  H54      1.0000 0.47390  0.83330  0.71270  Biso   1.000  H
  H55      1.0000 0.47390  0.66670  0.21270  Biso   1.000  H
  H56      1.0000 0.52610  0.16670  0.28730  Biso   1.000  H
  H57      1.0000 0.33130  0.30850  0.98260  Biso   1.000  H
  H58      1.0000 0.66870  0.80850  0.51740  Biso   1.000  H
  H59      1.0000 0.66870  0.69150  0.01740  Biso   1.000  H
  H60      1.0000 0.33130  0.19150  0.48260  Biso   1.000  H
  H61      1.0000 0.08910  0.37950  0.05510  Biso   1.000  H
  H62      1.0000 0.91090  0.87950  0.44490  Biso   1.000  H
  H63      1.0000 0.91090  0.62050  0.94490  Biso   1.000  H
  H64      1.0000 0.08910  0.12050  0.55510  Biso   1.000  H
