data_image0
_cell_length_a       12.814
_cell_length_b       12.814
_cell_length_c       9.338
_cell_angle_alpha    90
_cell_angle_beta     90
_cell_angle_gamma    120

_symmetry_space_group_name_H-M    "P 1"
_symmetry_int_tables_number       1

loop_
  _symmetry_equiv_pos_as_xyz
  'x, y, z'

loop_
  _atom_site_label
  _atom_site_occupancy
  _atom_site_fract_x
  _atom_site_fract_y
  _atom_site_fract_z
  _atom_site_thermal_displace_type
  _atom_site_B_iso_or_equiv
  _atom_site_type_symbol
  La1      1.0000 0.66670  0.33330  0.25000  Biso   1.000  La
  La2      1.0000 0.33330  0.66670  0.75000  Biso   1.000  La
  Cu1      1.0000 0.33330  0.66670  0.25000  Biso   1.000  Cu
  Cu2      1.0000 0.66670  0.33330  0.75000  Biso   1.000  Cu
  O1       1.0000 0.72390  0.22080  0.07060  Biso   1.000  O
  O2       1.0000 0.77920  0.50310  0.07060  Biso   1.000  O
  O3       1.0000 0.49690  0.27610  0.07060  Biso   1.000  O
  O4       1.0000 0.49690  0.22080  0.42940  Biso   1.000  O
  O5       1.0000 0.72390  0.50310  0.42940  Biso   1.000  O
  O6       1.0000 0.77920  0.27610  0.42940  Biso   1.000  O
  O7       1.0000 0.27610  0.77920  0.92940  Biso   1.000  O
  O8       1.0000 0.22080  0.49690  0.92940  Biso   1.000  O
  O9       1.0000 0.50310  0.72390  0.92940  Biso   1.000  O
  O10      1.0000 0.50310  0.77920  0.57060  Biso   1.000  O
  O11      1.0000 0.27610  0.49690  0.57060  Biso   1.000  O
  O12      1.0000 0.22080  0.72390  0.57060  Biso   1.000  O
  O13      1.0000 0.71480  0.05740  0.97860  Biso   1.000  O
  O14      1.0000 0.94260  0.65740  0.97860  Biso   1.000  O
  O15      1.0000 0.34260  0.28520  0.97860  Biso   1.000  O
  O16      1.0000 0.34260  0.05740  0.52140  Biso   1.000  O
  O17      1.0000 0.71480  0.65740  0.52140  Biso   1.000  O
  O18      1.0000 0.94260  0.28520  0.52140  Biso   1.000  O
  O19      1.0000 0.28520  0.94260  0.02140  Biso   1.000  O
  O20      1.0000 0.05740  0.34260  0.02140  Biso   1.000  O
  O21      1.0000 0.65740  0.71480  0.02140  Biso   1.000  O
  O22      1.0000 0.65740  0.94260  0.47860  Biso   1.000  O
  O23      1.0000 0.28520  0.34260  0.47860  Biso   1.000  O
  O24      1.0000 0.05740  0.71480  0.47860  Biso   1.000  O
  N1       1.0000 0.54750  0.09500  0.25000  Biso   1.000  N
  N2       1.0000 0.90500  0.45250  0.25000  Biso   1.000  N
  N3       1.0000 0.54750  0.45250  0.25000  Biso   1.000  N
  N4       1.0000 0.45250  0.90500  0.75000  Biso   1.000  N
  N5       1.0000 0.09500  0.54750  0.75000  Biso   1.000  N
  N6       1.0000 0.45250  0.54750  0.75000  Biso   1.000  N
  N7       1.0000 0.42230  0.84470  0.25000  Biso   1.000  N
  N8       1.0000 0.15530  0.57760  0.25000  Biso   1.000  N
  N9       1.0000 0.42240  0.57770  0.25000  Biso   1.000  N
  N10      1.0000 0.57770  0.15530  0.75000  Biso   1.000  N
  N11      1.0000 0.84470  0.42240  0.75000  Biso   1.000  N
  N12      1.0000 0.57760  0.42230  0.75000  Biso   1.000  N
  C1       1.0000 0.68200  0.11020  0.06110  Biso   1.000  C
  C2       1.0000 0.88980  0.57180  0.06110  Biso   1.000  C
  C3       1.0000 0.42820  0.31800  0.06110  Biso   1.000  C
  C4       1.0000 0.42820  0.11020  0.43890  Biso   1.000  C
  C5       1.0000 0.68200  0.57180  0.43890  Biso   1.000  C
  C6       1.0000 0.88980  0.31800  0.43890  Biso   1.000  C
  C7       1.0000 0.31800  0.88980  0.93890  Biso   1.000  C
  C8       1.0000 0.11020  0.42820  0.93890  Biso   1.000  C
  C9       1.0000 0.57180  0.68200  0.93890  Biso   1.000  C
  C10      1.0000 0.57180  0.88980  0.56110  Biso   1.000  C
  C11      1.0000 0.31800  0.42820  0.56110  Biso   1.000  C
  C12      1.0000 0.11020  0.68200  0.56110  Biso   1.000  C
  C13      1.0000 0.57710  0.03240  0.16260  Biso   1.000  C
  C14      1.0000 0.96760  0.54470  0.16260  Biso   1.000  C
  C15      1.0000 0.45530  0.42290  0.16260  Biso   1.000  C
  C16      1.0000 0.45530  0.03240  0.33740  Biso   1.000  C
  C17      1.0000 0.57710  0.54470  0.33740  Biso   1.000  C
  C18      1.0000 0.96760  0.42290  0.33740  Biso   1.000  C
  C19      1.0000 0.42290  0.96760  0.83740  Biso   1.000  C
  C20      1.0000 0.03240  0.45530  0.83740  Biso   1.000  C
  C21      1.0000 0.54470  0.57710  0.83740  Biso   1.000  C
  C22      1.0000 0.54470  0.96760  0.66260  Biso   1.000  C
  C23      1.0000 0.42290  0.45530  0.66260  Biso   1.000  C
  C24      1.0000 0.03240  0.57710  0.66260  Biso   1.000  C
  C25      1.0000 0.51530  0.90860  0.16100  Biso   1.000  C
  C26      1.0000 0.09140  0.60670  0.16100  Biso   1.000  C
  C27      1.0000 0.39330  0.48470  0.16100  Biso   1.000  C
  C28      1.0000 0.39330  0.90860  0.33900  Biso   1.000  C
  C29      1.0000 0.51530  0.60670  0.33900  Biso   1.000  C
  C30      1.0000 0.09140  0.48470  0.33900  Biso   1.000  C
  C31      1.0000 0.48470  0.09140  0.83900  Biso   1.000  C
  C32      1.0000 0.90860  0.39330  0.83900  Biso   1.000  C
  C33      1.0000 0.60670  0.51530  0.83900  Biso   1.000  C
  C34      1.0000 0.60670  0.09140  0.66100  Biso   1.000  C
  C35      1.0000 0.48470  0.39330  0.66100  Biso   1.000  C
  C36      1.0000 0.90860  0.51530  0.66100  Biso   1.000  C
  H1       1.0000 0.53840  0.86820  0.09710  Biso   1.000  H
  H2       1.0000 0.13180  0.67020  0.09710  Biso   1.000  H
  H3       1.0000 0.32980  0.46160  0.09710  Biso   1.000  H
  H4       1.0000 0.32980  0.86820  0.40290  Biso   1.000  H
  H5       1.0000 0.53840  0.67020  0.40290  Biso   1.000  H
  H6       1.0000 0.13180  0.46160  0.40290  Biso   1.000  H
  H7       1.0000 0.46160  0.13180  0.90290  Biso   1.000  H
  H8       1.0000 0.86820  0.32980  0.90290  Biso   1.000  H
  H9       1.0000 0.67020  0.53840  0.90290  Biso   1.000  H
  H10      1.0000 0.67020  0.13180  0.59710  Biso   1.000  H
  H11      1.0000 0.46160  0.32980  0.59710  Biso   1.000  H
  H12      1.0000 0.86820  0.53840  0.59710  Biso   1.000  H
  La3      1.0000 0.00000  0.00000  0.25000  Biso   1.000  La
  La4      1.0000 0.00000  0.00000  0.75000  Biso   1.000  La
  O25      1.0000 0.75520  0.87760  0.25000  Biso   1.000  O
  O26      1.0000 0.12240  0.87760  0.25000  Biso   1.000  O
  O27      1.0000 0.12240  0.24480  0.25000  Biso   1.000  O
  O28      1.0000 0.24480  0.12240  0.75000  Biso   1.000  O
  O29      1.0000 0.87760  0.12240  0.75000  Biso   1.000  O
  O30      1.0000 0.87760  0.75520  0.75000  Biso   1.000  O
  O31      1.0000 0.85310  0.90880  0.45980  Biso   1.000  O
  O32      1.0000 0.09120  0.94430  0.45980  Biso   1.000  O
  O33      1.0000 0.05570  0.14690  0.45980  Biso   1.000  O
  O34      1.0000 0.05570  0.90880  0.04020  Biso   1.000  O
  O35      1.0000 0.85310  0.94430  0.04020  Biso   1.000  O
  O36      1.0000 0.09120  0.14690  0.04020  Biso   1.000  O
  O37      1.0000 0.14690  0.09120  0.54020  Biso   1.000  O
  O38      1.0000 0.90880  0.05570  0.54020  Biso   1.000  O
  O39      1.0000 0.94430  0.85310  0.54020  Biso   1.000  O
  O40      1.0000 0.94430  0.09120  0.95980  Biso   1.000  O
  O41      1.0000 0.14690  0.05570  0.95980  Biso   1.000  O
  O42      1.0000 0.90880  0.85310  0.95980  Biso   1.000  O
  O43      1.0000 0.86200  0.78200  0.19400  Biso   1.000  O
  O44      1.0000 0.21800  0.08000  0.19400  Biso   1.000  O
  O45      1.0000 0.92000  0.13800  0.19400  Biso   1.000  O
  O46      1.0000 0.92000  0.78200  0.30600  Biso   1.000  O
  O47      1.0000 0.86200  0.08000  0.30600  Biso   1.000  O
  O48      1.0000 0.21800  0.13800  0.30600  Biso   1.000  O
  O49      1.0000 0.13800  0.21800  0.80600  Biso   1.000  O
  O50      1.0000 0.78200  0.92000  0.80600  Biso   1.000  O
  O51      1.0000 0.08000  0.86200  0.80600  Biso   1.000  O
  O52      1.0000 0.08000  0.21800  0.69400  Biso   1.000  O
  O53      1.0000 0.13800  0.92000  0.69400  Biso   1.000  O
  O54      1.0000 0.78200  0.86200  0.69400  Biso   1.000  O
  O55      1.0000 0.91000  0.83700  0.08000  Biso   1.000  O
  O56      1.0000 0.16300  0.07300  0.08000  Biso   1.000  O
  O57      1.0000 0.92700  0.09000  0.08000  Biso   1.000  O
  O58      1.0000 0.92700  0.83700  0.42000  Biso   1.000  O
  O59      1.0000 0.91000  0.07300  0.42000  Biso   1.000  O
  O60      1.0000 0.16300  0.09000  0.42000  Biso   1.000  O
  O61      1.0000 0.09000  0.16300  0.92000  Biso   1.000  O
  O62      1.0000 0.83700  0.92700  0.92000  Biso   1.000  O
  O63      1.0000 0.07300  0.91000  0.92000  Biso   1.000  O
  O64      1.0000 0.07300  0.16300  0.58000  Biso   1.000  O
  O65      1.0000 0.09000  0.92700  0.58000  Biso   1.000  O
  O66      1.0000 0.83700  0.91000  0.58000  Biso   1.000  O
