data_image0
_cell_length_a       12.6203
_cell_length_b       12.6203
_cell_length_c       9.4547
_cell_angle_alpha    90
_cell_angle_beta     90
_cell_angle_gamma    120

_symmetry_space_group_name_H-M    "P 1"
_symmetry_int_tables_number       1

loop_
  _symmetry_equiv_pos_as_xyz
  'x, y, z'

loop_
  _atom_site_label
  _atom_site_occupancy
  _atom_site_fract_x
  _atom_site_fract_y
  _atom_site_fract_z
  _atom_site_thermal_displace_type
  _atom_site_B_iso_or_equiv
  _atom_site_type_symbol
  Gd1      1.0000 0.66670  0.33330  0.25000  Biso   1.000  Gd
  Gd2      1.0000 0.33330  0.66670  0.75000  Biso   1.000  Gd
  Cu1      1.0000 0.33330  0.66670  0.25000  Biso   1.000  Cu
  Cu2      1.0000 0.66670  0.33330  0.75000  Biso   1.000  Cu
  O1       1.0000 0.72960  0.23280  0.07710  Biso   1.000  O
  O2       1.0000 0.76720  0.49680  0.07710  Biso   1.000  O
  O3       1.0000 0.50320  0.27040  0.07710  Biso   1.000  O
  O4       1.0000 0.50320  0.23280  0.42290  Biso   1.000  O
  O5       1.0000 0.72960  0.49680  0.42290  Biso   1.000  O
  O6       1.0000 0.76720  0.27040  0.42290  Biso   1.000  O
  O7       1.0000 0.27040  0.76720  0.92290  Biso   1.000  O
  O8       1.0000 0.23280  0.50320  0.92290  Biso   1.000  O
  O9       1.0000 0.49680  0.72960  0.92290  Biso   1.000  O
  O10      1.0000 0.49680  0.76720  0.57710  Biso   1.000  O
  O11      1.0000 0.27040  0.50320  0.57710  Biso   1.000  O
  O12      1.0000 0.23280  0.72960  0.57710  Biso   1.000  O
  O13      1.0000 0.72090  0.06710  0.97730  Biso   1.000  O
  O14      1.0000 0.93290  0.65380  0.97730  Biso   1.000  O
  O15      1.0000 0.34620  0.27910  0.97730  Biso   1.000  O
  O16      1.0000 0.34620  0.06710  0.52270  Biso   1.000  O
  O17      1.0000 0.72090  0.65380  0.52270  Biso   1.000  O
  O18      1.0000 0.93290  0.27910  0.52270  Biso   1.000  O
  O19      1.0000 0.27910  0.93290  0.02270  Biso   1.000  O
  O20      1.0000 0.06710  0.34620  0.02270  Biso   1.000  O
  O21      1.0000 0.65380  0.72090  0.02270  Biso   1.000  O
  O22      1.0000 0.65380  0.93290  0.47730  Biso   1.000  O
  O23      1.0000 0.27910  0.34620  0.47730  Biso   1.000  O
  O24      1.0000 0.06710  0.72090  0.47730  Biso   1.000  O
  N1       1.0000 0.55080  0.10170  0.25000  Biso   1.000  N
  N2       1.0000 0.89830  0.44910  0.25000  Biso   1.000  N
  N3       1.0000 0.55090  0.44920  0.25000  Biso   1.000  N
  N4       1.0000 0.44920  0.89830  0.75000  Biso   1.000  N
  N5       1.0000 0.10170  0.55090  0.75000  Biso   1.000  N
  N6       1.0000 0.44910  0.55080  0.75000  Biso   1.000  N
  N7       1.0000 0.42450  0.84900  0.25000  Biso   1.000  N
  N8       1.0000 0.15100  0.57550  0.25000  Biso   1.000  N
  N9       1.0000 0.42450  0.57550  0.25000  Biso   1.000  N
  N10      1.0000 0.57550  0.15100  0.75000  Biso   1.000  N
  N11      1.0000 0.84900  0.42450  0.75000  Biso   1.000  N
  N12      1.0000 0.57550  0.42450  0.75000  Biso   1.000  N
  C1       1.0000 0.68690  0.11920  0.06300  Biso   1.000  C
  C2       1.0000 0.88080  0.56770  0.06300  Biso   1.000  C
  C3       1.0000 0.43230  0.31310  0.06300  Biso   1.000  C
  C4       1.0000 0.43230  0.11920  0.43700  Biso   1.000  C
  C5       1.0000 0.68690  0.56770  0.43700  Biso   1.000  C
  C6       1.0000 0.88080  0.31310  0.43700  Biso   1.000  C
  C7       1.0000 0.31310  0.88080  0.93700  Biso   1.000  C
  C8       1.0000 0.11920  0.43230  0.93700  Biso   1.000  C
  C9       1.0000 0.56770  0.68690  0.93700  Biso   1.000  C
  C10      1.0000 0.56770  0.88080  0.56300  Biso   1.000  C
  C11      1.0000 0.31310  0.43230  0.56300  Biso   1.000  C
  C12      1.0000 0.11920  0.68690  0.56300  Biso   1.000  C
  C13      1.0000 0.58120  0.03990  0.16130  Biso   1.000  C
  C14      1.0000 0.96010  0.54130  0.16130  Biso   1.000  C
  C15      1.0000 0.45870  0.41880  0.16130  Biso   1.000  C
  C16      1.0000 0.45870  0.03990  0.33870  Biso   1.000  C
  C17      1.0000 0.58120  0.54130  0.33870  Biso   1.000  C
  C18      1.0000 0.96010  0.41880  0.33870  Biso   1.000  C
  C19      1.0000 0.41880  0.96010  0.83870  Biso   1.000  C
  C20      1.0000 0.03990  0.45870  0.83870  Biso   1.000  C
  C21      1.0000 0.54130  0.58120  0.83870  Biso   1.000  C
  C22      1.0000 0.54130  0.96010  0.66130  Biso   1.000  C
  C23      1.0000 0.41880  0.45870  0.66130  Biso   1.000  C
  C24      1.0000 0.03990  0.58120  0.66130  Biso   1.000  C
  C25      1.0000 0.51840  0.91260  0.16080  Biso   1.000  C
  C26      1.0000 0.08740  0.60580  0.16080  Biso   1.000  C
  C27      1.0000 0.39420  0.48160  0.16080  Biso   1.000  C
  C28      1.0000 0.39420  0.91260  0.33920  Biso   1.000  C
  C29      1.0000 0.51840  0.60580  0.33920  Biso   1.000  C
  C30      1.0000 0.08740  0.48160  0.33920  Biso   1.000  C
  C31      1.0000 0.48160  0.08740  0.83920  Biso   1.000  C
  C32      1.0000 0.91260  0.39420  0.83920  Biso   1.000  C
  C33      1.0000 0.60580  0.51840  0.83920  Biso   1.000  C
  C34      1.0000 0.60580  0.08740  0.66080  Biso   1.000  C
  C35      1.0000 0.48160  0.39420  0.66080  Biso   1.000  C
  C36      1.0000 0.91260  0.51840  0.66080  Biso   1.000  C
  H1       1.0000 0.54160  0.87110  0.09810  Biso   1.000  H
  H2       1.0000 0.12890  0.67050  0.09810  Biso   1.000  H
  H3       1.0000 0.32950  0.45840  0.09810  Biso   1.000  H
  H4       1.0000 0.32950  0.87110  0.40190  Biso   1.000  H
  H5       1.0000 0.54160  0.67050  0.40190  Biso   1.000  H
  H6       1.0000 0.12890  0.45840  0.40190  Biso   1.000  H
  H7       1.0000 0.45840  0.12890  0.90190  Biso   1.000  H
  H8       1.0000 0.87110  0.32950  0.90190  Biso   1.000  H
  H9       1.0000 0.67050  0.54160  0.90190  Biso   1.000  H
  H10      1.0000 0.67050  0.12890  0.59810  Biso   1.000  H
  H11      1.0000 0.45840  0.32950  0.59810  Biso   1.000  H
  H12      1.0000 0.87110  0.54160  0.59810  Biso   1.000  H
  Gd3      1.0000 0.00000  0.00000  0.25000  Biso   1.000  Gd
  Gd4      1.0000 0.00000  0.00000  0.75000  Biso   1.000  Gd
  O25      1.0000 0.76010  0.88010  0.25000  Biso   1.000  O
  O26      1.0000 0.11990  0.88000  0.25000  Biso   1.000  O
  O27      1.0000 0.12000  0.23990  0.25000  Biso   1.000  O
  O28      1.0000 0.23990  0.11990  0.75000  Biso   1.000  O
  O29      1.0000 0.88010  0.12000  0.75000  Biso   1.000  O
  O30      1.0000 0.88000  0.76010  0.75000  Biso   1.000  O
  O31      1.0000 0.92560  0.08500  0.07450  Biso   1.000  O
  O32      1.0000 0.91500  0.84060  0.07450  Biso   1.000  O
  O33      1.0000 0.15940  0.07440  0.07450  Biso   1.000  O
  O34      1.0000 0.15940  0.08500  0.42550  Biso   1.000  O
  O35      1.0000 0.92560  0.84060  0.42550  Biso   1.000  O
  O36      1.0000 0.91500  0.07440  0.42550  Biso   1.000  O
  O37      1.0000 0.07440  0.91500  0.92550  Biso   1.000  O
  O38      1.0000 0.08500  0.15940  0.92550  Biso   1.000  O
  O39      1.0000 0.84060  0.92560  0.92550  Biso   1.000  O
  O40      1.0000 0.84060  0.91500  0.57450  Biso   1.000  O
  O41      1.0000 0.07440  0.15940  0.57450  Biso   1.000  O
  O42      1.0000 0.08500  0.92560  0.57450  Biso   1.000  O
  O43      1.0000 0.06690  0.90980  0.03600  Biso   1.000  O
  O44      1.0000 0.09020  0.15710  0.03600  Biso   1.000  O
  O45      1.0000 0.84290  0.93310  0.03600  Biso   1.000  O
  O46      1.0000 0.84290  0.90980  0.46400  Biso   1.000  O
  O47      1.0000 0.06690  0.15710  0.46400  Biso   1.000  O
  O48      1.0000 0.09020  0.93310  0.46400  Biso   1.000  O
  O49      1.0000 0.93310  0.09020  0.96400  Biso   1.000  O
  O50      1.0000 0.90980  0.84290  0.96400  Biso   1.000  O
  O51      1.0000 0.15710  0.06690  0.96400  Biso   1.000  O
  O52      1.0000 0.15710  0.09020  0.53600  Biso   1.000  O
  O53      1.0000 0.93310  0.84290  0.53600  Biso   1.000  O
  O54      1.0000 0.90980  0.06690  0.53600  Biso   1.000  O
