data_image0
_cell_length_a       12.659
_cell_length_b       12.659
_cell_length_c       9.492
_cell_angle_alpha    90
_cell_angle_beta     90
_cell_angle_gamma    120

_symmetry_space_group_name_H-M    "P 1"
_symmetry_int_tables_number       1

loop_
  _symmetry_equiv_pos_as_xyz
  'x, y, z'

loop_
  _atom_site_label
  _atom_site_occupancy
  _atom_site_fract_x
  _atom_site_fract_y
  _atom_site_fract_z
  _atom_site_thermal_displace_type
  _atom_site_B_iso_or_equiv
  _atom_site_type_symbol
  Eu1      1.0000 0.66670  0.33330  0.25000  Biso   1.000  Eu
  Eu2      1.0000 0.33330  0.66670  0.75000  Biso   1.000  Eu
  Cu1      1.0000 0.33330  0.66670  0.25000  Biso   1.000  Cu
  Cu2      1.0000 0.66670  0.33330  0.75000  Biso   1.000  Cu
  O1       1.0000 0.72900  0.23090  0.07670  Biso   1.000  O
  O2       1.0000 0.76910  0.49810  0.07670  Biso   1.000  O
  O3       1.0000 0.50190  0.27100  0.07670  Biso   1.000  O
  O4       1.0000 0.50190  0.23090  0.42330  Biso   1.000  O
  O5       1.0000 0.72900  0.49810  0.42330  Biso   1.000  O
  O6       1.0000 0.76910  0.27100  0.42330  Biso   1.000  O
  O7       1.0000 0.27100  0.76910  0.92330  Biso   1.000  O
  O8       1.0000 0.23090  0.50190  0.92330  Biso   1.000  O
  O9       1.0000 0.49810  0.72900  0.92330  Biso   1.000  O
  O10      1.0000 0.49810  0.76910  0.57670  Biso   1.000  O
  O11      1.0000 0.27100  0.50190  0.57670  Biso   1.000  O
  O12      1.0000 0.23090  0.72900  0.57670  Biso   1.000  O
  O13      1.0000 0.72020  0.06710  0.97790  Biso   1.000  O
  O14      1.0000 0.93290  0.65310  0.97790  Biso   1.000  O
  O15      1.0000 0.34690  0.27980  0.97790  Biso   1.000  O
  O16      1.0000 0.34690  0.06710  0.52210  Biso   1.000  O
  O17      1.0000 0.72020  0.65310  0.52210  Biso   1.000  O
  O18      1.0000 0.93290  0.27980  0.52210  Biso   1.000  O
  O19      1.0000 0.27980  0.93290  0.02210  Biso   1.000  O
  O20      1.0000 0.06710  0.34690  0.02210  Biso   1.000  O
  O21      1.0000 0.65310  0.72020  0.02210  Biso   1.000  O
  O22      1.0000 0.65310  0.93290  0.47790  Biso   1.000  O
  O23      1.0000 0.27980  0.34690  0.47790  Biso   1.000  O
  O24      1.0000 0.06710  0.72020  0.47790  Biso   1.000  O
  N1       1.0000 0.55080  0.10150  0.25000  Biso   1.000  N
  N2       1.0000 0.89850  0.44930  0.25000  Biso   1.000  N
  N3       1.0000 0.55070  0.44920  0.25000  Biso   1.000  N
  N4       1.0000 0.44920  0.89850  0.75000  Biso   1.000  N
  N5       1.0000 0.10150  0.55070  0.75000  Biso   1.000  N
  N6       1.0000 0.44930  0.55080  0.75000  Biso   1.000  N
  N7       1.0000 0.42450  0.84900  0.25000  Biso   1.000  N
  N8       1.0000 0.15100  0.57550  0.25000  Biso   1.000  N
  N9       1.0000 0.42450  0.57550  0.25000  Biso   1.000  N
  N10      1.0000 0.57550  0.15100  0.75000  Biso   1.000  N
  N11      1.0000 0.84900  0.42450  0.75000  Biso   1.000  N
  N12      1.0000 0.57550  0.42450  0.75000  Biso   1.000  N
  C1       1.0000 0.68650  0.11900  0.06440  Biso   1.000  C
  C2       1.0000 0.88100  0.56750  0.06440  Biso   1.000  C
  C3       1.0000 0.43250  0.31350  0.06440  Biso   1.000  C
  C4       1.0000 0.43250  0.11900  0.43560  Biso   1.000  C
  C5       1.0000 0.68650  0.56750  0.43560  Biso   1.000  C
  C6       1.0000 0.88100  0.31350  0.43560  Biso   1.000  C
  C7       1.0000 0.31350  0.88100  0.93560  Biso   1.000  C
  C8       1.0000 0.11900  0.43250  0.93560  Biso   1.000  C
  C9       1.0000 0.56750  0.68650  0.93560  Biso   1.000  C
  C10      1.0000 0.56750  0.88100  0.56440  Biso   1.000  C
  C11      1.0000 0.31350  0.43250  0.56440  Biso   1.000  C
  C12      1.0000 0.11900  0.68650  0.56440  Biso   1.000  C
  C13      1.0000 0.58070  0.03840  0.16210  Biso   1.000  C
  C14      1.0000 0.96160  0.54230  0.16210  Biso   1.000  C
  C15      1.0000 0.45770  0.41930  0.16210  Biso   1.000  C
  C16      1.0000 0.45770  0.03840  0.33790  Biso   1.000  C
  C17      1.0000 0.58070  0.54230  0.33790  Biso   1.000  C
  C18      1.0000 0.96160  0.41930  0.33790  Biso   1.000  C
  C19      1.0000 0.41930  0.96160  0.83790  Biso   1.000  C
  C20      1.0000 0.03840  0.45770  0.83790  Biso   1.000  C
  C21      1.0000 0.54230  0.58070  0.83790  Biso   1.000  C
  C22      1.0000 0.54230  0.96160  0.66210  Biso   1.000  C
  C23      1.0000 0.41930  0.45770  0.66210  Biso   1.000  C
  C24      1.0000 0.03840  0.58070  0.66210  Biso   1.000  C
  C25      1.0000 0.51810  0.91320  0.16120  Biso   1.000  C
  C26      1.0000 0.08680  0.60490  0.16120  Biso   1.000  C
  C27      1.0000 0.39510  0.48190  0.16120  Biso   1.000  C
  C28      1.0000 0.39510  0.91320  0.33880  Biso   1.000  C
  C29      1.0000 0.51810  0.60490  0.33880  Biso   1.000  C
  C30      1.0000 0.08680  0.48190  0.33880  Biso   1.000  C
  C31      1.0000 0.48190  0.08680  0.83880  Biso   1.000  C
  C32      1.0000 0.91320  0.39510  0.83880  Biso   1.000  C
  C33      1.0000 0.60490  0.51810  0.83880  Biso   1.000  C
  C34      1.0000 0.60490  0.08680  0.66120  Biso   1.000  C
  C35      1.0000 0.48190  0.39510  0.66120  Biso   1.000  C
  C36      1.0000 0.91320  0.51810  0.66120  Biso   1.000  C
  H1       1.0000 0.54080  0.87190  0.09810  Biso   1.000  H
  H2       1.0000 0.12810  0.66890  0.09810  Biso   1.000  H
  H3       1.0000 0.33110  0.45920  0.09810  Biso   1.000  H
  H4       1.0000 0.33110  0.87190  0.40190  Biso   1.000  H
  H5       1.0000 0.54080  0.66890  0.40190  Biso   1.000  H
  H6       1.0000 0.12810  0.45920  0.40190  Biso   1.000  H
  H7       1.0000 0.45920  0.12810  0.90190  Biso   1.000  H
  H8       1.0000 0.87190  0.33110  0.90190  Biso   1.000  H
  H9       1.0000 0.66890  0.54080  0.90190  Biso   1.000  H
  H10      1.0000 0.66890  0.12810  0.59810  Biso   1.000  H
  H11      1.0000 0.45920  0.33110  0.59810  Biso   1.000  H
  H12      1.0000 0.87190  0.54080  0.59810  Biso   1.000  H
  Eu3      1.0000 0.00000  0.00000  0.25000  Biso   1.000  Eu
  Eu4      1.0000 0.00000  0.00000  0.75000  Biso   1.000  Eu
  O25      1.0000 0.75920  0.87960  0.25000  Biso   1.000  O
  O26      1.0000 0.12040  0.87960  0.25000  Biso   1.000  O
  O27      1.0000 0.12040  0.24080  0.25000  Biso   1.000  O
  O28      1.0000 0.24080  0.12040  0.75000  Biso   1.000  O
  O29      1.0000 0.87960  0.12040  0.75000  Biso   1.000  O
  O30      1.0000 0.87960  0.75920  0.75000  Biso   1.000  O
  O31      1.0000 0.92870  0.08510  0.07070  Biso   1.000  O
  O32      1.0000 0.91490  0.84360  0.07070  Biso   1.000  O
  O33      1.0000 0.15640  0.07130  0.07070  Biso   1.000  O
  O34      1.0000 0.15640  0.08510  0.42930  Biso   1.000  O
  O35      1.0000 0.92870  0.84360  0.42930  Biso   1.000  O
  O36      1.0000 0.91490  0.07130  0.42930  Biso   1.000  O
  O37      1.0000 0.07130  0.91490  0.92930  Biso   1.000  O
  O38      1.0000 0.08510  0.15640  0.92930  Biso   1.000  O
  O39      1.0000 0.84360  0.92870  0.92930  Biso   1.000  O
  O40      1.0000 0.84360  0.91490  0.57070  Biso   1.000  O
  O41      1.0000 0.07130  0.15640  0.57070  Biso   1.000  O
  O42      1.0000 0.08510  0.92870  0.57070  Biso   1.000  O
  O43      1.0000 0.92400  0.14600  0.19300  Biso   1.000  O
  O44      1.0000 0.85400  0.77800  0.19300  Biso   1.000  O
  O45      1.0000 0.22200  0.07600  0.19300  Biso   1.000  O
  O46      1.0000 0.22200  0.14600  0.30700  Biso   1.000  O
  O47      1.0000 0.92400  0.77800  0.30700  Biso   1.000  O
  O48      1.0000 0.85400  0.07600  0.30700  Biso   1.000  O
  O49      1.0000 0.07600  0.85400  0.80700  Biso   1.000  O
  O50      1.0000 0.14600  0.22200  0.80700  Biso   1.000  O
  O51      1.0000 0.77800  0.92400  0.80700  Biso   1.000  O
  O52      1.0000 0.77800  0.85400  0.69300  Biso   1.000  O
  O53      1.0000 0.07600  0.22200  0.69300  Biso   1.000  O
  O54      1.0000 0.14600  0.92400  0.69300  Biso   1.000  O
  O55      1.0000 0.06470  0.91100  0.04900  Biso   1.000  O
  O56      1.0000 0.08900  0.15370  0.04900  Biso   1.000  O
  O57      1.0000 0.84630  0.93530  0.04900  Biso   1.000  O
  O58      1.0000 0.84630  0.91100  0.45100  Biso   1.000  O
  O59      1.0000 0.06470  0.15370  0.45100  Biso   1.000  O
  O60      1.0000 0.08900  0.93530  0.45100  Biso   1.000  O
  O61      1.0000 0.93530  0.08900  0.95100  Biso   1.000  O
  O62      1.0000 0.91100  0.84630  0.95100  Biso   1.000  O
  O63      1.0000 0.15370  0.06470  0.95100  Biso   1.000  O
  O64      1.0000 0.15370  0.08900  0.54900  Biso   1.000  O
  O65      1.0000 0.93530  0.84630  0.54900  Biso   1.000  O
  O66      1.0000 0.91100  0.06470  0.54900  Biso   1.000  O
