data_image0
_cell_length_a       9.9
_cell_length_b       13.3
_cell_length_c       19.9
_cell_angle_alpha    89.9
_cell_angle_beta     104
_cell_angle_gamma    110.4

_symmetry_space_group_name_H-M    "P 1"
_symmetry_int_tables_number       1

loop_
  _symmetry_equiv_pos_as_xyz
  'x, y, z'

loop_
  _atom_site_label
  _atom_site_occupancy
  _atom_site_fract_x
  _atom_site_fract_y
  _atom_site_fract_z
  _atom_site_thermal_displace_type
  _atom_site_B_iso_or_equiv
  _atom_site_type_symbol
  Cu1      1.0000 0.03122  0.11029  0.54026  Biso   1.000  Cu
  Cu2      1.0000 0.96878  0.88971  0.45974  Biso   1.000  Cu
  Cu3      1.0000 0.51463  0.39288  0.00954  Biso   1.000  Cu
  Cu4      1.0000 0.48537  0.60712  0.99046  Biso   1.000  Cu
  I1       1.0000 0.35512  0.46806  0.07096  Biso   1.000  I
  I2       1.0000 0.64488  0.53194  0.92904  Biso   1.000  I
  I3       1.0000 0.84193  0.03338  0.41481  Biso   1.000  I
  I4       1.0000 0.15807  0.96662  0.58519  Biso   1.000  I
  S1       1.0000 0.18366  0.22567  0.95705  Biso   1.000  S
  S2       1.0000 0.81634  0.77433  0.04295  Biso   1.000  S
  P1       1.0000 0.68732  0.34556  0.08119  Biso   1.000  P
  P2       1.0000 0.31268  0.65444  0.91881  Biso   1.000  P
  P3       1.0000 0.20722  0.26525  0.53008  Biso   1.000  P
  P4       1.0000 0.79278  0.73475  0.46992  Biso   1.000  P
  N1       1.0000 0.89400  0.10500  0.60427  Biso   1.000  N
  N2       1.0000 0.10600  0.89500  0.39573  Biso   1.000  N
  N3       1.0000 0.35010  0.26690  0.94480  Biso   1.000  N
  N4       1.0000 0.64990  0.73310  0.05520  Biso   1.000  N
  N5       1.0000 0.10330  0.12290  0.90040  Biso   1.000  N
  N6       1.0000 0.89670  0.87710  0.09960  Biso   1.000  N
  C1       1.0000 0.76070  0.11450  0.58010  Biso   1.000  C
  C2       1.0000 0.23930  0.88550  0.41990  Biso   1.000  C
  H1       1.0000 0.72575  0.11632  0.53141  Biso   1.000  H
  H2       1.0000 0.27425  0.88368  0.46859  Biso   1.000  H
  C3       1.0000 0.67150  0.12180  0.62220  Biso   1.000  C
  C4       1.0000 0.32850  0.87820  0.37780  Biso   1.000  C
  H3       1.0000 0.57888  0.13009  0.60246  Biso   1.000  H
  H4       1.0000 0.42112  0.86991  0.39754  Biso   1.000  H
  C5       1.0000 0.71760  0.11700  0.69350  Biso   1.000  C
  C6       1.0000 0.28240  0.88300  0.30650  Biso   1.000  C
  C7       1.0000 0.85340  0.10330  0.71910  Biso   1.000  C
  C8       1.0000 0.14660  0.89670  0.28090  Biso   1.000  C
  H5       1.0000 0.88847  0.09748  0.76720  Biso   1.000  H
  H6       1.0000 0.11153  0.90252  0.23280  Biso   1.000  H
  C9       1.0000 0.93660  0.09840  0.67290  Biso   1.000  C
  C10      1.0000 0.06340  0.90160  0.32710  Biso   1.000  C
  H7       1.0000 0.02954  0.08978  0.69106  Biso   1.000  H
  H8       1.0000 0.97046  0.91022  0.30894  Biso   1.000  H
  C11      1.0000 0.62820  0.12520  0.73830  Biso   1.000  C
  C12      1.0000 0.37180  0.87480  0.26170  Biso   1.000  C
  C13      1.0000 0.54900  0.13190  0.77390  Biso   1.000  C
  C14      1.0000 0.45100  0.86810  0.22610  Biso   1.000  C
  C15      1.0000 0.43970  0.13050  0.81051  Biso   1.000  C
  C16      1.0000 0.56030  0.86950  0.18949  Biso   1.000  C
  C17      1.0000 0.29670  0.04680  0.78590  Biso   1.000  C
  C18      1.0000 0.70330  0.95320  0.21410  Biso   1.000  C
  H9       1.0000 0.28218  0.99570  0.74904  Biso   1.000  H
  H10      1.0000 0.71782  0.00430  0.25096  Biso   1.000  H
  C19      1.0000 0.18100  0.03850  0.81400  Biso   1.000  C
  C20      1.0000 0.81900  0.96150  0.18600  Biso   1.000  C
  H11      1.0000 0.08703  0.98199  0.79773  Biso   1.000  H
  H12      1.0000 0.91297  0.01801  0.20227  Biso   1.000  H
  C21      1.0000 0.20520  0.11670  0.86820  Biso   1.000  C
  C22      1.0000 0.79480  0.88330  0.13180  Biso   1.000  C
  C23      1.0000 0.34730  0.19930  0.89306  Biso   1.000  C
  C24      1.0000 0.65270  0.80070  0.10694  Biso   1.000  C
  C25      1.0000 0.46720  0.20560  0.86402  Biso   1.000  C
  C26      1.0000 0.53280  0.79440  0.13598  Biso   1.000  C
  H13      1.0000 0.56296  0.25978  0.88105  Biso   1.000  H
  H14      1.0000 0.43704  0.74022  0.11895  Biso   1.000  H
  C27      1.0000 0.74390  0.25540  0.03477  Biso   1.000  C
  C28      1.0000 0.25610  0.74460  0.96523  Biso   1.000  C
  C29      1.0000 0.69510  0.14510  0.04200  Biso   1.000  C
  C30      1.0000 0.30490  0.85490  0.95800  Biso   1.000  C
  H15      1.0000 0.64403  0.11780  0.07669  Biso   1.000  H
  H16      1.0000 0.35597  0.88220  0.92331  Biso   1.000  H
  C31      1.0000 0.72020  0.07370  0.99880  Biso   1.000  C
  C32      1.0000 0.27980  0.92630  0.00120  Biso   1.000  C
  H17      1.0000 0.68686  0.99876  0.00432  Biso   1.000  H
  H18      1.0000 0.31314  0.00124  0.99568  Biso   1.000  H
  C33      1.0000 0.79410  0.11350  0.94800  Biso   1.000  C
  C34      1.0000 0.20590  0.88650  0.05200  Biso   1.000  C
  H19      1.0000 0.81008  0.06575  0.91803  Biso   1.000  H
  H20      1.0000 0.18992  0.93425  0.08197  Biso   1.000  H
  C35      1.0000 0.84470  0.22370  0.94110  Biso   1.000  C
  C36      1.0000 0.15530  0.77630  0.05890  Biso   1.000  C
  H21      1.0000 0.89715  0.25085  0.90692  Biso   1.000  H
  H22      1.0000 0.10285  0.74915  0.09308  Biso   1.000  H
  C37      1.0000 0.81950  0.29450  0.98380  Biso   1.000  C
  C38      1.0000 0.18050  0.70550  0.01620  Biso   1.000  C
  H23      1.0000 0.85367  0.36943  0.97819  Biso   1.000  H
  H24      1.0000 0.14633  0.63057  0.02181  Biso   1.000  H
  C39      1.0000 0.85440  0.45720  0.12440  Biso   1.000  C
  C40      1.0000 0.14560  0.54280  0.87560  Biso   1.000  C
  C41      1.0000 0.99860  0.46090  0.13180  Biso   1.000  C
  C42      1.0000 0.00140  0.53910  0.86820  Biso   1.000  C
  H25      1.0000 0.01692  0.40758  0.10743  Biso   1.000  H
  H26      1.0000 0.98308  0.59242  0.89257  Biso   1.000  H
  C43      1.0000 0.11640  0.54320  0.17510  Biso   1.000  C
  C44      1.0000 0.88360  0.45680  0.82490  Biso   1.000  C
  H27      1.0000 0.21548  0.54553  0.18038  Biso   1.000  H
  H28      1.0000 0.78452  0.45447  0.81962  Biso   1.000  H
  C45      1.0000 0.09230  0.62130  0.21050  Biso   1.000  C
  C46      1.0000 0.90770  0.37870  0.78950  Biso   1.000  C
  H29      1.0000 0.17399  0.67613  0.24078  Biso   1.000  H
  H30      1.0000 0.82601  0.32387  0.75922  Biso   1.000  H
  C47      1.0000 0.94820  0.61990  0.20190  Biso   1.000  C
  C48      1.0000 0.05180  0.38010  0.79810  Biso   1.000  C
  H31      1.0000 0.93115  0.67434  0.22569  Biso   1.000  H
  H32      1.0000 0.06885  0.32566  0.77431  Biso   1.000  H
  C49      1.0000 0.83010  0.53930  0.15870  Biso   1.000  C
  C50      1.0000 0.16990  0.46070  0.84130  Biso   1.000  C
  H33      1.0000 0.73172  0.53923  0.15196  Biso   1.000  H
  H34      1.0000 0.26828  0.46077  0.84804  Biso   1.000  H
  C51      1.0000 0.64120  0.27270  0.15490  Biso   1.000  C
  C52      1.0000 0.35880  0.72730  0.84510  Biso   1.000  C
  C53      1.0000 0.74970  0.27700  0.21570  Biso   1.000  C
  C54      1.0000 0.25030  0.72300  0.78430  Biso   1.000  C
  H35      1.0000 0.85068  0.32171  0.22028  Biso   1.000  H
  H36      1.0000 0.14932  0.67829  0.77972  Biso   1.000  H
  C55      1.0000 0.71070  0.21610  0.26970  Biso   1.000  C
  C56      1.0000 0.28930  0.78390  0.73030  Biso   1.000  C
  H37      1.0000 0.78493  0.21961  0.31100  Biso   1.000  H
  H38      1.0000 0.21507  0.78039  0.68900  Biso   1.000  H
  C57      1.0000 0.56720  0.15200  0.26350  Biso   1.000  C
  C58      1.0000 0.43280  0.84800  0.73650  Biso   1.000  C
  H39      1.0000 0.54168  0.11022  0.30039  Biso   1.000  H
  H40      1.0000 0.45832  0.88978  0.69961  Biso   1.000  H
  C59      1.0000 0.45670  0.14650  0.20380  Biso   1.000  C
  C60      1.0000 0.54330  0.85350  0.79620  Biso   1.000  C
  H41      1.0000 0.35632  0.10132  0.19995  Biso   1.000  H
  H42      1.0000 0.64368  0.89868  0.80005  Biso   1.000  H
  C61      1.0000 0.49380  0.20750  0.14980  Biso   1.000  C
  C62      1.0000 0.50620  0.79250  0.85020  Biso   1.000  C
  H43      1.0000 0.41823  0.20477  0.10917  Biso   1.000  H
  H44      1.0000 0.58177  0.79523  0.89083  Biso   1.000  H
  C63      1.0000 0.14320  0.34770  0.46534  Biso   1.000  C
  C64      1.0000 0.85680  0.65230  0.53466  Biso   1.000  C
  C65      1.0000 0.00860  0.35920  0.46430  Biso   1.000  C
  C66      1.0000 0.99140  0.64080  0.53570  Biso   1.000  C
  H45      1.0000 0.95444  0.32484  0.49654  Biso   1.000  H
  H46      1.0000 0.04556  0.67516  0.50346  Biso   1.000  H
  C67      1.0000 0.95240  0.42040  0.41680  Biso   1.000  C
  C68      1.0000 0.04760  0.57960  0.58320  Biso   1.000  C
  H47      1.0000 0.86201  0.42993  0.41762  Biso   1.000  H
  H48      1.0000 0.13799  0.57007  0.58238  Biso   1.000  H
  C69      1.0000 0.02790  0.46730  0.36830  Biso   1.000  C
  C70      1.0000 0.97210  0.53270  0.63170  Biso   1.000  C
  H49      1.0000 0.98779  0.50738  0.33490  Biso   1.000  H
  H50      1.0000 0.01221  0.49262  0.66510  Biso   1.000  H
  C71      1.0000 0.16070  0.45650  0.36800  Biso   1.000  C
  C72      1.0000 0.83930  0.54350  0.63200  Biso   1.000  C
  H51      1.0000 0.21289  0.48981  0.33487  Biso   1.000  H
  H52      1.0000 0.78711  0.51019  0.66513  Biso   1.000  H
  C73      1.0000 0.21930  0.39640  0.41670  Biso   1.000  C
  C74      1.0000 0.78070  0.60360  0.58330  Biso   1.000  C
  H53      1.0000 0.31121  0.38891  0.41653  Biso   1.000  H
  H54      1.0000 0.68879  0.61109  0.58347  Biso   1.000  H
  C75      1.0000 0.36260  0.25130  0.50210  Biso   1.000  C
  C76      1.0000 0.63740  0.74870  0.49790  Biso   1.000  C
  C77      1.0000 0.32630  0.17200  0.44820  Biso   1.000  C
  C78      1.0000 0.67370  0.82800  0.55180  Biso   1.000  C
  H55      1.0000 0.22589  0.12484  0.43046  Biso   1.000  H
  H56      1.0000 0.77411  0.87516  0.56954  Biso   1.000  H
  C79      1.0000 0.43810  0.16220  0.42030  Biso   1.000  C
  C80      1.0000 0.56190  0.83780  0.57970  Biso   1.000  C
  H57      1.0000 0.41341  0.10889  0.38317  Biso   1.000  H
  H58      1.0000 0.58659  0.89111  0.61683  Biso   1.000  H
  C81      1.0000 0.58510  0.23010  0.44660  Biso   1.000  C
  C82      1.0000 0.41490  0.76990  0.55340  Biso   1.000  C
  H59      1.0000 0.66112  0.22383  0.42737  Biso   1.000  H
  H60      1.0000 0.33888  0.77617  0.57263  Biso   1.000  H
  C83      1.0000 0.62020  0.30660  0.50090  Biso   1.000  C
  C84      1.0000 0.37980  0.69340  0.49910  Biso   1.000  C
  H61      1.0000 0.72105  0.35219  0.51971  Biso   1.000  H
  H62      1.0000 0.27895  0.64781  0.48029  Biso   1.000  H
  C85      1.0000 0.50880  0.31780  0.52850  Biso   1.000  C
  C86      1.0000 0.49120  0.68220  0.47150  Biso   1.000  C
  H63      1.0000 0.53394  0.37135  0.56558  Biso   1.000  H
  H64      1.0000 0.46606  0.62865  0.43442  Biso   1.000  H
  C87      1.0000 0.30000  0.35960  0.60794  Biso   1.000  C
  C88      1.0000 0.70000  0.64040  0.39206  Biso   1.000  C
  C89      1.0000 0.35210  0.47110  0.60530  Biso   1.000  C
  C90      1.0000 0.64790  0.52890  0.39470  Biso   1.000  C
  H65      1.0000 0.33982  0.50029  0.56161  Biso   1.000  H
  H66      1.0000 0.66018  0.49971  0.43839  Biso   1.000  H
  C91      1.0000 0.42170  0.53960  0.66600  Biso   1.000  C
  C92      1.0000 0.57830  0.46040  0.33400  Biso   1.000  C
  H67      1.0000 0.45655  0.61542  0.66366  Biso   1.000  H
  H68      1.0000 0.54345  0.38458  0.33634  Biso   1.000  H
  C93      1.0000 0.44020  0.49810  0.72930  Biso   1.000  C
  C94      1.0000 0.55980  0.50190  0.27070  Biso   1.000  C
  H69      1.0000 0.48576  0.54518  0.77078  Biso   1.000  H
  H70      1.0000 0.51424  0.45482  0.22922  Biso   1.000  H
  C95      1.0000 0.39260  0.38770  0.73270  Biso   1.000  C
  C96      1.0000 0.60740  0.61230  0.26730  Biso   1.000  C
  H71      1.0000 0.40939  0.35943  0.77657  Biso   1.000  H
  H72      1.0000 0.59061  0.64057  0.22343  Biso   1.000  H
  C97      1.0000 0.32090  0.31830  0.67290  Biso   1.000  C
  C98      1.0000 0.67910  0.68170  0.32710  Biso   1.000  C
  H73      1.0000 0.28582  0.24261  0.67578  Biso   1.000  H
  H74      1.0000 0.71418  0.75739  0.32422  Biso   1.000  H
  Cl1      1.0000 0.15910  0.20531  0.27457  Biso   1.000  Cl
  Cl2      1.0000 0.84090  0.79469  0.72543  Biso   1.000  Cl
  Cl3      1.0000 0.08810  0.17870  0.12598  Biso   1.000  Cl
  Cl4      1.0000 0.91190  0.82130  0.87402  Biso   1.000  Cl
  C99      1.0000 0.18480  0.26580  0.20220  Biso   1.000  C
  C100     1.0000 0.81520  0.73420  0.79780  Biso   1.000  C
