data_image0
_cell_length_a       18.91
_cell_length_b       14.583
_cell_length_c       13.705
_cell_angle_alpha    90
_cell_angle_beta     118.82
_cell_angle_gamma    90

_symmetry_space_group_name_H-M    "P 1"
_symmetry_int_tables_number       1

loop_
  _symmetry_equiv_pos_as_xyz
  'x, y, z'

loop_
  _atom_site_label
  _atom_site_occupancy
  _atom_site_fract_x
  _atom_site_fract_y
  _atom_site_fract_z
  _atom_site_thermal_displace_type
  _atom_site_B_iso_or_equiv
  _atom_site_type_symbol
  Br1      1.0000 0.69254  0.83700  0.04610  Biso   1.000  Br
  Br2      1.0000 0.19254  0.33700  0.04610  Biso   1.000  Br
  Br3      1.0000 0.30746  0.83700  0.45390  Biso   1.000  Br
  Br4      1.0000 0.80746  0.33700  0.45390  Biso   1.000  Br
  Br5      1.0000 0.30746  0.16300  0.95390  Biso   1.000  Br
  Br6      1.0000 0.80746  0.66300  0.95390  Biso   1.000  Br
  Br7      1.0000 0.69254  0.16300  0.54610  Biso   1.000  Br
  Br8      1.0000 0.19254  0.66300  0.54610  Biso   1.000  Br
  Cu1      1.0000 0.82590  0.79330  0.07280  Biso   1.000  Cu
  Cu2      1.0000 0.32590  0.29330  0.07280  Biso   1.000  Cu
  Cu3      1.0000 0.17410  0.79330  0.42720  Biso   1.000  Cu
  Cu4      1.0000 0.67410  0.29330  0.42720  Biso   1.000  Cu
  Cu5      1.0000 0.17410  0.20670  0.92720  Biso   1.000  Cu
  Cu6      1.0000 0.67410  0.70670  0.92720  Biso   1.000  Cu
  Cu7      1.0000 0.82590  0.20670  0.57280  Biso   1.000  Cu
  Cu8      1.0000 0.32590  0.70670  0.57280  Biso   1.000  Cu
  Co1      1.0000 0.00000  0.89710  0.25000  Biso   1.000  Co
  Co2      1.0000 0.50000  0.39710  0.25000  Biso   1.000  Co
  Co3      1.0000 0.00000  0.10290  0.75000  Biso   1.000  Co
  Co4      1.0000 0.50000  0.60290  0.75000  Biso   1.000  Co
  S1       1.0000 0.93370  0.77420  0.27050  Biso   1.000  S
  S2       1.0000 0.43370  0.27420  0.27050  Biso   1.000  S
  S3       1.0000 0.06630  0.77420  0.22950  Biso   1.000  S
  S4       1.0000 0.56630  0.27420  0.22950  Biso   1.000  S
  S5       1.0000 0.06630  0.22580  0.72950  Biso   1.000  S
  S6       1.0000 0.56630  0.72580  0.72950  Biso   1.000  S
  S7       1.0000 0.93370  0.22580  0.77050  Biso   1.000  S
  S8       1.0000 0.43370  0.72580  0.77050  Biso   1.000  S
  C1       1.0000 0.00000  0.70740  0.25000  Biso   1.000  C
  C2       1.0000 0.50000  0.20740  0.25000  Biso   1.000  C
  C3       1.0000 0.00000  0.29260  0.75000  Biso   1.000  C
  C4       1.0000 0.50000  0.79260  0.75000  Biso   1.000  C
  N1       1.0000 0.00000  0.61620  0.25000  Biso   1.000  N
  N2       1.0000 0.50000  0.11620  0.25000  Biso   1.000  N
  N3       1.0000 0.00000  0.38380  0.75000  Biso   1.000  N
  N4       1.0000 0.50000  0.88380  0.75000  Biso   1.000  N
  C5       1.0000 0.06360  0.56360  0.23960  Biso   1.000  C
  C6       1.0000 0.56360  0.06360  0.23960  Biso   1.000  C
  C7       1.0000 0.93640  0.56360  0.26040  Biso   1.000  C
  C8       1.0000 0.43640  0.06360  0.26040  Biso   1.000  C
  C9       1.0000 0.93640  0.43640  0.76040  Biso   1.000  C
  C10      1.0000 0.43640  0.93640  0.76040  Biso   1.000  C
  C11      1.0000 0.06360  0.43640  0.73960  Biso   1.000  C
  C12      1.0000 0.56360  0.93640  0.73960  Biso   1.000  C
  C13      1.0000 0.03550  0.52740  0.13470  Biso   1.000  C
  C14      1.0000 0.53550  0.02740  0.13470  Biso   1.000  C
  C15      1.0000 0.96450  0.52740  0.36530  Biso   1.000  C
  C16      1.0000 0.46450  0.02740  0.36530  Biso   1.000  C
  C17      1.0000 0.96450  0.47260  0.86530  Biso   1.000  C
  C18      1.0000 0.46450  0.97260  0.86530  Biso   1.000  C
  C19      1.0000 0.03550  0.47260  0.63470  Biso   1.000  C
  C20      1.0000 0.53550  0.97260  0.63470  Biso   1.000  C
  S9       1.0000 0.90480  0.91780  0.06740  Biso   1.000  S
  S10      1.0000 0.40480  0.41780  0.06740  Biso   1.000  S
  S11      1.0000 0.09520  0.91780  0.43260  Biso   1.000  S
  S12      1.0000 0.59520  0.41780  0.43260  Biso   1.000  S
  S13      1.0000 0.09520  0.08220  0.93260  Biso   1.000  S
  S14      1.0000 0.59520  0.58220  0.93260  Biso   1.000  S
  S15      1.0000 0.90480  0.08220  0.56740  Biso   1.000  S
  S16      1.0000 0.40480  0.58220  0.56740  Biso   1.000  S
  S17      1.0000 0.91760  0.00320  0.25980  Biso   1.000  S
  S18      1.0000 0.41760  0.50320  0.25980  Biso   1.000  S
  S19      1.0000 0.08240  0.00320  0.24020  Biso   1.000  S
  S20      1.0000 0.58240  0.50320  0.24020  Biso   1.000  S
  S21      1.0000 0.08240  0.99680  0.74020  Biso   1.000  S
  S22      1.0000 0.58240  0.49680  0.74020  Biso   1.000  S
  S23      1.0000 0.91760  0.99680  0.75980  Biso   1.000  S
  S24      1.0000 0.41760  0.49680  0.75980  Biso   1.000  S
  C21      1.0000 0.86440  0.00150  0.11560  Biso   1.000  C
  C22      1.0000 0.36440  0.50150  0.11560  Biso   1.000  C
  C23      1.0000 0.13560  0.00150  0.38440  Biso   1.000  C
  C24      1.0000 0.63560  0.50150  0.38440  Biso   1.000  C
  C25      1.0000 0.13560  0.99850  0.88440  Biso   1.000  C
  C26      1.0000 0.63560  0.49850  0.88440  Biso   1.000  C
  C27      1.0000 0.86440  0.99850  0.61560  Biso   1.000  C
  C28      1.0000 0.36440  0.49850  0.61560  Biso   1.000  C
  N5       1.0000 0.80590  0.05680  0.05470  Biso   1.000  N
  N6       1.0000 0.30590  0.55680  0.05470  Biso   1.000  N
  N7       1.0000 0.19410  0.05680  0.44530  Biso   1.000  N
  N8       1.0000 0.69410  0.55680  0.44530  Biso   1.000  N
  N9       1.0000 0.19410  0.94320  0.94530  Biso   1.000  N
  N10      1.0000 0.69410  0.44320  0.94530  Biso   1.000  N
  N11      1.0000 0.80590  0.94320  0.55470  Biso   1.000  N
  N12      1.0000 0.30590  0.44320  0.55470  Biso   1.000  N
  C29      1.0000 0.78070  0.12770  0.10750  Biso   1.000  C
  C30      1.0000 0.28070  0.62770  0.10750  Biso   1.000  C
  C31      1.0000 0.21930  0.12770  0.39250  Biso   1.000  C
  C32      1.0000 0.71930  0.62770  0.39250  Biso   1.000  C
  C33      1.0000 0.21930  0.87230  0.89250  Biso   1.000  C
  C34      1.0000 0.71930  0.37230  0.89250  Biso   1.000  C
  C35      1.0000 0.78070  0.87230  0.60750  Biso   1.000  C
  C36      1.0000 0.28070  0.37230  0.60750  Biso   1.000  C
  C37      1.0000 0.72140  0.09560  0.14310  Biso   1.000  C
  C38      1.0000 0.22140  0.59560  0.14310  Biso   1.000  C
  C39      1.0000 0.27860  0.09560  0.35690  Biso   1.000  C
  C40      1.0000 0.77860  0.59560  0.35690  Biso   1.000  C
  C41      1.0000 0.27860  0.90440  0.85690  Biso   1.000  C
  C42      1.0000 0.77860  0.40440  0.85690  Biso   1.000  C
  C43      1.0000 0.72140  0.90440  0.64310  Biso   1.000  C
  C44      1.0000 0.22140  0.40440  0.64310  Biso   1.000  C
  C45      1.0000 0.76650  0.05040  0.93350  Biso   1.000  C
  C46      1.0000 0.26650  0.55040  0.93350  Biso   1.000  C
  C47      1.0000 0.23350  0.05040  0.56650  Biso   1.000  C
  C48      1.0000 0.73350  0.55040  0.56650  Biso   1.000  C
  C49      1.0000 0.23350  0.94960  0.06650  Biso   1.000  C
  C50      1.0000 0.73350  0.44960  0.06650  Biso   1.000  C
  C51      1.0000 0.76650  0.94960  0.43350  Biso   1.000  C
  C52      1.0000 0.26650  0.44960  0.43350  Biso   1.000  C
  C53      1.0000 0.79750  0.11770  0.88400  Biso   1.000  C
  C54      1.0000 0.29750  0.61770  0.88400  Biso   1.000  C
  C55      1.0000 0.20250  0.11770  0.61600  Biso   1.000  C
  C56      1.0000 0.70250  0.61770  0.61600  Biso   1.000  C
  C57      1.0000 0.20250  0.88230  0.11600  Biso   1.000  C
  C58      1.0000 0.70250  0.38230  0.11600  Biso   1.000  C
  C59      1.0000 0.79750  0.88230  0.38400  Biso   1.000  C
  C60      1.0000 0.29750  0.38230  0.38400  Biso   1.000  C
  N13      1.0000 0.59000  0.80700  0.38400  Biso   1.000  N
  N14      1.0000 0.09000  0.30700  0.38400  Biso   1.000  N
  N15      1.0000 0.41000  0.80700  0.11600  Biso   1.000  N
  N16      1.0000 0.91000  0.30700  0.11600  Biso   1.000  N
  N17      1.0000 0.41000  0.19300  0.61600  Biso   1.000  N
  N18      1.0000 0.91000  0.69300  0.61600  Biso   1.000  N
  N19      1.0000 0.59000  0.19300  0.88400  Biso   1.000  N
  N20      1.0000 0.09000  0.69300  0.88400  Biso   1.000  N
  C61      1.0000 0.53900  0.77600  0.39300  Biso   1.000  C
  C62      1.0000 0.03900  0.27600  0.39300  Biso   1.000  C
  C63      1.0000 0.46100  0.77600  0.10700  Biso   1.000  C
  C64      1.0000 0.96100  0.27600  0.10700  Biso   1.000  C
  C65      1.0000 0.46100  0.22400  0.60700  Biso   1.000  C
  C66      1.0000 0.96100  0.72400  0.60700  Biso   1.000  C
  C67      1.0000 0.53900  0.22400  0.89300  Biso   1.000  C
  C68      1.0000 0.03900  0.72400  0.89300  Biso   1.000  C
  C69      1.0000 0.47300  0.73900  0.40400  Biso   1.000  C
  C70      1.0000 0.97300  0.23900  0.40400  Biso   1.000  C
  C71      1.0000 0.52700  0.73900  0.09600  Biso   1.000  C
  C72      1.0000 0.02700  0.23900  0.09600  Biso   1.000  C
  C73      1.0000 0.52700  0.26100  0.59600  Biso   1.000  C
  C74      1.0000 0.02700  0.76100  0.59600  Biso   1.000  C
  C75      1.0000 0.47300  0.26100  0.90400  Biso   1.000  C
  C76      1.0000 0.97300  0.76100  0.90400  Biso   1.000  C
  H1       1.0000 0.11200  0.60000  0.26300  Biso   1.000  H
  H2       1.0000 0.61200  0.10000  0.26300  Biso   1.000  H
  H3       1.0000 0.88800  0.60000  0.23700  Biso   1.000  H
  H4       1.0000 0.38800  0.10000  0.23700  Biso   1.000  H
  H5       1.0000 0.88800  0.40000  0.73700  Biso   1.000  H
  H6       1.0000 0.38800  0.90000  0.73700  Biso   1.000  H
  H7       1.0000 0.11200  0.40000  0.76300  Biso   1.000  H
  H8       1.0000 0.61200  0.90000  0.76300  Biso   1.000  H
  H9       1.0000 0.08400  0.51100  0.29400  Biso   1.000  H
  H10      1.0000 0.58400  0.01100  0.29400  Biso   1.000  H
  H11      1.0000 0.91600  0.51100  0.20600  Biso   1.000  H
  H12      1.0000 0.41600  0.01100  0.20600  Biso   1.000  H
  H13      1.0000 0.91600  0.48900  0.70600  Biso   1.000  H
  H14      1.0000 0.41600  0.98900  0.70600  Biso   1.000  H
  H15      1.0000 0.08400  0.48900  0.79400  Biso   1.000  H
  H16      1.0000 0.58400  0.98900  0.79400  Biso   1.000  H
  H17      1.0000 0.99000  0.49000  0.11300  Biso   1.000  H
  H18      1.0000 0.49000  0.99000  0.11300  Biso   1.000  H
  H19      1.0000 0.01000  0.49000  0.38700  Biso   1.000  H
  H20      1.0000 0.51000  0.99000  0.38700  Biso   1.000  H
  H21      1.0000 0.01000  0.51000  0.88700  Biso   1.000  H
  H22      1.0000 0.51000  0.01000  0.88700  Biso   1.000  H
  H23      1.0000 0.99000  0.51000  0.61300  Biso   1.000  H
  H24      1.0000 0.49000  0.01000  0.61300  Biso   1.000  H
  H25      1.0000 0.01900  0.58000  0.08200  Biso   1.000  H
  H26      1.0000 0.51900  0.08000  0.08200  Biso   1.000  H
  H27      1.0000 0.98100  0.58000  0.41800  Biso   1.000  H
  H28      1.0000 0.48100  0.08000  0.41800  Biso   1.000  H
  H29      1.0000 0.98100  0.42000  0.91800  Biso   1.000  H
  H30      1.0000 0.48100  0.92000  0.91800  Biso   1.000  H
  H31      1.0000 0.01900  0.42000  0.58200  Biso   1.000  H
  H32      1.0000 0.51900  0.92000  0.58200  Biso   1.000  H
  H33      1.0000 0.07700  0.49600  0.12800  Biso   1.000  H
  H34      1.0000 0.57700  0.99600  0.12800  Biso   1.000  H
  H35      1.0000 0.92300  0.49600  0.37200  Biso   1.000  H
  H36      1.0000 0.42300  0.99600  0.37200  Biso   1.000  H
  H37      1.0000 0.92300  0.50400  0.87200  Biso   1.000  H
  H38      1.0000 0.42300  0.00400  0.87200  Biso   1.000  H
  H39      1.0000 0.07700  0.50400  0.62800  Biso   1.000  H
  H40      1.0000 0.57700  0.00400  0.62800  Biso   1.000  H
  H41      1.0000 0.82800  0.15000  0.17300  Biso   1.000  H
  H42      1.0000 0.32800  0.65000  0.17300  Biso   1.000  H
  H43      1.0000 0.17200  0.15000  0.32700  Biso   1.000  H
  H44      1.0000 0.67200  0.65000  0.32700  Biso   1.000  H
  H45      1.0000 0.17200  0.85000  0.82700  Biso   1.000  H
  H46      1.0000 0.67200  0.35000  0.82700  Biso   1.000  H
  H47      1.0000 0.82800  0.85000  0.67300  Biso   1.000  H
  H48      1.0000 0.32800  0.35000  0.67300  Biso   1.000  H
  H49      1.0000 0.75700  0.17900  0.05800  Biso   1.000  H
  H50      1.0000 0.25700  0.67900  0.05800  Biso   1.000  H
  H51      1.0000 0.24300  0.17900  0.44200  Biso   1.000  H
  H52      1.0000 0.74300  0.67900  0.44200  Biso   1.000  H
  H53      1.0000 0.24300  0.82100  0.94200  Biso   1.000  H
  H54      1.0000 0.74300  0.32100  0.94200  Biso   1.000  H
  H55      1.0000 0.75700  0.82100  0.55800  Biso   1.000  H
  H56      1.0000 0.25700  0.32100  0.55800  Biso   1.000  H
  H57      1.0000 0.67300  0.07400  0.08100  Biso   1.000  H
  H58      1.0000 0.17300  0.57400  0.08100  Biso   1.000  H
  H59      1.0000 0.32700  0.07400  0.41900  Biso   1.000  H
  H60      1.0000 0.82700  0.57400  0.41900  Biso   1.000  H
  H61      1.0000 0.32700  0.92600  0.91900  Biso   1.000  H
  H62      1.0000 0.82700  0.42600  0.91900  Biso   1.000  H
  H63      1.0000 0.67300  0.92600  0.58100  Biso   1.000  H
  H64      1.0000 0.17300  0.42600  0.58100  Biso   1.000  H
  H65      1.0000 0.74300  0.04500  0.19500  Biso   1.000  H
  H66      1.0000 0.24300  0.54500  0.19500  Biso   1.000  H
  H67      1.0000 0.25700  0.04500  0.30500  Biso   1.000  H
  H68      1.0000 0.75700  0.54500  0.30500  Biso   1.000  H
  H69      1.0000 0.25700  0.95500  0.80500  Biso   1.000  H
  H70      1.0000 0.75700  0.45500  0.80500  Biso   1.000  H
  H71      1.0000 0.74300  0.95500  0.69500  Biso   1.000  H
  H72      1.0000 0.24300  0.45500  0.69500  Biso   1.000  H
  H73      1.0000 0.70500  0.14100  0.18000  Biso   1.000  H
  H74      1.0000 0.20500  0.64100  0.18000  Biso   1.000  H
  H75      1.0000 0.29500  0.14100  0.32000  Biso   1.000  H
  H76      1.0000 0.79500  0.64100  0.32000  Biso   1.000  H
  H77      1.0000 0.29500  0.85900  0.82000  Biso   1.000  H
  H78      1.0000 0.79500  0.35900  0.82000  Biso   1.000  H
  H79      1.0000 0.70500  0.85900  0.68000  Biso   1.000  H
  H80      1.0000 0.20500  0.35900  0.68000  Biso   1.000  H
  H81      1.0000 0.77600  0.98900  0.91200  Biso   1.000  H
  H82      1.0000 0.27600  0.48900  0.91200  Biso   1.000  H
  H83      1.0000 0.22400  0.98900  0.58800  Biso   1.000  H
  H84      1.0000 0.72400  0.48900  0.58800  Biso   1.000  H
  H85      1.0000 0.22400  0.01100  0.08800  Biso   1.000  H
  H86      1.0000 0.72400  0.51100  0.08800  Biso   1.000  H
  H87      1.0000 0.77600  0.01100  0.41200  Biso   1.000  H
  H88      1.0000 0.27600  0.51100  0.41200  Biso   1.000  H
  H89      1.0000 0.70900  0.05600  0.89900  Biso   1.000  H
  H90      1.0000 0.20900  0.55600  0.89900  Biso   1.000  H
  H91      1.0000 0.29100  0.05600  0.60100  Biso   1.000  H
  H92      1.0000 0.79100  0.55600  0.60100  Biso   1.000  H
  H93      1.0000 0.29100  0.94400  0.10100  Biso   1.000  H
  H94      1.0000 0.79100  0.44400  0.10100  Biso   1.000  H
  H95      1.0000 0.70900  0.94400  0.39900  Biso   1.000  H
  H96      1.0000 0.20900  0.44400  0.39900  Biso   1.000  H
  H97      1.0000 0.78800  0.17800  0.90200  Biso   1.000  H
  H98      1.0000 0.28800  0.67800  0.90200  Biso   1.000  H
  H99      1.0000 0.21200  0.17800  0.59800  Biso   1.000  H
  H100     1.0000 0.71200  0.67800  0.59800  Biso   1.000  H
  H101     1.0000 0.21200  0.82200  0.09800  Biso   1.000  H
  H102     1.0000 0.71200  0.32200  0.09800  Biso   1.000  H
  H103     1.0000 0.78800  0.82200  0.40200  Biso   1.000  H
  H104     1.0000 0.28800  0.32200  0.40200  Biso   1.000  H
  H105     1.0000 0.85500  0.11000  0.91500  Biso   1.000  H
  H106     1.0000 0.35500  0.61000  0.91500  Biso   1.000  H
  H107     1.0000 0.14500  0.11000  0.58500  Biso   1.000  H
  H108     1.0000 0.64500  0.61000  0.58500  Biso   1.000  H
  H109     1.0000 0.14500  0.89000  0.08500  Biso   1.000  H
  H110     1.0000 0.64500  0.39000  0.08500  Biso   1.000  H
  H111     1.0000 0.85500  0.89000  0.41500  Biso   1.000  H
  H112     1.0000 0.35500  0.39000  0.41500  Biso   1.000  H
  H113     1.0000 0.77300  0.11200  0.80500  Biso   1.000  H
  H114     1.0000 0.27300  0.61200  0.80500  Biso   1.000  H
  H115     1.0000 0.22700  0.11200  0.69500  Biso   1.000  H
  H116     1.0000 0.72700  0.61200  0.69500  Biso   1.000  H
  H117     1.0000 0.22700  0.88800  0.19500  Biso   1.000  H
  H118     1.0000 0.72700  0.38800  0.19500  Biso   1.000  H
  H119     1.0000 0.77300  0.88800  0.30500  Biso   1.000  H
  H120     1.0000 0.27300  0.38800  0.30500  Biso   1.000  H
  H121     1.0000 0.49600  0.67700  0.45000  Biso   1.000  H
  H122     1.0000 0.99600  0.17700  0.45000  Biso   1.000  H
  H123     1.0000 0.50400  0.67700  0.05000  Biso   1.000  H
  H124     1.0000 0.00400  0.17700  0.05000  Biso   1.000  H
  H125     1.0000 0.50400  0.32300  0.55000  Biso   1.000  H
  H126     1.0000 0.00400  0.82300  0.55000  Biso   1.000  H
  H127     1.0000 0.49600  0.32300  0.95000  Biso   1.000  H
  H128     1.0000 0.99600  0.82300  0.95000  Biso   1.000  H
  H129     1.0000 0.42600  0.72400  0.33400  Biso   1.000  H
  H130     1.0000 0.92600  0.22400  0.33400  Biso   1.000  H
  H131     1.0000 0.57400  0.72400  0.16600  Biso   1.000  H
  H132     1.0000 0.07400  0.22400  0.16600  Biso   1.000  H
  H133     1.0000 0.57400  0.27600  0.66600  Biso   1.000  H
  H134     1.0000 0.07400  0.77600  0.66600  Biso   1.000  H
  H135     1.0000 0.42600  0.27600  0.83400  Biso   1.000  H
  H136     1.0000 0.92600  0.77600  0.83400  Biso   1.000  H
  H137     1.0000 0.45400  0.77700  0.44500  Biso   1.000  H
  H138     1.0000 0.95400  0.27700  0.44500  Biso   1.000  H
  H139     1.0000 0.54600  0.77700  0.05500  Biso   1.000  H
  H140     1.0000 0.04600  0.27700  0.05500  Biso   1.000  H
  H141     1.0000 0.54600  0.22300  0.55500  Biso   1.000  H
  H142     1.0000 0.04600  0.72300  0.55500  Biso   1.000  H
  H143     1.0000 0.45400  0.22300  0.94500  Biso   1.000  H
  H144     1.0000 0.95400  0.72300  0.94500  Biso   1.000  H
