data_image0
_cell_length_a       11.5172
_cell_length_b       22.6508
_cell_length_c       11.3008
_cell_angle_alpha    90
_cell_angle_beta     111.521
_cell_angle_gamma    90

_symmetry_space_group_name_H-M    "P 1"
_symmetry_int_tables_number       1

loop_
  _symmetry_equiv_pos_as_xyz
  'x, y, z'

loop_
  _atom_site_label
  _atom_site_occupancy
  _atom_site_fract_x
  _atom_site_fract_y
  _atom_site_fract_z
  _atom_site_thermal_displace_type
  _atom_site_B_iso_or_equiv
  _atom_site_type_symbol
  Mo1      1.0000 0.29534  0.61888  0.85593  Biso   1.000  Mo
  Mo2      1.0000 0.70466  0.11888  0.64407  Biso   1.000  Mo
  Mo3      1.0000 0.70466  0.38112  0.14407  Biso   1.000  Mo
  Mo4      1.0000 0.29534  0.88112  0.35593  Biso   1.000  Mo
  Mo5      1.0000 0.30538  0.55968  0.15204  Biso   1.000  Mo
  Mo6      1.0000 0.69462  0.05968  0.34796  Biso   1.000  Mo
  Mo7      1.0000 0.69462  0.44032  0.84796  Biso   1.000  Mo
  Mo8      1.0000 0.30538  0.94032  0.65204  Biso   1.000  Mo
  Mo9      1.0000 0.62480  0.63687  0.95136  Biso   1.000  Mo
  Mo10     1.0000 0.37520  0.13687  0.54864  Biso   1.000  Mo
  Mo11     1.0000 0.37520  0.36313  0.04864  Biso   1.000  Mo
  Mo12     1.0000 0.62480  0.86313  0.45136  Biso   1.000  Mo
  Mo13     1.0000 0.62626  0.59992  0.25709  Biso   1.000  Mo
  Mo14     1.0000 0.37374  0.09992  0.24291  Biso   1.000  Mo
  Mo15     1.0000 0.37374  0.40008  0.74291  Biso   1.000  Mo
  Mo16     1.0000 0.62626  0.90008  0.75709  Biso   1.000  Mo
  Mo17     1.0000 0.17233  0.47552  0.86784  Biso   1.000  Mo
  Mo18     1.0000 0.82767  0.97552  0.63216  Biso   1.000  Mo
  Mo19     1.0000 0.82767  0.52448  0.13216  Biso   1.000  Mo
  Mo20     1.0000 0.17233  0.02448  0.36784  Biso   1.000  Mo
  Mo21     1.0000 0.45763  0.54474  0.68523  Biso   1.000  Mo
  Mo22     1.0000 0.54237  0.04474  0.81477  Biso   1.000  Mo
  Mo23     1.0000 0.54237  0.45526  0.31477  Biso   1.000  Mo
  Mo24     1.0000 0.45763  0.95526  0.18523  Biso   1.000  Mo
  Cu1      1.0000 0.71393  0.73429  0.70998  Biso   1.000  Cu
  Cu2      1.0000 0.28607  0.23429  0.79002  Biso   1.000  Cu
  Cu3      1.0000 0.28607  0.26571  0.29002  Biso   1.000  Cu
  Cu4      1.0000 0.71393  0.76571  0.20998  Biso   1.000  Cu
  P1       1.0000 0.50000  0.50000  0.00000  Biso   1.000  P
  P2       1.0000 0.50000  0.00000  0.50000  Biso   1.000  P
  O1       1.0000 0.19630  0.67150  0.78090  Biso   1.000  O
  O2       1.0000 0.80370  0.17150  0.71910  Biso   1.000  O
  O3       1.0000 0.80370  0.32850  0.21910  Biso   1.000  O
  O4       1.0000 0.19630  0.82850  0.28090  Biso   1.000  O
  O5       1.0000 0.28230  0.61640  0.01090  Biso   1.000  O
  O6       1.0000 0.71770  0.11640  0.48910  Biso   1.000  O
  O7       1.0000 0.71770  0.38360  0.98910  Biso   1.000  O
  O8       1.0000 0.28230  0.88360  0.51090  Biso   1.000  O
  O9       1.0000 0.33650  0.58660  0.71300  Biso   1.000  O
  O10      1.0000 0.66350  0.08660  0.78700  Biso   1.000  O
  O11      1.0000 0.66350  0.41340  0.28700  Biso   1.000  O
  O12      1.0000 0.33650  0.91340  0.21300  Biso   1.000  O
  O13      1.0000 0.44590  0.65600  0.90820  Biso   1.000  O
  O14      1.0000 0.55410  0.15600  0.59180  Biso   1.000  O
  O15      1.0000 0.55410  0.34400  0.09180  Biso   1.000  O
  O16      1.0000 0.44590  0.84400  0.40820  Biso   1.000  O
  O17      1.0000 0.47460  0.55560  0.91190  Biso   1.000  O
  O18      1.0000 0.52540  0.05560  0.58810  Biso   1.000  O
  O19      1.0000 0.52540  0.44440  0.08810  Biso   1.000  O
  O20      1.0000 0.47460  0.94440  0.41190  Biso   1.000  O
  O21      1.0000 0.37550  0.52450  0.97650  Biso   1.000  O
  O22      1.0000 0.62450  0.02450  0.52350  Biso   1.000  O
  O23      1.0000 0.62450  0.47550  0.02350  Biso   1.000  O
  O24      1.0000 0.37550  0.97550  0.47650  Biso   1.000  O
  O25      1.0000 0.44710  0.56560  0.54160  Biso   1.000  O
  O26      1.0000 0.55290  0.06560  0.95840  Biso   1.000  O
  O27      1.0000 0.55290  0.43440  0.45840  Biso   1.000  O
  O28      1.0000 0.44710  0.93440  0.04160  Biso   1.000  O
  O29      1.0000 0.62470  0.52510  0.34370  Biso   1.000  O
  O30      1.0000 0.37530  0.02510  0.15630  Biso   1.000  O
  O31      1.0000 0.37530  0.47490  0.65630  Biso   1.000  O
  O32      1.0000 0.62470  0.97490  0.84370  Biso   1.000  O
  O33      1.0000 0.57880  0.60390  0.79290  Biso   1.000  O
  O34      1.0000 0.42120  0.10390  0.70710  Biso   1.000  O
  O35      1.0000 0.42120  0.39610  0.20710  Biso   1.000  O
  O36      1.0000 0.57880  0.89610  0.29290  Biso   1.000  O
  O37      1.0000 0.67810  0.70300  0.93180  Biso   1.000  O
  O38      1.0000 0.32190  0.20300  0.56820  Biso   1.000  O
  O39      1.0000 0.32190  0.29700  0.06820  Biso   1.000  O
  O40      1.0000 0.67810  0.79700  0.43180  Biso   1.000  O
  O41      1.0000 0.76650  0.59420  0.02030  Biso   1.000  O
  O42      1.0000 0.23350  0.09420  0.47970  Biso   1.000  O
  O43      1.0000 0.23350  0.40580  0.97970  Biso   1.000  O
  O44      1.0000 0.76650  0.90580  0.52030  Biso   1.000  O
  O45      1.0000 0.62580  0.64570  0.12490  Biso   1.000  O
  O46      1.0000 0.37420  0.14570  0.37510  Biso   1.000  O
  O47      1.0000 0.37420  0.35430  0.87510  Biso   1.000  O
  O48      1.0000 0.62580  0.85430  0.62490  Biso   1.000  O
  O49      1.0000 0.60500  0.54380  0.05740  Biso   1.000  O
  O50      1.0000 0.39500  0.04380  0.44260  Biso   1.000  O
  O51      1.0000 0.39500  0.45620  0.94260  Biso   1.000  O
  O52      1.0000 0.60500  0.95620  0.55740  Biso   1.000  O
  O53      1.0000 0.21930  0.59280  0.22190  Biso   1.000  O
  O54      1.0000 0.78070  0.09280  0.27810  Biso   1.000  O
  O55      1.0000 0.78070  0.40720  0.77810  Biso   1.000  O
  O56      1.0000 0.21930  0.90720  0.72190  Biso   1.000  O
  O57      1.0000 0.38410  0.50180  0.26170  Biso   1.000  O
  O58      1.0000 0.61590  0.00180  0.23830  Biso   1.000  O
  O59      1.0000 0.61590  0.49820  0.73830  Biso   1.000  O
  O60      1.0000 0.38410  0.99820  0.76170  Biso   1.000  O
  O61      1.0000 0.19680  0.51210  0.03440  Biso   1.000  O
  O62      1.0000 0.80320  0.01210  0.46560  Biso   1.000  O
  O63      1.0000 0.80320  0.48790  0.96560  Biso   1.000  O
  O64      1.0000 0.19680  0.98790  0.53440  Biso   1.000  O
  O65      1.0000 0.46090  0.60640  0.22660  Biso   1.000  O
  O66      1.0000 0.53910  0.10640  0.27340  Biso   1.000  O
  O67      1.0000 0.53910  0.39360  0.77340  Biso   1.000  O
  O68      1.0000 0.46090  0.89360  0.72660  Biso   1.000  O
  O69      1.0000 0.77850  0.56230  0.24770  Biso   1.000  O
  O70      1.0000 0.22150  0.06230  0.25230  Biso   1.000  O
  O71      1.0000 0.22150  0.43770  0.75230  Biso   1.000  O
  O72      1.0000 0.77850  0.93770  0.74770  Biso   1.000  O
  O73      1.0000 0.18240  0.54960  0.81050  Biso   1.000  O
  O74      1.0000 0.81760  0.04960  0.68950  Biso   1.000  O
  O75      1.0000 0.81760  0.45040  0.18950  Biso   1.000  O
  O76      1.0000 0.18240  0.95040  0.31050  Biso   1.000  O
  O77      1.0000 0.02080  0.46330  0.81400  Biso   1.000  O
  O78      1.0000 0.97920  0.96330  0.68600  Biso   1.000  O
  O79      1.0000 0.97920  0.53670  0.18600  Biso   1.000  O
  O80      1.0000 0.02080  0.03670  0.31400  Biso   1.000  O
  N1       1.0000 0.10320  0.44110  0.41380  Biso   1.000  N
  N2       1.0000 0.89680  0.94110  0.08620  Biso   1.000  N
  N3       1.0000 0.89680  0.55890  0.58620  Biso   1.000  N
  N4       1.0000 0.10320  0.05890  0.91380  Biso   1.000  N
  C1       1.0000 0.14870  0.49850  0.43560  Biso   1.000  C
  C2       1.0000 0.85130  0.99850  0.06440  Biso   1.000  C
  C3       1.0000 0.85130  0.50150  0.56440  Biso   1.000  C
  C4       1.0000 0.14870  0.00150  0.93560  Biso   1.000  C
  H1       1.0000 0.21850  0.50950  0.41480  Biso   1.000  H
  H2       1.0000 0.78150  0.00950  0.08520  Biso   1.000  H
  H3       1.0000 0.78150  0.49050  0.58520  Biso   1.000  H
  H4       1.0000 0.21850  0.99050  0.91480  Biso   1.000  H
  C5       1.0000 0.09210  0.53980  0.48790  Biso   1.000  C
  C6       1.0000 0.90790  0.03980  0.01210  Biso   1.000  C
  C7       1.0000 0.90790  0.46020  0.51210  Biso   1.000  C
  C8       1.0000 0.09210  0.96020  0.98790  Biso   1.000  C
  H5       1.0000 0.12320  0.57910  0.50280  Biso   1.000  H
  H6       1.0000 0.87680  0.07910  0.99720  Biso   1.000  H
  H7       1.0000 0.87680  0.42090  0.49720  Biso   1.000  H
  H8       1.0000 0.12320  0.92090  0.00280  Biso   1.000  H
  C9       1.0000 0.99000  0.52370  0.51840  Biso   1.000  C
  C10      1.0000 0.01000  0.02370  0.98160  Biso   1.000  C
  C11      1.0000 0.01000  0.47630  0.48160  Biso   1.000  C
  C12      1.0000 0.99000  0.97630  0.01840  Biso   1.000  C
  C13      1.0000 0.94450  0.46630  0.49660  Biso   1.000  C
  C14      1.0000 0.05550  0.96630  0.00340  Biso   1.000  C
  C15      1.0000 0.05550  0.53370  0.50340  Biso   1.000  C
  C16      1.0000 0.94450  0.03370  0.99660  Biso   1.000  C
  H9       1.0000 0.87470  0.45530  0.51750  Biso   1.000  H
  H10      1.0000 0.12530  0.95530  0.98250  Biso   1.000  H
  H11      1.0000 0.12530  0.54470  0.48250  Biso   1.000  H
  H12      1.0000 0.87470  0.04470  0.01750  Biso   1.000  H
  C17      1.0000 0.00100  0.42500  0.44440  Biso   1.000  C
  C18      1.0000 0.99900  0.92500  0.05560  Biso   1.000  C
  C19      1.0000 0.99900  0.57500  0.55560  Biso   1.000  C
  C20      1.0000 0.00100  0.07500  0.94440  Biso   1.000  C
  H13      1.0000 0.96990  0.38580  0.42950  Biso   1.000  H
  H14      1.0000 0.03010  0.88580  0.07050  Biso   1.000  H
  H15      1.0000 0.03010  0.61420  0.57050  Biso   1.000  H
  H16      1.0000 0.96990  0.11420  0.92950  Biso   1.000  H
  O81      1.0000 0.68860  0.64500  0.37990  Biso   1.000  O
  O82      1.0000 0.31140  0.14500  0.12010  Biso   1.000  O
  O83      1.0000 0.31140  0.35500  0.62010  Biso   1.000  O
  O84      1.0000 0.68860  0.85500  0.87990  Biso   1.000  O
  O85      1.0000 0.49160  0.52290  0.12870  Biso   1.000  O
  O86      1.0000 0.50840  0.02290  0.37130  Biso   1.000  O
  O87      1.0000 0.50840  0.47710  0.87130  Biso   1.000  O
  O88      1.0000 0.49160  0.97710  0.62870  Biso   1.000  O
  N5       1.0000 0.53700  0.72650  0.62700  Biso   1.000  N
  N6       1.0000 0.46300  0.22650  0.87300  Biso   1.000  N
  N7       1.0000 0.46300  0.27350  0.37300  Biso   1.000  N
  N8       1.0000 0.53700  0.77350  0.12700  Biso   1.000  N
  N9       1.0000 0.87960  0.74170  0.31210  Biso   1.000  N
  N10      1.0000 0.12040  0.24170  0.18790  Biso   1.000  N
  N11      1.0000 0.12040  0.25830  0.68790  Biso   1.000  N
  N12      1.0000 0.87960  0.75830  0.81210  Biso   1.000  N
  C21      1.0000 0.48060  0.69970  0.51400  Biso   1.000  C
  C22      1.0000 0.51940  0.19970  0.98600  Biso   1.000  C
  C23      1.0000 0.51940  0.30030  0.48600  Biso   1.000  C
  C24      1.0000 0.48060  0.80030  0.01400  Biso   1.000  C
  H17      1.0000 0.53110  0.68160  0.47400  Biso   1.000  H
  H18      1.0000 0.46890  0.18160  0.02600  Biso   1.000  H
  H19      1.0000 0.46890  0.31840  0.52600  Biso   1.000  H
  H20      1.0000 0.53110  0.81840  0.97400  Biso   1.000  H
  C25      1.0000 0.35280  0.69740  0.45370  Biso   1.000  C
  C26      1.0000 0.64720  0.19740  0.04630  Biso   1.000  C
  C27      1.0000 0.64720  0.30260  0.54630  Biso   1.000  C
  C28      1.0000 0.35280  0.80260  0.95370  Biso   1.000  C
  H21      1.0000 0.31690  0.67740  0.37470  Biso   1.000  H
  H22      1.0000 0.68310  0.17740  0.12530  Biso   1.000  H
  H23      1.0000 0.68310  0.32260  0.62530  Biso   1.000  H
  H24      1.0000 0.31690  0.82260  0.87470  Biso   1.000  H
  C29      1.0000 0.27640  0.72440  0.50830  Biso   1.000  C
  C30      1.0000 0.72360  0.22440  0.99170  Biso   1.000  C
  C31      1.0000 0.72360  0.27560  0.49170  Biso   1.000  C
  C32      1.0000 0.27640  0.77560  0.00830  Biso   1.000  C
  C33      1.0000 0.33470  0.75080  0.62630  Biso   1.000  C
  C34      1.0000 0.66530  0.25080  0.87370  Biso   1.000  C
  C35      1.0000 0.66530  0.24920  0.37370  Biso   1.000  C
  C36      1.0000 0.33470  0.74920  0.12630  Biso   1.000  C
  H25      1.0000 0.28600  0.76840  0.66870  Biso   1.000  H
  H26      1.0000 0.71400  0.26840  0.83130  Biso   1.000  H
  H27      1.0000 0.71400  0.23160  0.33130  Biso   1.000  H
  H28      1.0000 0.28600  0.73160  0.16870  Biso   1.000  H
  C37      1.0000 0.46270  0.75150  0.68170  Biso   1.000  C
  C38      1.0000 0.53730  0.25150  0.81830  Biso   1.000  C
  C39      1.0000 0.53730  0.24850  0.31830  Biso   1.000  C
  C40      1.0000 0.46270  0.74850  0.18170  Biso   1.000  C
  H29      1.0000 0.50050  0.77030  0.76190  Biso   1.000  H
  H30      1.0000 0.49950  0.27030  0.73810  Biso   1.000  H
  H31      1.0000 0.49950  0.22970  0.23810  Biso   1.000  H
  H32      1.0000 0.50050  0.72970  0.26190  Biso   1.000  H
  C41      1.0000 0.13880  0.72780  0.44270  Biso   1.000  C
  C42      1.0000 0.86120  0.22780  0.05730  Biso   1.000  C
  C43      1.0000 0.86120  0.27220  0.55730  Biso   1.000  C
  C44      1.0000 0.13880  0.77220  0.94270  Biso   1.000  C
  C45      1.0000 0.07060  0.77180  0.47640  Biso   1.000  C
  C46      1.0000 0.92940  0.27180  0.02360  Biso   1.000  C
  C47      1.0000 0.92940  0.22820  0.52360  Biso   1.000  C
  C48      1.0000 0.07060  0.72820  0.97640  Biso   1.000  C
  H33      1.0000 0.11160  0.79780  0.54510  Biso   1.000  H
  H34      1.0000 0.88840  0.29780  0.95490  Biso   1.000  H
  H35      1.0000 0.88840  0.20220  0.45490  Biso   1.000  H
  H36      1.0000 0.11160  0.70220  0.04510  Biso   1.000  H
  C49      1.0000 0.94400  0.77710  0.40960  Biso   1.000  C
  C50      1.0000 0.05600  0.27710  0.09040  Biso   1.000  C
  C51      1.0000 0.05600  0.22290  0.59040  Biso   1.000  C
  C52      1.0000 0.94400  0.72290  0.90960  Biso   1.000  C
  H37      1.0000 0.90000  0.80740  0.43380  Biso   1.000  H
  H38      1.0000 0.10000  0.30740  0.06620  Biso   1.000  H
  H39      1.0000 0.10000  0.19260  0.56620  Biso   1.000  H
  H40      1.0000 0.90000  0.69260  0.93380  Biso   1.000  H
  C53      1.0000 0.94460  0.69870  0.28200  Biso   1.000  C
  C54      1.0000 0.05540  0.19870  0.21800  Biso   1.000  C
  C55      1.0000 0.05540  0.30130  0.71800  Biso   1.000  C
  C56      1.0000 0.94460  0.80130  0.78200  Biso   1.000  C
  H41      1.0000 0.90080  0.67240  0.21490  Biso   1.000  H
  H42      1.0000 0.09920  0.17240  0.28510  Biso   1.000  H
  H43      1.0000 0.09920  0.32760  0.78510  Biso   1.000  H
  H44      1.0000 0.90080  0.82760  0.71490  Biso   1.000  H
  C57      1.0000 0.07180  0.69050  0.34340  Biso   1.000  C
  C58      1.0000 0.92820  0.19050  0.15660  Biso   1.000  C
  C59      1.0000 0.92820  0.30950  0.65660  Biso   1.000  C
  C60      1.0000 0.07180  0.80950  0.84340  Biso   1.000  C
  H45      1.0000 0.11320  0.65960  0.31790  Biso   1.000  H
  H46      1.0000 0.88680  0.15960  0.18210  Biso   1.000  H
  H47      1.0000 0.88680  0.34040  0.68210  Biso   1.000  H
  H48      1.0000 0.11320  0.84040  0.81790  Biso   1.000  H
  N13      1.0000 0.80730  0.65650  0.66080  Biso   1.000  N
  N14      1.0000 0.19270  0.15650  0.83920  Biso   1.000  N
  N15      1.0000 0.19270  0.34350  0.33920  Biso   1.000  N
  N16      1.0000 0.80730  0.84350  0.16080  Biso   1.000  N
  C61      1.0000 0.77530  0.59760  0.66460  Biso   1.000  C
  C62      1.0000 0.22470  0.09760  0.83540  Biso   1.000  C
  C63      1.0000 0.22470  0.40240  0.33540  Biso   1.000  C
  C64      1.0000 0.77530  0.90240  0.16460  Biso   1.000  C
  H49      1.0000 0.71310  0.58700  0.69750  Biso   1.000  H
  H50      1.0000 0.28690  0.08700  0.80250  Biso   1.000  H
  H51      1.0000 0.28690  0.41300  0.30250  Biso   1.000  H
  H52      1.0000 0.71310  0.91300  0.19750  Biso   1.000  H
  C65      1.0000 0.83420  0.55410  0.62030  Biso   1.000  C
  C66      1.0000 0.16580  0.05410  0.87970  Biso   1.000  C
  C67      1.0000 0.16580  0.44590  0.37970  Biso   1.000  C
  C68      1.0000 0.83420  0.94590  0.12030  Biso   1.000  C
  H53      1.0000 0.81230  0.51380  0.62290  Biso   1.000  H
  H54      1.0000 0.18770  0.01380  0.87710  Biso   1.000  H
  H55      1.0000 0.18770  0.48620  0.37710  Biso   1.000  H
  H56      1.0000 0.81230  0.98620  0.12290  Biso   1.000  H
  C69      1.0000 0.92510  0.56950  0.57210  Biso   1.000  C
  C70      1.0000 0.07490  0.06950  0.92790  Biso   1.000  C
  C71      1.0000 0.07490  0.43050  0.42790  Biso   1.000  C
  C72      1.0000 0.92510  0.93050  0.07210  Biso   1.000  C
  C73      1.0000 0.95710  0.62840  0.56830  Biso   1.000  C
  C74      1.0000 0.04290  0.12840  0.93170  Biso   1.000  C
  C75      1.0000 0.04290  0.37160  0.43170  Biso   1.000  C
  C76      1.0000 0.95710  0.87160  0.06830  Biso   1.000  C
  H57      1.0000 0.01920  0.63900  0.53540  Biso   1.000  H
  H58      1.0000 0.98080  0.13900  0.96460  Biso   1.000  H
  H59      1.0000 0.98080  0.36100  0.46460  Biso   1.000  H
  H60      1.0000 0.01920  0.86100  0.03540  Biso   1.000  H
  C77      1.0000 0.89820  0.67190  0.61270  Biso   1.000  C
  C78      1.0000 0.10180  0.17190  0.88730  Biso   1.000  C
  C79      1.0000 0.10180  0.32810  0.38730  Biso   1.000  C
  C80      1.0000 0.89820  0.82810  0.11270  Biso   1.000  C
  H61      1.0000 0.92010  0.71220  0.61010  Biso   1.000  H
  H62      1.0000 0.07990  0.21220  0.88990  Biso   1.000  H
  H63      1.0000 0.07990  0.28780  0.38990  Biso   1.000  H
  H64      1.0000 0.92010  0.78780  0.11010  Biso   1.000  H
