data_image0
_cell_length_a       14.269
_cell_length_b       15.865
_cell_length_c       20.144
_cell_angle_alpha    94.918
_cell_angle_beta     101.202
_cell_angle_gamma    107.587

_symmetry_space_group_name_H-M    "P 1"
_symmetry_int_tables_number       1

loop_
  _symmetry_equiv_pos_as_xyz
  'x, y, z'

loop_
  _atom_site_label
  _atom_site_occupancy
  _atom_site_fract_x
  _atom_site_fract_y
  _atom_site_fract_z
  _atom_site_thermal_displace_type
  _atom_site_B_iso_or_equiv
  _atom_site_type_symbol
  Cu1      1.0000 0.09800  0.21199  0.80253  Biso   1.000  Cu
  Cu2      1.0000 0.90200  0.78801  0.19746  Biso   1.000  Cu
  Cu3      1.0000 0.94791  0.32162  0.74854  Biso   1.000  Cu
  Cu4      1.0000 0.05209  0.67838  0.25146  Biso   1.000  Cu
  P1       1.0000 0.07515  0.24729  0.90848  Biso   1.000  P
  P2       1.0000 0.92485  0.75271  0.09152  Biso   1.000  P
  P3       1.0000 0.93058  0.34672  0.85526  Biso   1.000  P
  P4       1.0000 0.06942  0.65328  0.14474  Biso   1.000  P
  P5       1.0000 0.20097  0.28525  0.73863  Biso   1.000  P
  P6       1.0000 0.79903  0.71475  0.26137  Biso   1.000  P
  P7       1.0000 0.06267  0.39185  0.69336  Biso   1.000  P
  P8       1.0000 0.93733  0.60815  0.30664  Biso   1.000  P
  N1       1.0000 0.96440  0.13200  0.74275  Biso   1.000  N
  N2       1.0000 0.03560  0.86800  0.25725  Biso   1.000  N
  N3       1.0000 0.17250  0.11940  0.82916  Biso   1.000  N
  N4       1.0000 0.82750  0.88060  0.17084  Biso   1.000  N
  N5       1.0000 0.18290  0.73350  0.31910  Biso   1.000  N
  N6       1.0000 0.81710  0.26650  0.68090  Biso   1.000  N
  C1       1.0000 0.03640  0.34680  0.92385  Biso   1.000  C
  C2       1.0000 0.96360  0.65320  0.07615  Biso   1.000  C
  H1       1.0000 0.01660  0.34810  0.96730  Biso   1.000  H
  H2       1.0000 0.98340  0.65190  0.03270  Biso   1.000  H
  H3       1.0000 0.09340  0.40030  0.92690  Biso   1.000  H
  H4       1.0000 0.90660  0.59970  0.07310  Biso   1.000  H
  C3       1.0000 0.98250  0.15550  0.93308  Biso   1.000  C
  C4       1.0000 0.01750  0.84450  0.06692  Biso   1.000  C
  C5       1.0000 0.93540  0.16780  0.98622  Biso   1.000  C
  C6       1.0000 0.06460  0.83220  0.01378  Biso   1.000  C
  H5       1.0000 0.95170  0.22460  0.01090  Biso   1.000  H
  H6       1.0000 0.04830  0.77540  0.98910  Biso   1.000  H
  C7       1.0000 0.86450  0.09590  0.00230  Biso   1.000  C
  C8       1.0000 0.13550  0.90410  0.99770  Biso   1.000  C
  H7       1.0000 0.83350  0.10470  0.03770  Biso   1.000  H
  H8       1.0000 0.16650  0.89530  0.96230  Biso   1.000  H
  C9       1.0000 0.83970  0.01100  0.96610  Biso   1.000  C
  C10      1.0000 0.16030  0.98900  0.03390  Biso   1.000  C
  H9       1.0000 0.79160  0.96300  0.97670  Biso   1.000  H
  H10      1.0000 0.20840  0.03700  0.02330  Biso   1.000  H
  C11      1.0000 0.88650  0.99780  0.91450  Biso   1.000  C
  C12      1.0000 0.11350  0.00220  0.08550  Biso   1.000  C
  H11      1.0000 0.87050  0.94060  0.89060  Biso   1.000  H
  H12      1.0000 0.12950  0.05940  0.10940  Biso   1.000  H
  C13      1.0000 0.95770  0.06960  0.89769  Biso   1.000  C
  C14      1.0000 0.04230  0.93040  0.10231  Biso   1.000  C
  H13      1.0000 0.98880  0.05990  0.86260  Biso   1.000  H
  H14      1.0000 0.01120  0.94010  0.13740  Biso   1.000  H
  C15      1.0000 0.18860  0.27320  0.97700  Biso   1.000  C
  C16      1.0000 0.81140  0.72680  0.02300  Biso   1.000  C
  C17      1.0000 0.19370  0.22800  0.03306  Biso   1.000  C
  C18      1.0000 0.80630  0.77200  0.96694  Biso   1.000  C
  H15      1.0000 0.13790  0.18110  0.03630  Biso   1.000  H
  H16      1.0000 0.86210  0.81890  0.96370  Biso   1.000  H
  C19      1.0000 0.28180  0.25280  0.08412  Biso   1.000  C
  C20      1.0000 0.71820  0.74720  0.91588  Biso   1.000  C
  H17      1.0000 0.28440  0.22340  0.12210  Biso   1.000  H
  H18      1.0000 0.71560  0.77660  0.87790  Biso   1.000  H
  C21      1.0000 0.36640  0.32180  0.07866  Biso   1.000  C
  C22      1.0000 0.63360  0.67820  0.92134  Biso   1.000  C
  H19      1.0000 0.42570  0.33830  0.11270  Biso   1.000  H
  H20      1.0000 0.57430  0.66170  0.88730  Biso   1.000  H
  C23      1.0000 0.36170  0.36550  0.02220  Biso   1.000  C
  C24      1.0000 0.63830  0.63450  0.97780  Biso   1.000  C
  H21      1.0000 0.41830  0.41110  0.01820  Biso   1.000  H
  H22      1.0000 0.58170  0.58890  0.98180  Biso   1.000  H
  C25      1.0000 0.27400  0.34200  0.97191  Biso   1.000  C
  C26      1.0000 0.72600  0.65800  0.02809  Biso   1.000  C
  H23      1.0000 0.27150  0.37220  0.93430  Biso   1.000  H
  H24      1.0000 0.72850  0.62780  0.06570  Biso   1.000  H
  C27      1.0000 0.81900  0.26970  0.87380  Biso   1.000  C
  C28      1.0000 0.18100  0.73030  0.12620  Biso   1.000  C
  C29      1.0000 0.78860  0.28220  0.93474  Biso   1.000  C
  C30      1.0000 0.21140  0.71780  0.06526  Biso   1.000  C
  H25      1.0000 0.82470  0.33250  0.96740  Biso   1.000  H
  H26      1.0000 0.17530  0.66750  0.03260  Biso   1.000  H
  C31      1.0000 0.70370  0.21890  0.94640  Biso   1.000  C
  C32      1.0000 0.29630  0.78110  0.05360  Biso   1.000  C
  H27      1.0000 0.68310  0.22730  0.98680  Biso   1.000  H
  H28      1.0000 0.31690  0.77270  0.01320  Biso   1.000  H
  C33      1.0000 0.64980  0.14360  0.89820  Biso   1.000  C
  C34      1.0000 0.35020  0.85640  0.10180  Biso   1.000  C
  H29      1.0000 0.59350  0.10160  0.90650  Biso   1.000  H
  H30      1.0000 0.40650  0.89840  0.09350  Biso   1.000  H
  C35      1.0000 0.67940  0.13070  0.83780  Biso   1.000  C
  C36      1.0000 0.32060  0.86930  0.16220  Biso   1.000  C
  H31      1.0000 0.64300  0.08020  0.80540  Biso   1.000  H
  H32      1.0000 0.35700  0.91980  0.19460  Biso   1.000  H
  C37      1.0000 0.76370  0.19350  0.82580  Biso   1.000  C
  C38      1.0000 0.23630  0.80650  0.17420  Biso   1.000  C
  H33      1.0000 0.78370  0.18460  0.78520  Biso   1.000  H
  H34      1.0000 0.21630  0.81540  0.21480  Biso   1.000  H
  C39      1.0000 0.92190  0.45840  0.87134  Biso   1.000  C
  C40      1.0000 0.07810  0.54160  0.12866  Biso   1.000  C
  C41      1.0000 0.83110  0.47350  0.87340  Biso   1.000  C
  C42      1.0000 0.16890  0.52650  0.12660  Biso   1.000  C
  H35      1.0000 0.77370  0.42560  0.87270  Biso   1.000  H
  H36      1.0000 0.22630  0.57440  0.12730  Biso   1.000  H
  C43      1.0000 0.82580  0.55970  0.87640  Biso   1.000  C
  C44      1.0000 0.17420  0.44030  0.12360  Biso   1.000  C
  H37      1.0000 0.76480  0.56920  0.87700  Biso   1.000  H
  H38      1.0000 0.23520  0.43080  0.12300  Biso   1.000  H
  C45      1.0000 0.91130  0.63160  0.87848  Biso   1.000  C
  C46      1.0000 0.08870  0.36840  0.12152  Biso   1.000  C
  H39      1.0000 0.90770  0.68930  0.88080  Biso   1.000  H
  H40      1.0000 0.09230  0.31070  0.11920  Biso   1.000  H
  C47      1.0000 0.00200  0.61750  0.87716  Biso   1.000  C
  C48      1.0000 0.99800  0.38250  0.12284  Biso   1.000  C
  H41      1.0000 0.05930  0.66580  0.87860  Biso   1.000  H
  H42      1.0000 0.94070  0.33420  0.12140  Biso   1.000  H
  C49      1.0000 0.00760  0.53170  0.87375  Biso   1.000  C
  C50      1.0000 0.99240  0.46830  0.12625  Biso   1.000  C
  H43      1.0000 0.06880  0.52260  0.87300  Biso   1.000  H
  H44      1.0000 0.93120  0.47740  0.12700  Biso   1.000  H
  C51      1.0000 0.19440  0.39630  0.72360  Biso   1.000  C
  C52      1.0000 0.80560  0.60370  0.27640  Biso   1.000  C
  H45      1.0000 0.22490  0.43840  0.76580  Biso   1.000  H
  H46      1.0000 0.77510  0.56160  0.23420  Biso   1.000  H
  H47      1.0000 0.23220  0.41730  0.68970  Biso   1.000  H
  H48      1.0000 0.76780  0.58270  0.31030  Biso   1.000  H
  C53      1.0000 0.18100  0.22380  0.65322  Biso   1.000  C
  C54      1.0000 0.81900  0.77620  0.34678  Biso   1.000  C
  C55      1.0000 0.12890  0.13280  0.64061  Biso   1.000  C
  C56      1.0000 0.87110  0.86720  0.35939  Biso   1.000  C
  H49      1.0000 0.10730  0.10410  0.67590  Biso   1.000  H
  H50      1.0000 0.89270  0.89590  0.32410  Biso   1.000  H
  C57      1.0000 0.10850  0.08360  0.57600  Biso   1.000  C
  C58      1.0000 0.89150  0.91640  0.42400  Biso   1.000  C
  H51      1.0000 0.07450  0.02230  0.56810  Biso   1.000  H
  H52      1.0000 0.92550  0.97770  0.43190  Biso   1.000  H
  C59      1.0000 0.13940  0.12700  0.52340  Biso   1.000  C
  C60      1.0000 0.86060  0.87300  0.47660  Biso   1.000  C
  H53      1.0000 0.12400  0.09490  0.47960  Biso   1.000  H
  H54      1.0000 0.87600  0.90510  0.52040  Biso   1.000  H
  C61      1.0000 0.19240  0.21690  0.53500  Biso   1.000  C
  C62      1.0000 0.80760  0.78310  0.46500  Biso   1.000  C
  H55      1.0000 0.21370  0.24510  0.49940  Biso   1.000  H
  H56      1.0000 0.78630  0.75490  0.50060  Biso   1.000  H
  C63      1.0000 0.21470  0.26620  0.60020  Biso   1.000  C
  C64      1.0000 0.78530  0.73380  0.39980  Biso   1.000  C
  H57      1.0000 0.25160  0.32690  0.60830  Biso   1.000  H
  H58      1.0000 0.74840  0.67310  0.39170  Biso   1.000  H
  C65      1.0000 0.33360  0.30320  0.77712  Biso   1.000  C
  C66      1.0000 0.66640  0.69680  0.22288  Biso   1.000  C
  C67      1.0000 0.39130  0.37790  0.82610  Biso   1.000  C
  C68      1.0000 0.60870  0.62210  0.17390  Biso   1.000  C
  H59      1.0000 0.36630  0.42470  0.83380  Biso   1.000  H
  H60      1.0000 0.63370  0.57530  0.16620  Biso   1.000  H
  C69      1.0000 0.48580  0.38240  0.86320  Biso   1.000  C
  C70      1.0000 0.51420  0.61760  0.13680  Biso   1.000  C
  H61      1.0000 0.52320  0.43190  0.89640  Biso   1.000  H
  H62      1.0000 0.47680  0.56810  0.10360  Biso   1.000  H
  C71      1.0000 0.52470  0.31450  0.85150  Biso   1.000  C
  C72      1.0000 0.47530  0.68550  0.14850  Biso   1.000  C
  H63      1.0000 0.58830  0.31810  0.87640  Biso   1.000  H
  H64      1.0000 0.41170  0.68190  0.12360  Biso   1.000  H
  C73      1.0000 0.46850  0.24070  0.80260  Biso   1.000  C
  C74      1.0000 0.53150  0.75930  0.19740  Biso   1.000  C
  H65      1.0000 0.49460  0.19480  0.79430  Biso   1.000  H
  H66      1.0000 0.50540  0.80520  0.20570  Biso   1.000  H
  C75      1.0000 0.37330  0.23500  0.76570  Biso   1.000  C
  C76      1.0000 0.62670  0.76500  0.23430  Biso   1.000  C
  H67      1.0000 0.33580  0.18500  0.73300  Biso   1.000  H
  H68      1.0000 0.66420  0.81500  0.26700  Biso   1.000  H
  C77      1.0000 0.02850  0.35360  0.60132  Biso   1.000  C
  C78      1.0000 0.97150  0.64640  0.39868  Biso   1.000  C
  C79      1.0000 0.97080  0.26400  0.57698  Biso   1.000  C
  C80      1.0000 0.02920  0.73600  0.42302  Biso   1.000  C
  H69      1.0000 0.95120  0.22560  0.60780  Biso   1.000  H
  H70      1.0000 0.04880  0.77440  0.39220  Biso   1.000  H
  C81      1.0000 0.94250  0.23200  0.50797  Biso   1.000  C
  C82      1.0000 0.05750  0.76800  0.49203  Biso   1.000  C
  H71      1.0000 0.90450  0.17210  0.49250  Biso   1.000  H
  H72      1.0000 0.09550  0.82790  0.50750  Biso   1.000  H
  C83      1.0000 0.97050  0.28890  0.46150  Biso   1.000  C
  C84      1.0000 0.02950  0.71110  0.53850  Biso   1.000  C
  H73      1.0000 0.95110  0.26740  0.41480  Biso   1.000  H
  H74      1.0000 0.04890  0.73260  0.58520  Biso   1.000  H
  C85      1.0000 0.02750  0.37780  0.48490  Biso   1.000  C
  C86      1.0000 0.97250  0.62220  0.51510  Biso   1.000  C
  H75      1.0000 0.04670  0.41590  0.45380  Biso   1.000  H
  H76      1.0000 0.95330  0.58410  0.54620  Biso   1.000  H
  C87      1.0000 0.05630  0.41040  0.55472  Biso   1.000  C
  C88      1.0000 0.94370  0.58960  0.44528  Biso   1.000  C
  H77      1.0000 0.09420  0.47030  0.57010  Biso   1.000  H
  H78      1.0000 0.90580  0.52970  0.42990  Biso   1.000  H
  C89      1.0000 0.06760  0.50780  0.70077  Biso   1.000  C
  C90      1.0000 0.93240  0.49220  0.29923  Biso   1.000  C
  C91      1.0000 0.97490  0.52330  0.69100  Biso   1.000  C
  C92      1.0000 0.02510  0.47670  0.30900  Biso   1.000  C
  H79      1.0000 0.91480  0.47540  0.67970  Biso   1.000  H
  H80      1.0000 0.08520  0.52460  0.32030  Biso   1.000  H
  C93      1.0000 0.97290  0.61100  0.69840  Biso   1.000  C
  C94      1.0000 0.02710  0.38900  0.30160  Biso   1.000  C
  H81      1.0000 0.91140  0.62180  0.69210  Biso   1.000  H
  H82      1.0000 0.08860  0.37820  0.30790  Biso   1.000  H
  C95      1.0000 0.06150  0.68100  0.71490  Biso   1.000  C
  C96      1.0000 0.93850  0.31900  0.28510  Biso   1.000  C
  H83      1.0000 0.05970  0.73930  0.71970  Biso   1.000  H
  H84      1.0000 0.94030  0.26070  0.28030  Biso   1.000  H
  C97      1.0000 0.15290  0.66680  0.72440  Biso   1.000  C
  C98      1.0000 0.84710  0.33320  0.27560  Biso   1.000  C
  H85      1.0000 0.21250  0.71520  0.73540  Biso   1.000  H
  H86      1.0000 0.78750  0.28480  0.26460  Biso   1.000  H
  C99      1.0000 0.15670  0.57980  0.71770  Biso   1.000  C
  C100     1.0000 0.84330  0.42020  0.28230  Biso   1.000  C
  H87      1.0000 0.21870  0.57000  0.72460  Biso   1.000  H
  H88      1.0000 0.78130  0.43000  0.27540  Biso   1.000  H
  C101     1.0000 0.89080  0.08730  0.70633  Biso   1.000  C
  C102     1.0000 0.10920  0.91270  0.29367  Biso   1.000  C
  C103     1.0000 0.80000  0.03390  0.65786  Biso   1.000  C
  C104     1.0000 0.20000  0.96610  0.34214  Biso   1.000  C
  C105     1.0000 0.71550  0.98590  0.67980  Biso   1.000  C
  C106     1.0000 0.28450  0.01410  0.32020  Biso   1.000  C
  H89      1.0000 0.71760  0.98650  0.72630  Biso   1.000  H
  H90      1.0000 0.28240  0.01350  0.27370  Biso   1.000  H
  C107     1.0000 0.79810  0.03040  0.58866  Biso   1.000  C
  C108     1.0000 0.20190  0.96960  0.41134  Biso   1.000  C
  H91      1.0000 0.85590  0.06050  0.57450  Biso   1.000  H
  H92      1.0000 0.14410  0.93950  0.42550  Biso   1.000  H
  C109     1.0000 0.71080  0.98240  0.54090  Biso   1.000  C
  C110     1.0000 0.28920  0.01760  0.45910  Biso   1.000  C
  H93      1.0000 0.70990  0.98070  0.49450  Biso   1.000  H
  H94      1.0000 0.29010  0.01930  0.50550  Biso   1.000  H
  C111     1.0000 0.62790  0.93700  0.63100  Biso   1.000  C
  C112     1.0000 0.37210  0.06300  0.36900  Biso   1.000  C
  H95      1.0000 0.57120  0.90430  0.64520  Biso   1.000  H
  H96      1.0000 0.42880  0.09570  0.35480  Biso   1.000  H
  C113     1.0000 0.62390  0.93640  0.56099  Biso   1.000  C
  C114     1.0000 0.37610  0.06360  0.43901  Biso   1.000  C
  C115     1.0000 0.23530  0.09770  0.85990  Biso   1.000  C
  C116     1.0000 0.76470  0.90230  0.14010  Biso   1.000  C
  C117     1.0000 0.31210  0.06950  0.90010  Biso   1.000  C
  C118     1.0000 0.68790  0.93050  0.09990  Biso   1.000  C
  C119     1.0000 0.31390  0.98310  0.88517  Biso   1.000  C
  C120     1.0000 0.68610  0.01690  0.11483  Biso   1.000  C
  H97      1.0000 0.26620  0.94360  0.84870  Biso   1.000  H
  H98      1.0000 0.73380  0.05640  0.15130  Biso   1.000  H
  C121     1.0000 0.38410  0.12930  0.95433  Biso   1.000  C
  C122     1.0000 0.61590  0.87070  0.04567  Biso   1.000  C
  H99      1.0000 0.38340  0.18740  0.96430  Biso   1.000  H
  H100     1.0000 0.61660  0.81260  0.03570  Biso   1.000  H
  C123     1.0000 0.38710  0.95590  0.92478  Biso   1.000  C
  C124     1.0000 0.61290  0.04410  0.07522  Biso   1.000  C
  H101     1.0000 0.38770  0.89770  0.91490  Biso   1.000  H
  H102     1.0000 0.61230  0.10230  0.08510  Biso   1.000  H
  C125     1.0000 0.45640  0.10080  0.99306  Biso   1.000  C
  C126     1.0000 0.54360  0.89920  0.00694  Biso   1.000  C
  H103     1.0000 0.50410  0.14040  0.02950  Biso   1.000  H
  H104     1.0000 0.49590  0.85960  0.97050  Biso   1.000  H
  C127     1.0000 0.45980  0.01460  0.97920  Biso   1.000  C
  C128     1.0000 0.54020  0.98540  0.02080  Biso   1.000  C
  C129     1.0000 0.25750  0.76330  0.35980  Biso   1.000  C
  C130     1.0000 0.74250  0.23670  0.64020  Biso   1.000  C
  C131     1.0000 0.35070  0.80400  0.41069  Biso   1.000  C
  C132     1.0000 0.64930  0.19600  0.58931  Biso   1.000  C
  C133     1.0000 0.44330  0.81700  0.39290  Biso   1.000  C
  C134     1.0000 0.55670  0.18300  0.60710  Biso   1.000  C
  H105     1.0000 0.44520  0.79810  0.34840  Biso   1.000  H
  H106     1.0000 0.55480  0.20190  0.65160  Biso   1.000  H
  C135     1.0000 0.34720  0.82950  0.47700  Biso   1.000  C
  C136     1.0000 0.65280  0.17050  0.52300  Biso   1.000  C
  H107     1.0000 0.28540  0.81860  0.48900  Biso   1.000  H
  H108     1.0000 0.71460  0.18140  0.51100  Biso   1.000  H
  C137     1.0000 0.53170  0.85790  0.44180  Biso   1.000  C
  C138     1.0000 0.46830  0.14210  0.55820  Biso   1.000  C
  H109     1.0000 0.59350  0.86550  0.43030  Biso   1.000  H
  H110     1.0000 0.40650  0.13450  0.56970  Biso   1.000  H
  C139     1.0000 0.43640  0.87140  0.52575  Biso   1.000  C
  C140     1.0000 0.56360  0.12860  0.47425  Biso   1.000  C
  H111     1.0000 0.43390  0.88850  0.57050  Biso   1.000  H
  H112     1.0000 0.56610  0.11150  0.42950  Biso   1.000  H
  C141     1.0000 0.52930  0.88830  0.50896  Biso   1.000  C
  C142     1.0000 0.47070  0.11170  0.49104  Biso   1.000  C
  P9       1.0000 0.32647  0.59860  0.91429  Biso   1.000  P
  P10      1.0000 0.67353  0.40140  0.08571  Biso   1.000  P
  F1       1.0000 0.25232  0.65465  0.89338  Biso   1.000  F
  F2       1.0000 0.74768  0.34535  0.10662  Biso   1.000  F
  F3       1.0000 0.29040  0.58669  0.98399  Biso   1.000  F
  F4       1.0000 0.70960  0.41331  0.01601  Biso   1.000  F
  F5       1.0000 0.41561  0.68883  0.95030  Biso   1.000  F
  F6       1.0000 0.58439  0.31117  0.04970  Biso   1.000  F
  F7       1.0000 0.39926  0.54128  0.93521  Biso   1.000  F
  F8       1.0000 0.60074  0.45872  0.06479  Biso   1.000  F
  F9       1.0000 0.36270  0.60758  0.84381  Biso   1.000  F
  F10      1.0000 0.63730  0.39242  0.15619  Biso   1.000  F
  F11      1.0000 0.23703  0.50728  0.87724  Biso   1.000  F
  F12      1.0000 0.76297  0.49272  0.12276  Biso   1.000  F
  P11      1.0000 0.70746  0.06976  0.32368  Biso   1.000  P
  P12      1.0000 0.29254  0.93024  0.67632  Biso   1.000  P
  F13      1.0000 0.69450  0.02180  0.38630  Biso   1.000  F
  F14      1.0000 0.30550  0.97820  0.61370  Biso   1.000  F
  F15      1.0000 0.70470  0.16010  0.36570  Biso   1.000  F
  F16      1.0000 0.29530  0.83990  0.63430  Biso   1.000  F
  F17      1.0000 0.59350  0.04160  0.29690  Biso   1.000  F
  F18      1.0000 0.40650  0.95840  0.70310  Biso   1.000  F
  F19      1.0000 0.72990  0.12370  0.26387  Biso   1.000  F
  F20      1.0000 0.27010  0.87630  0.73613  Biso   1.000  F
  F21      1.0000 0.82700  0.10230  0.35350  Biso   1.000  F
  F22      1.0000 0.17300  0.89770  0.64650  Biso   1.000  F
  F23      1.0000 0.71800  0.98520  0.28253  Biso   1.000  F
  F24      1.0000 0.28200  0.01480  0.71747  Biso   1.000  F
  C143     1.0000 0.71020  0.36680  0.43770  Biso   1.000  C
  C144     1.0000 0.28980  0.63320  0.56230  Biso   1.000  C
  Cl1      1.0000 0.66370  0.45280  0.40710  Biso   1.000  Cl
  Cl2      1.0000 0.33630  0.54720  0.59290  Biso   1.000  Cl
  Cl3      1.0000 0.66250  0.45460  0.40560  Biso   1.000  Cl
  Cl4      1.0000 0.33750  0.54540  0.59440  Biso   1.000  Cl
  Cl5      1.0000 0.66230  0.44200  0.41120  Biso   1.000  Cl
  Cl6      1.0000 0.33770  0.55800  0.58880  Biso   1.000  Cl
  Cl7      1.0000 0.78350  0.39970  0.52150  Biso   1.000  Cl
  Cl8      1.0000 0.21650  0.60030  0.47850  Biso   1.000  Cl
  Cl9      1.0000 0.77730  0.40150  0.52270  Biso   1.000  Cl
  Cl10     1.0000 0.22270  0.59850  0.47730  Biso   1.000  Cl
  C145     1.0000 0.57880  0.43800  0.71880  Biso   1.000  C
  C146     1.0000 0.42120  0.56200  0.28120  Biso   1.000  C
  Cl11     1.0000 0.66580  0.42770  0.68160  Biso   1.000  Cl
  Cl12     1.0000 0.33420  0.57230  0.31840  Biso   1.000  Cl
  Cl13     1.0000 0.53960  0.52380  0.72350  Biso   1.000  Cl
  Cl14     1.0000 0.46040  0.47620  0.27650  Biso   1.000  Cl
  Cl15     1.0000 0.48310  0.41260  0.63940  Biso   1.000  Cl
  Cl16     1.0000 0.51690  0.58740  0.36060  Biso   1.000  Cl
  C147     1.0000 0.35250  0.40090  0.43780  Biso   1.000  C
  C148     1.0000 0.64750  0.59910  0.56220  Biso   1.000  C
  C149     1.0000 0.39460  0.40260  0.44300  Biso   1.000  C
  C150     1.0000 0.60540  0.59740  0.55700  Biso   1.000  C
  C151     1.0000 0.36220  0.28120  0.40430  Biso   1.000  C
  C152     1.0000 0.63780  0.71880  0.59570  Biso   1.000  C
  Cl17     1.0000 0.45180  0.35490  0.50160  Biso   1.000  Cl
  Cl18     1.0000 0.54820  0.64510  0.49840  Biso   1.000  Cl
  Cl19     1.0000 0.30110  0.31830  0.37930  Biso   1.000  Cl
  Cl20     1.0000 0.69890  0.68170  0.62070  Biso   1.000  Cl
  C153     1.0000 0.52610  0.20010  0.20880  Biso   1.000  C
  C154     1.0000 0.47390  0.79990  0.79120  Biso   1.000  C
  H113     1.0000 0.58110  0.17880  0.22760  Biso   1.000  H
  H114     1.0000 0.41890  0.82120  0.77240  Biso   1.000  H
  H115     1.0000 0.54680  0.23720  0.17490  Biso   1.000  H
  H116     1.0000 0.45320  0.76280  0.82510  Biso   1.000  H
  Cl21     1.0000 0.50250  0.26357  0.27351  Biso   1.000  Cl
  Cl22     1.0000 0.49750  0.73643  0.72649  Biso   1.000  Cl
  Cl23     1.0000 0.41974  0.10886  0.16932  Biso   1.000  Cl
  Cl24     1.0000 0.58026  0.89114  0.83068  Biso   1.000  Cl
  C155     1.0000 0.97750  0.08380  0.25950  Biso   1.000  C
  C156     1.0000 0.02250  0.91620  0.74050  Biso   1.000  C
  H117     1.0000 0.91680  0.08700  0.27280  Biso   1.000  H
  H118     1.0000 0.08320  0.91300  0.72720  Biso   1.000  H
  H119     1.0000 0.97220  0.02120  0.25180  Biso   1.000  H
  H120     1.0000 0.02780  0.97880  0.74820  Biso   1.000  H
  Cl25     1.0000 0.07900  0.13780  0.32604  Biso   1.000  Cl
  Cl26     1.0000 0.92100  0.86220  0.67396  Biso   1.000  Cl
  Cl27     1.0000 0.98141  0.12535  0.18253  Biso   1.000  Cl
  Cl28     1.0000 0.01859  0.87465  0.81747  Biso   1.000  Cl
