data_image0
_cell_length_a       12.6733
_cell_length_b       12.7467
_cell_length_c       28.838
_cell_angle_alpha    89.15
_cell_angle_beta     80.238
_cell_angle_gamma    72.68

_symmetry_space_group_name_H-M    "P 1"
_symmetry_int_tables_number       1

loop_
  _symmetry_equiv_pos_as_xyz
  'x, y, z'

loop_
  _atom_site_label
  _atom_site_occupancy
  _atom_site_fract_x
  _atom_site_fract_y
  _atom_site_fract_z
  _atom_site_thermal_displace_type
  _atom_site_B_iso_or_equiv
  _atom_site_type_symbol
  C1       1.0000 0.83300  0.53690  0.22326  Biso   1.000  C
  C2       1.0000 0.16700  0.46310  0.77674  Biso   1.000  C
  H1       1.0000 0.86800  0.59300  0.23070  Biso   1.000  H
  H2       1.0000 0.13200  0.40700  0.76930  Biso   1.000  H
  H3       1.0000 0.80470  0.55560  0.19330  Biso   1.000  H
  H4       1.0000 0.19530  0.44440  0.80670  Biso   1.000  H
  C3       1.0000 0.03910  0.41980  0.16577  Biso   1.000  C
  C4       1.0000 0.96090  0.58020  0.83423  Biso   1.000  C
  C5       1.0000 0.00270  0.44030  0.12279  Biso   1.000  C
  C6       1.0000 0.99730  0.55970  0.87721  Biso   1.000  C
  H5       1.0000 0.92760  0.44450  0.12060  Biso   1.000  H
  H6       1.0000 0.07240  0.55550  0.87940  Biso   1.000  H
  C7       1.0000 0.07500  0.45490  0.08286  Biso   1.000  C
  C8       1.0000 0.92500  0.54510  0.91714  Biso   1.000  C
  H7       1.0000 0.04940  0.46860  0.05360  Biso   1.000  H
  H8       1.0000 0.95060  0.53140  0.94640  Biso   1.000  H
  C9       1.0000 0.18490  0.44930  0.08591  Biso   1.000  C
  C10      1.0000 0.81510  0.55070  0.91409  Biso   1.000  C
  H9       1.0000 0.23450  0.45970  0.05880  Biso   1.000  H
  H10      1.0000 0.76550  0.54030  0.94120  Biso   1.000  H
  C11      1.0000 0.22150  0.42840  0.12851  Biso   1.000  C
  C12      1.0000 0.77850  0.57160  0.87149  Biso   1.000  C
  H11      1.0000 0.29650  0.42480  0.13060  Biso   1.000  H
  H12      1.0000 0.70350  0.57520  0.86940  Biso   1.000  H
  C13      1.0000 0.14990  0.41270  0.16849  Biso   1.000  C
  C14      1.0000 0.85010  0.58730  0.83151  Biso   1.000  C
  H13      1.0000 0.17640  0.39720  0.19750  Biso   1.000  H
  H14      1.0000 0.82360  0.60280  0.80250  Biso   1.000  H
  C15      1.0000 0.01100  0.39210  0.26639  Biso   1.000  C
  C16      1.0000 0.98900  0.60790  0.73361  Biso   1.000  C
  C17      1.0000 0.04090  0.48080  0.28275  Biso   1.000  C
  C18      1.0000 0.95910  0.51920  0.71725  Biso   1.000  C
  H15      1.0000 0.02420  0.54830  0.26710  Biso   1.000  H
  H16      1.0000 0.97580  0.45170  0.73290  Biso   1.000  H
  C19      1.0000 0.09440  0.47100  0.32121  Biso   1.000  C
  C20      1.0000 0.90560  0.52900  0.67879  Biso   1.000  C
  H17      1.0000 0.11280  0.53190  0.33230  Biso   1.000  H
  H18      1.0000 0.88720  0.46810  0.66770  Biso   1.000  H
  C21      1.0000 0.12090  0.37220  0.34348  Biso   1.000  C
  C22      1.0000 0.87910  0.62780  0.65652  Biso   1.000  C
  H19      1.0000 0.15830  0.36530  0.36970  Biso   1.000  H
  H20      1.0000 0.84170  0.63470  0.63030  Biso   1.000  H
  C23      1.0000 0.09340  0.28290  0.32793  Biso   1.000  C
  C24      1.0000 0.90660  0.71710  0.67207  Biso   1.000  C
  H21      1.0000 0.11150  0.21530  0.34350  Biso   1.000  H
  H22      1.0000 0.88850  0.78470  0.65650  Biso   1.000  H
  C25      1.0000 0.03880  0.29320  0.28918  Biso   1.000  C
  C26      1.0000 0.96120  0.70680  0.71082  Biso   1.000  C
  H23      1.0000 0.02050  0.23200  0.27820  Biso   1.000  H
  H24      1.0000 0.97950  0.76800  0.72180  Biso   1.000  H
  C27      1.0000 0.60520  0.66590  0.26479  Biso   1.000  C
  C28      1.0000 0.39480  0.33410  0.73521  Biso   1.000  C
  C29      1.0000 0.57690  0.69870  0.22145  Biso   1.000  C
  C30      1.0000 0.42310  0.30130  0.77855  Biso   1.000  C
  H25      1.0000 0.62150  0.65990  0.19360  Biso   1.000  H
  H26      1.0000 0.37850  0.34010  0.80640  Biso   1.000  H
  C31      1.0000 0.48400  0.78790  0.21841  Biso   1.000  C
  C32      1.0000 0.51600  0.21210  0.78159  Biso   1.000  C
  H27      1.0000 0.46480  0.80990  0.18850  Biso   1.000  H
  H28      1.0000 0.53520  0.19010  0.81150  Biso   1.000  H
  C33      1.0000 0.41910  0.84500  0.25902  Biso   1.000  C
  C34      1.0000 0.58090  0.15500  0.74098  Biso   1.000  C
  H29      1.0000 0.35580  0.90660  0.25690  Biso   1.000  H
  H30      1.0000 0.64420  0.09340  0.74310  Biso   1.000  H
  C35      1.0000 0.44550  0.81320  0.30193  Biso   1.000  C
  C36      1.0000 0.55450  0.18680  0.69807  Biso   1.000  C
  H31      1.0000 0.40030  0.85260  0.32960  Biso   1.000  H
  H32      1.0000 0.59970  0.14740  0.67040  Biso   1.000  H
  C37      1.0000 0.53810  0.72350  0.30559  Biso   1.000  C
  C38      1.0000 0.46190  0.27650  0.69441  Biso   1.000  C
  H33      1.0000 0.55580  0.70140  0.33570  Biso   1.000  H
  H34      1.0000 0.44420  0.29860  0.66430  Biso   1.000  H
  C39      1.0000 0.76190  0.56350  0.32428  Biso   1.000  C
  C40      1.0000 0.23810  0.43650  0.67572  Biso   1.000  C
  C41      1.0000 0.78520  0.66160  0.33301  Biso   1.000  C
  C42      1.0000 0.21480  0.33840  0.66699  Biso   1.000  C
  H35      1.0000 0.77970  0.71550  0.30970  Biso   1.000  H
  H36      1.0000 0.22030  0.28450  0.69030  Biso   1.000  H
  C43      1.0000 0.81550  0.68080  0.37438  Biso   1.000  C
  C44      1.0000 0.18450  0.31920  0.62562  Biso   1.000  C
  H37      1.0000 0.82990  0.74820  0.37980  Biso   1.000  H
  H38      1.0000 0.17010  0.25180  0.62020  Biso   1.000  H
  C45      1.0000 0.82530  0.60390  0.40827  Biso   1.000  C
  C46      1.0000 0.17470  0.39610  0.59173  Biso   1.000  C
  H39      1.0000 0.84370  0.61850  0.43760  Biso   1.000  H
  H40      1.0000 0.15630  0.38150  0.56240  Biso   1.000  H
  C47      1.0000 0.80800  0.50400  0.39924  Biso   1.000  C
  C48      1.0000 0.19200  0.49600  0.60076  Biso   1.000  C
  H41      1.0000 0.81870  0.44870  0.42190  Biso   1.000  H
  H42      1.0000 0.18130  0.55130  0.57810  Biso   1.000  H
  C49      1.0000 0.77530  0.48440  0.35771  Biso   1.000  C
  C50      1.0000 0.22470  0.51560  0.64229  Biso   1.000  C
  H43      1.0000 0.76210  0.41650  0.35220  Biso   1.000  H
  H44      1.0000 0.23790  0.58350  0.64780  Biso   1.000  H
  C51      1.0000 0.65950  0.34260  0.14700  Biso   1.000  C
  C52      1.0000 0.34050  0.65740  0.85300  Biso   1.000  C
  H45      1.0000 0.61990  0.32380  0.12300  Biso   1.000  H
  H46      1.0000 0.38010  0.67620  0.87700  Biso   1.000  H
  H47      1.0000 0.68150  0.40880  0.13690  Biso   1.000  H
  H48      1.0000 0.31850  0.59120  0.86310  Biso   1.000  H
  C53      1.0000 0.87350  0.21500  0.09219  Biso   1.000  C
  C54      1.0000 0.12650  0.78500  0.90781  Biso   1.000  C
  C55      1.0000 0.86830  0.30200  0.06238  Biso   1.000  C
  C56      1.0000 0.13170  0.69800  0.93762  Biso   1.000  C
  H49      1.0000 0.81350  0.37100  0.07090  Biso   1.000  H
  H50      1.0000 0.18650  0.62900  0.92910  Biso   1.000  H
  C57      1.0000 0.94280  0.28890  0.02007  Biso   1.000  C
  C58      1.0000 0.05720  0.71110  0.97993  Biso   1.000  C
  H51      1.0000 0.93870  0.34900  0.99990  Biso   1.000  H
  H52      1.0000 0.06130  0.65100  0.00010  Biso   1.000  H
  C59      1.0000 0.02270  0.18880  0.00730  Biso   1.000  C
  C60      1.0000 0.97730  0.81120  0.99270  Biso   1.000  C
  H53      1.0000 0.07430  0.18050  0.97860  Biso   1.000  H
  H54      1.0000 0.92570  0.81950  0.02140  Biso   1.000  H
  C61      1.0000 0.02770  0.10050  0.03643  Biso   1.000  C
  C62      1.0000 0.97230  0.89950  0.96357  Biso   1.000  C
  H55      1.0000 0.08170  0.03130  0.02730  Biso   1.000  H
  H56      1.0000 0.91830  0.96870  0.97270  Biso   1.000  H
  C63      1.0000 0.95390  0.11330  0.07874  Biso   1.000  C
  C64      1.0000 0.04610  0.88670  0.92126  Biso   1.000  C
  H57      1.0000 0.95790  0.05280  0.09870  Biso   1.000  H
  H58      1.0000 0.04210  0.94720  0.90130  Biso   1.000  H
  C65      1.0000 0.73760  0.10690  0.14931  Biso   1.000  C
  C66      1.0000 0.26240  0.89310  0.85069  Biso   1.000  C
  C67      1.0000 0.70900  0.07470  0.10855  Biso   1.000  C
  C68      1.0000 0.29100  0.92530  0.89145  Biso   1.000  C
  H59      1.0000 0.71640  0.11470  0.08070  Biso   1.000  H
  H60      1.0000 0.28360  0.88530  0.91930  Biso   1.000  H
  C69      1.0000 0.66960  0.98390  0.10835  Biso   1.000  C
  C70      1.0000 0.33040  0.01610  0.89165  Biso   1.000  C
  H61      1.0000 0.65140  0.96090  0.08030  Biso   1.000  H
  H62      1.0000 0.34860  0.03910  0.91970  Biso   1.000  H
  C71      1.0000 0.65700  0.92750  0.14887  Biso   1.000  C
  C72      1.0000 0.34300  0.07250  0.85113  Biso   1.000  C
  H63      1.0000 0.62930  0.86590  0.14870  Biso   1.000  H
  H64      1.0000 0.37070  0.13410  0.85130  Biso   1.000  H
  C73      1.0000 0.68390  0.95890  0.18948  Biso   1.000  C
  C74      1.0000 0.31610  0.04110  0.81052  Biso   1.000  C
  H65      1.0000 0.67350  0.91990  0.21740  Biso   1.000  H
  H66      1.0000 0.32650  0.08010  0.78260  Biso   1.000  H
  C75      1.0000 0.72650  0.04820  0.18991  Biso   1.000  C
  C76      1.0000 0.27350  0.95180  0.81009  Biso   1.000  C
  H67      1.0000 0.74770  0.06850  0.21770  Biso   1.000  H
  H68      1.0000 0.25230  0.93150  0.78230  Biso   1.000  H
  C77      1.0000 0.45160  0.49490  0.19336  Biso   1.000  C
  C78      1.0000 0.54840  0.50510  0.80664  Biso   1.000  C
  C79      1.0000 0.45400  0.55380  0.15227  Biso   1.000  C
  C80      1.0000 0.54600  0.44620  0.84773  Biso   1.000  C
  H69      1.0000 0.51750  0.53200  0.12780  Biso   1.000  H
  H70      1.0000 0.48250  0.46800  0.87220  Biso   1.000  H
  C81      1.0000 0.36360  0.64430  0.14696  Biso   1.000  C
  C82      1.0000 0.63640  0.35570  0.85304  Biso   1.000  C
  H71      1.0000 0.36590  0.68420  0.11890  Biso   1.000  H
  H72      1.0000 0.63410  0.31580  0.88110  Biso   1.000  H
  C83      1.0000 0.27080  0.67670  0.18219  Biso   1.000  C
  C84      1.0000 0.72920  0.32330  0.81781  Biso   1.000  C
  H73      1.0000 0.20940  0.73880  0.17840  Biso   1.000  H
  H74      1.0000 0.79060  0.26120  0.82160  Biso   1.000  H
  C85      1.0000 0.26720  0.61850  0.22302  Biso   1.000  C
  C86      1.0000 0.73280  0.38150  0.77698  Biso   1.000  C
  H75      1.0000 0.20300  0.64010  0.24710  Biso   1.000  H
  H76      1.0000 0.79700  0.35990  0.75290  Biso   1.000  H
  C87      1.0000 0.35680  0.52900  0.22875  Biso   1.000  C
  C88      1.0000 0.64320  0.47100  0.77125  Biso   1.000  C
  H77      1.0000 0.35410  0.49000  0.25700  Biso   1.000  H
  H78      1.0000 0.64590  0.51000  0.74300  Biso   1.000  H
  C89      1.0000 0.48880  0.27090  0.21025  Biso   1.000  C
  C90      1.0000 0.51120  0.72910  0.78975  Biso   1.000  C
  C91      1.0000 0.45890  0.22990  0.17187  Biso   1.000  C
  C92      1.0000 0.54110  0.77010  0.82813  Biso   1.000  C
  H79      1.0000 0.48370  0.25000  0.14100  Biso   1.000  H
  H80      1.0000 0.51630  0.75000  0.85900  Biso   1.000  H
  C93      1.0000 0.39280  0.15940  0.17829  Biso   1.000  C
  C94      1.0000 0.60720  0.84060  0.82171  Biso   1.000  C
  H81      1.0000 0.37430  0.12990  0.15180  Biso   1.000  H
  H82      1.0000 0.62570  0.87010  0.84820  Biso   1.000  H
  C95      1.0000 0.35410  0.13250  0.22322  Biso   1.000  C
  C96      1.0000 0.64590  0.86750  0.77678  Biso   1.000  C
  H83      1.0000 0.30620  0.08700  0.22760  Biso   1.000  H
  H84      1.0000 0.69380  0.91300  0.77240  Biso   1.000  H
  C97      1.0000 0.38480  0.17140  0.26173  Biso   1.000  C
  C98      1.0000 0.61520  0.82860  0.73827  Biso   1.000  C
  H85      1.0000 0.35990  0.15100  0.29250  Biso   1.000  H
  H86      1.0000 0.64010  0.84900  0.70750  Biso   1.000  H
  C99      1.0000 0.45260  0.24060  0.25528  Biso   1.000  C
  C100     1.0000 0.54740  0.75940  0.74472  Biso   1.000  C
  H87      1.0000 0.47400  0.26720  0.28170  Biso   1.000  H
  H88      1.0000 0.52600  0.73280  0.71830  Biso   1.000  H
  C101     1.0000 0.79920  0.14180  0.30062  Biso   1.000  C
  C102     1.0000 0.20080  0.85820  0.69938  Biso   1.000  C
  C103     1.0000 0.76830  0.07820  0.33922  Biso   1.000  C
  C104     1.0000 0.23170  0.92180  0.66078  Biso   1.000  C
  C105     1.0000 0.82890  0.05720  0.37617  Biso   1.000  C
  C106     1.0000 0.17110  0.94280  0.62383  Biso   1.000  C
  H89      1.0000 0.89340  0.08120  0.37530  Biso   1.000  H
  H90      1.0000 0.10660  0.91880  0.62470  Biso   1.000  H
  C107     1.0000 0.67450  0.04130  0.33967  Biso   1.000  C
  C108     1.0000 0.32550  0.95870  0.66033  Biso   1.000  C
  H91      1.0000 0.63470  0.05450  0.31400  Biso   1.000  H
  H92      1.0000 0.36530  0.94550  0.68600  Biso   1.000  H
  C109     1.0000 0.79320  0.00070  0.41421  Biso   1.000  C
  C110     1.0000 0.20680  0.99930  0.58579  Biso   1.000  C
  H93      1.0000 0.83390  0.98630  0.43960  Biso   1.000  H
  H94      1.0000 0.16610  0.01370  0.56040  Biso   1.000  H
  C111     1.0000 0.64050  0.98520  0.37810  Biso   1.000  C
  C112     1.0000 0.35950  0.01480  0.62190  Biso   1.000  C
  H95      1.0000 0.57670  0.96020  0.37880  Biso   1.000  H
  H96      1.0000 0.42330  0.03980  0.62120  Biso   1.000  H
  C113     1.0000 0.69930  0.96490  0.41586  Biso   1.000  C
  C114     1.0000 0.30070  0.03510  0.58414  Biso   1.000  C
  C115     1.0000 0.66540  0.90800  0.45780  Biso   1.000  C
  C116     1.0000 0.33460  0.09200  0.54220  Biso   1.000  C
  H97      1.0000 0.71020  0.89880  0.48170  Biso   1.000  H
  H98      1.0000 0.28980  0.10120  0.51830  Biso   1.000  H
  C117     1.0000 0.57850  0.86800  0.46579  Biso   1.000  C
  C118     1.0000 0.42150  0.13200  0.53421  Biso   1.000  C
  H99      1.0000 0.53350  0.87550  0.44210  Biso   1.000  H
  H100     1.0000 0.46650  0.12450  0.55790  Biso   1.000  H
  C119     1.0000 0.54770  0.81330  0.50874  Biso   1.000  C
  C120     1.0000 0.45230  0.18670  0.49126  Biso   1.000  C
  C121     1.0000 0.61600  0.78540  0.54303  Biso   1.000  C
  C122     1.0000 0.38400  0.21460  0.45697  Biso   1.000  C
  H101     1.0000 0.68700  0.79850  0.53770  Biso   1.000  H
  H102     1.0000 0.31300  0.20150  0.46230  Biso   1.000  H
  C123     1.0000 0.44510  0.78990  0.51642  Biso   1.000  C
  C124     1.0000 0.55490  0.21010  0.48358  Biso   1.000  C
  H103     1.0000 0.39840  0.80640  0.49310  Biso   1.000  H
  H104     1.0000 0.60160  0.19360  0.50690  Biso   1.000  H
  C125     1.0000 0.58310  0.73950  0.58451  Biso   1.000  C
  C126     1.0000 0.41690  0.26050  0.41549  Biso   1.000  C
  H105     1.0000 0.63000  0.72220  0.60770  Biso   1.000  H
  H106     1.0000 0.37000  0.27780  0.39230  Biso   1.000  H
  C127     1.0000 0.41090  0.74280  0.55777  Biso   1.000  C
  C128     1.0000 0.58910  0.25720  0.44223  Biso   1.000  C
  H107     1.0000 0.34120  0.72710  0.56270  Biso   1.000  H
  H108     1.0000 0.65880  0.27290  0.43730  Biso   1.000  H
  C129     1.0000 0.47910  0.71880  0.59176  Biso   1.000  C
  C130     1.0000 0.52090  0.28120  0.40824  Biso   1.000  C
  C131     1.0000 0.44190  0.67770  0.63625  Biso   1.000  C
  C132     1.0000 0.55810  0.32230  0.36375  Biso   1.000  C
  C133     1.0000 0.10680  0.10070  0.16361  Biso   1.000  C
  C134     1.0000 0.89320  0.89930  0.83639  Biso   1.000  C
  C135     1.0000 0.20410  0.06690  0.12780  Biso   1.000  C
  C136     1.0000 0.79590  0.93310  0.87220  Biso   1.000  C
  C137     1.0000 0.21890  0.14130  0.09288  Biso   1.000  C
  C138     1.0000 0.78110  0.85870  0.90712  Biso   1.000  C
  H109     1.0000 0.16550  0.21200  0.09350  Biso   1.000  H
  H110     1.0000 0.83450  0.78800  0.90650  Biso   1.000  H
  C139     1.0000 0.28280  0.96360  0.12786  Biso   1.000  C
  C140     1.0000 0.71720  0.03640  0.87214  Biso   1.000  C
  H111     1.0000 0.27310  0.91380  0.15190  Biso   1.000  H
  H112     1.0000 0.72690  0.08620  0.84810  Biso   1.000  H
  C141     1.0000 0.31130  0.11090  0.05778  Biso   1.000  C
  C142     1.0000 0.68870  0.88910  0.94222  Biso   1.000  C
  H113     1.0000 0.32190  0.16130  0.03420  Biso   1.000  H
  H114     1.0000 0.67810  0.83870  0.96580  Biso   1.000  H
  C143     1.0000 0.37560  0.93510  0.09215  Biso   1.000  C
  C144     1.0000 0.62440  0.06490  0.90785  Biso   1.000  C
  H115     1.0000 0.43030  0.86550  0.09210  Biso   1.000  H
  H116     1.0000 0.56970  0.13450  0.90790  Biso   1.000  H
  C145     1.0000 0.39000  0.00690  0.05630  Biso   1.000  C
  C146     1.0000 0.61000  0.99310  0.94370  Biso   1.000  C
  C147     1.0000 0.48740  0.97050  0.01829  Biso   1.000  C
  C148     1.0000 0.51260  0.02950  0.98171  Biso   1.000  C
  H117     1.0000 0.53710  0.89860  0.01990  Biso   1.000  H
  H118     1.0000 0.46290  0.10140  0.98010  Biso   1.000  H
  C149     1.0000 0.95640  0.18320  0.50747  Biso   1.000  C
  C150     1.0000 0.04360  0.81680  0.49253  Biso   1.000  C
  C151     1.0000 0.88040  0.14080  0.68599  Biso   1.000  C
  C152     1.0000 0.11960  0.85920  0.31401  Biso   1.000  C
  H119     1.0000 0.88600  0.10490  0.65510  Biso   1.000  H
  H120     1.0000 0.11400  0.89510  0.34490  Biso   1.000  H
  H121     1.0000 0.80270  0.18980  0.69520  Biso   1.000  H
  H122     1.0000 0.19730  0.81020  0.30480  Biso   1.000  H
  C153     1.0000 0.40340  0.64480  0.00207  Biso   1.000  C
  C154     1.0000 0.59660  0.35520  0.99793  Biso   1.000  C
  H123     1.0000 0.43970  0.61890  0.02970  Biso   1.000  H
  H124     1.0000 0.56030  0.38110  0.97030  Biso   1.000  H
  H125     1.0000 0.36490  0.59160  0.99480  Biso   1.000  H
  H126     1.0000 0.63510  0.40840  0.00520  Biso   1.000  H
  C155     1.0000 0.96500  0.74570  0.14546  Biso   1.000  C
  C156     1.0000 0.03500  0.25430  0.85454  Biso   1.000  C
  H127     1.0000 0.99300  0.66510  0.13920  Biso   1.000  H
  H128     1.0000 0.00700  0.33490  0.86080  Biso   1.000  H
  H129     1.0000 0.88850  0.77230  0.13770  Biso   1.000  H
  H130     1.0000 0.11150  0.22770  0.86230  Biso   1.000  H
  C157     1.0000 0.66630  0.38660  0.58690  Biso   1.000  C
  C158     1.0000 0.33370  0.61340  0.41310  Biso   1.000  C
  N1       1.0000 0.82040  0.19410  0.27033  Biso   1.000  N
  N2       1.0000 0.17960  0.80590  0.72967  Biso   1.000  N
  N3       1.0000 0.41110  0.64950  0.67262  Biso   1.000  N
  N4       1.0000 0.58890  0.35050  0.32738  Biso   1.000  N
  N5       1.0000 0.02580  0.13359  0.19106  Biso   1.000  N
  N6       1.0000 0.97420  0.86641  0.80894  Biso   1.000  N
  F1       1.0000 0.64836  0.55638  0.05347  Biso   1.000  F
  F2       1.0000 0.35164  0.44362  0.94653  Biso   1.000  F
  F3       1.0000 0.69220  0.70444  0.02142  Biso   1.000  F
  F4       1.0000 0.30780  0.29556  0.97858  Biso   1.000  F
  F5       1.0000 0.73682  0.56827  0.11396  Biso   1.000  F
  F6       1.0000 0.26318  0.43173  0.88604  Biso   1.000  F
  F7       1.0000 0.78249  0.71519  0.08176  Biso   1.000  F
  F8       1.0000 0.21751  0.28481  0.91824  Biso   1.000  F
  F9       1.0000 0.82930  0.55682  0.03850  Biso   1.000  F
  F10      1.0000 0.17070  0.44318  0.96150  Biso   1.000  F
  F11      1.0000 0.60099  0.71581  0.09660  Biso   1.000  F
  F12      1.0000 0.39901  0.28419  0.90340  Biso   1.000  F
  F13      1.0000 0.80470  0.00378  0.53040  Biso   1.000  F
  F14      1.0000 0.19530  0.99622  0.46960  Biso   1.000  F
  F15      1.0000 0.75544  0.12194  0.59407  Biso   1.000  F
  F16      1.0000 0.24456  0.87806  0.40593  Biso   1.000  F
  F17      1.0000 0.76346  0.97907  0.64196  Biso   1.000  F
  F18      1.0000 0.23654  0.02093  0.35804  Biso   1.000  F
  F19      1.0000 0.81296  0.86084  0.57825  Biso   1.000  F
  F20      1.0000 0.18704  0.13916  0.42175  Biso   1.000  F
  F21      1.0000 0.65436  0.00591  0.58590  Biso   1.000  F
  F22      1.0000 0.34564  0.99409  0.41410  Biso   1.000  F
  F23      1.0000 0.91364  0.97738  0.58666  Biso   1.000  F
  F24      1.0000 0.08636  0.02262  0.41334  Biso   1.000  F
  P1       1.0000 0.93901  0.40018  0.21646  Biso   1.000  P
  P2       1.0000 0.06099  0.59982  0.78354  Biso   1.000  P
  P3       1.0000 0.71505  0.53863  0.27058  Biso   1.000  P
  P4       1.0000 0.28495  0.46137  0.72942  Biso   1.000  P
  P5       1.0000 0.78595  0.22809  0.15042  Biso   1.000  P
  P6       1.0000 0.21405  0.77191  0.84958  Biso   1.000  P
  P7       1.0000 0.56375  0.37370  0.20388  Biso   1.000  P
  P8       1.0000 0.43625  0.62630  0.79612  Biso   1.000  P
  P9       1.0000 0.71579  0.63699  0.06714  Biso   1.000  P
  P10      1.0000 0.28421  0.36301  0.93286  Biso   1.000  P
  P11      1.0000 0.78348  0.99128  0.58640  Biso   1.000  P
  P12      1.0000 0.21652  0.00872  0.41360  Biso   1.000  P
  Cu1      1.0000 0.87267  0.25503  0.20947  Biso   1.000  Cu
  Cu2      1.0000 0.12733  0.74497  0.79053  Biso   1.000  Cu
  Cu3      1.0000 0.36019  0.59799  0.73429  Biso   1.000  Cu
  Cu4      1.0000 0.63981  0.40201  0.26571  Biso   1.000  Cu
  Cl1      1.0000 0.83870  0.25450  0.48440  Biso   1.000  Cl
  Cl2      1.0000 0.16130  0.74550  0.51560  Biso   1.000  Cl
  Cl3      1.0000 0.96860  0.24330  0.56075  Biso   1.000  Cl
  Cl4      1.0000 0.03140  0.75670  0.43925  Biso   1.000  Cl
  Cl5      1.0000 0.90955  0.03901  0.72840  Biso   1.000  Cl
  Cl6      1.0000 0.09045  0.96099  0.27160  Biso   1.000  Cl
  Cl7      1.0000 0.97473  0.21935  0.68102  Biso   1.000  Cl
  Cl8      1.0000 0.02527  0.78065  0.31898  Biso   1.000  Cl
  Cl9      1.0000 0.30352  0.77436  0.01635  Biso   1.000  Cl
  Cl10     1.0000 0.69648  0.22564  0.98365  Biso   1.000  Cl
  Cl11     1.0000 0.50596  0.64840  0.95416  Biso   1.000  Cl
  Cl12     1.0000 0.49404  0.35160  0.04584  Biso   1.000  Cl
  Cl13     1.0000 0.95859  0.77431  0.20570  Biso   1.000  Cl
  Cl14     1.0000 0.04141  0.22569  0.79430  Biso   1.000  Cl
  Cl15     1.0000 0.05293  0.80798  0.10926  Biso   1.000  Cl
  Cl16     1.0000 0.94707  0.19202  0.89074  Biso   1.000  Cl
  Cl17     1.0000 0.83780  0.56080  0.53103  Biso   1.000  Cl
  Cl18     1.0000 0.16220  0.43920  0.46897  Biso   1.000  Cl
  Cl19     1.0000 0.94370  0.55920  0.52108  Biso   1.000  Cl
  Cl20     1.0000 0.05630  0.44080  0.47892  Biso   1.000  Cl
  Cl21     1.0000 0.86370  0.26300  0.47240  Biso   1.000  Cl
  Cl22     1.0000 0.13630  0.73700  0.52760  Biso   1.000  Cl
  Cl23     1.0000 0.98340  0.26470  0.54720  Biso   1.000  Cl
  Cl24     1.0000 0.01660  0.73530  0.45280  Biso   1.000  Cl
  C159     1.0000 0.99800  0.50400  0.53640  Biso   1.000  C
  C160     1.0000 0.00200  0.49600  0.46360  Biso   1.000  C
  Cl25     1.0000 0.51080  0.41860  0.58280  Biso   1.000  Cl
  Cl26     1.0000 0.48920  0.58140  0.41720  Biso   1.000  Cl
  Cl27     1.0000 0.67366  0.43473  0.64148  Biso   1.000  Cl
  Cl28     1.0000 0.32634  0.56527  0.35852  Biso   1.000  Cl
  Cl29     1.0000 0.55550  0.43080  0.56470  Biso   1.000  Cl
  Cl30     1.0000 0.44450  0.56920  0.43530  Biso   1.000  Cl
  Cl31     1.0000 0.53820  0.41430  0.57500  Biso   1.000  Cl
  Cl32     1.0000 0.46180  0.58570  0.42500  Biso   1.000  Cl
