data_image0
_cell_length_a       12.463
_cell_length_b       15.791
_cell_length_c       18.753
_cell_angle_alpha    71.316
_cell_angle_beta     73.251
_cell_angle_gamma    70.821

_symmetry_space_group_name_H-M    "P 1"
_symmetry_int_tables_number       1

loop_
  _symmetry_equiv_pos_as_xyz
  'x, y, z'

loop_
  _atom_site_label
  _atom_site_occupancy
  _atom_site_fract_x
  _atom_site_fract_y
  _atom_site_fract_z
  _atom_site_thermal_displace_type
  _atom_site_B_iso_or_equiv
  _atom_site_type_symbol
  Cu1      1.0000 0.07705  0.37244  0.25306  Biso   1.000  Cu
  Cu2      1.0000 0.92295  0.62756  0.74694  Biso   1.000  Cu
  Cu3      1.0000 0.22432  0.17150  0.22712  Biso   1.000  Cu
  Cu4      1.0000 0.77568  0.82850  0.77288  Biso   1.000  Cu
  P1       1.0000 0.23280  0.42860  0.18510  Biso   1.000  P
  P2       1.0000 0.76720  0.57140  0.81490  Biso   1.000  P
  P3       1.0000 0.37220  0.23690  0.16820  Biso   1.000  P
  P4       1.0000 0.62780  0.76310  0.83180  Biso   1.000  P
  P5       1.0000 0.05370  0.29750  0.37890  Biso   1.000  P
  P6       1.0000 0.94630  0.70250  0.62110  Biso   1.000  P
  P7       1.0000 0.14520  0.10410  0.34730  Biso   1.000  P
  P8       1.0000 0.85480  0.89590  0.65270  Biso   1.000  P
  N1       1.0000 0.03200  0.30070  0.19550  Biso   1.000  N
  N2       1.0000 0.96800  0.69930  0.80450  Biso   1.000  N
  N3       1.0000 0.93010  0.47590  0.24390  Biso   1.000  N
  N4       1.0000 0.06990  0.52410  0.75610  Biso   1.000  N
  N5       1.0000 0.78930  0.89910  0.84070  Biso   1.000  N
  N6       1.0000 0.21070  0.10090  0.15930  Biso   1.000  N
  C1       1.0000 0.36920  0.33990  0.19130  Biso   1.000  C
  C2       1.0000 0.63080  0.66010  0.80870  Biso   1.000  C
  H1       1.0000 0.43200  0.36510  0.15640  Biso   1.000  H
  H2       1.0000 0.56800  0.63490  0.84360  Biso   1.000  H
  H3       1.0000 0.38260  0.32350  0.24300  Biso   1.000  H
  H4       1.0000 0.61740  0.67650  0.75700  Biso   1.000  H
  C3       1.0000 0.25110  0.51850  0.21740  Biso   1.000  C
  C4       1.0000 0.74890  0.48150  0.78260  Biso   1.000  C
  C5       1.0000 0.15320  0.59340  0.22640  Biso   1.000  C
  C6       1.0000 0.84680  0.40660  0.77360  Biso   1.000  C
  H5       1.0000 0.08470  0.59610  0.21420  Biso   1.000  H
  H6       1.0000 0.91530  0.40390  0.78580  Biso   1.000  H
  C7       1.0000 0.15990  0.66370  0.25400  Biso   1.000  C
  C8       1.0000 0.84010  0.33630  0.74600  Biso   1.000  C
  H7       1.0000 0.09540  0.71350  0.25990  Biso   1.000  H
  H8       1.0000 0.90460  0.28650  0.74010  Biso   1.000  H
  C9       1.0000 0.26000  0.66020  0.27240  Biso   1.000  C
  C10      1.0000 0.74000  0.33980  0.72760  Biso   1.000  C
  H9       1.0000 0.26440  0.70740  0.29010  Biso   1.000  H
  H10      1.0000 0.73560  0.29260  0.70990  Biso   1.000  H
  C11      1.0000 0.35130  0.58790  0.26440  Biso   1.000  C
  C12      1.0000 0.64870  0.41210  0.73560  Biso   1.000  C
  H11      1.0000 0.41900  0.58510  0.27760  Biso   1.000  H
  H12      1.0000 0.58100  0.41490  0.72240  Biso   1.000  H
  C13      1.0000 0.34910  0.51790  0.23750  Biso   1.000  C
  C14      1.0000 0.65090  0.48210  0.76250  Biso   1.000  C
  H13      1.0000 0.41500  0.46900  0.23270  Biso   1.000  H
  H14      1.0000 0.58500  0.53100  0.76730  Biso   1.000  H
  C15      1.0000 0.23710  0.47600  0.08490  Biso   1.000  C
  C16      1.0000 0.76290  0.52400  0.91510  Biso   1.000  C
  C17      1.0000 0.15840  0.46960  0.04940  Biso   1.000  C
  C18      1.0000 0.84160  0.53040  0.95060  Biso   1.000  C
  H15      1.0000 0.09830  0.44340  0.08000  Biso   1.000  H
  H16      1.0000 0.90170  0.55660  0.92000  Biso   1.000  H
  C19      1.0000 0.16340  0.49910  0.97300  Biso   1.000  C
  C20      1.0000 0.83660  0.50090  0.02700  Biso   1.000  C
  H17      1.0000 0.10670  0.49310  0.95320  Biso   1.000  H
  H18      1.0000 0.89330  0.50690  0.04680  Biso   1.000  H
  C21      1.0000 0.24980  0.53780  0.92340  Biso   1.000  C
  C22      1.0000 0.75020  0.46220  0.07660  Biso   1.000  C
  H19      1.0000 0.25430  0.55680  0.87060  Biso   1.000  H
  H20      1.0000 0.74570  0.44320  0.12940  Biso   1.000  H
  C23      1.0000 0.32780  0.54660  0.95610  Biso   1.000  C
  C24      1.0000 0.67220  0.45340  0.04390  Biso   1.000  C
  H21      1.0000 0.38600  0.57460  0.92480  Biso   1.000  H
  H22      1.0000 0.61400  0.42540  0.07520  Biso   1.000  H
  C25      1.0000 0.32400  0.51570  0.03350  Biso   1.000  C
  C26      1.0000 0.67600  0.48430  0.96650  Biso   1.000  C
  H23      1.0000 0.38160  0.52140  0.05270  Biso   1.000  H
  H24      1.0000 0.61840  0.47860  0.94730  Biso   1.000  H
  C27      1.0000 0.49660  0.14900  0.19950  Biso   1.000  C
  C28      1.0000 0.50340  0.85100  0.80050  Biso   1.000  C
  C29      1.0000 0.52960  0.06850  0.17590  Biso   1.000  C
  C30      1.0000 0.47040  0.93150  0.82410  Biso   1.000  C
  H25      1.0000 0.49440  0.06470  0.13990  Biso   1.000  H
  H26      1.0000 0.50560  0.93530  0.86010  Biso   1.000  H
  C31      1.0000 0.61290  0.99400  0.20450  Biso   1.000  C
  C32      1.0000 0.38710  0.00600  0.79550  Biso   1.000  C
  H27      1.0000 0.63280  0.94040  0.18750  Biso   1.000  H
  H28      1.0000 0.36720  0.05960  0.81250  Biso   1.000  H
  C33      1.0000 0.66890  0.99570  0.25810  Biso   1.000  C
  C34      1.0000 0.33110  0.00430  0.74190  Biso   1.000  C
  H29      1.0000 0.72540  0.94460  0.27740  Biso   1.000  H
  H30      1.0000 0.27460  0.05540  0.72260  Biso   1.000  H
  C35      1.0000 0.63720  0.07650  0.28160  Biso   1.000  C
  C36      1.0000 0.36280  0.92350  0.71840  Biso   1.000  C
  H31      1.0000 0.67350  0.08050  0.31690  Biso   1.000  H
  H32      1.0000 0.32650  0.91950  0.68310  Biso   1.000  H
  C37      1.0000 0.55160  0.15170  0.25310  Biso   1.000  C
  C38      1.0000 0.44840  0.84830  0.74690  Biso   1.000  C
  H33      1.0000 0.53060  0.20520  0.27030  Biso   1.000  H
  H34      1.0000 0.46940  0.79480  0.72970  Biso   1.000  H
  C39      1.0000 0.41370  0.25940  0.06510  Biso   1.000  C
  C40      1.0000 0.58630  0.74060  0.93490  Biso   1.000  C
  C41      1.0000 0.34540  0.25570  0.02290  Biso   1.000  C
  C42      1.0000 0.65460  0.74430  0.97710  Biso   1.000  C
  H35      1.0000 0.27350  0.24400  0.04750  Biso   1.000  H
  H36      1.0000 0.72650  0.75600  0.95250  Biso   1.000  H
  C43      1.0000 0.37900  0.26900  0.94400  Biso   1.000  C
  C44      1.0000 0.62100  0.73100  0.05600  Biso   1.000  C
  H37      1.0000 0.32960  0.26570  0.91640  Biso   1.000  H
  H38      1.0000 0.67040  0.73430  0.08360  Biso   1.000  H
  C45      1.0000 0.48400  0.28680  0.90650  Biso   1.000  C
  C46      1.0000 0.51600  0.71320  0.09350  Biso   1.000  C
  H39      1.0000 0.50560  0.29590  0.85340  Biso   1.000  H
  H40      1.0000 0.49440  0.70410  0.14660  Biso   1.000  H
  C47      1.0000 0.55600  0.29110  0.94680  Biso   1.000  C
  C48      1.0000 0.44400  0.70890  0.05320  Biso   1.000  C
  H41      1.0000 0.62660  0.30390  0.92130  Biso   1.000  H
  H42      1.0000 0.37340  0.69610  0.07870  Biso   1.000  H
  C49      1.0000 0.52310  0.27640  0.02560  Biso   1.000  C
  C50      1.0000 0.47690  0.72360  0.97440  Biso   1.000  C
  H43      1.0000 0.57350  0.27770  0.05320  Biso   1.000  H
  H44      1.0000 0.42650  0.72230  0.94680  Biso   1.000  H
  C51      1.0000 0.02610  0.18560  0.39630  Biso   1.000  C
  C52      1.0000 0.97390  0.81440  0.60370  Biso   1.000  C
  H45      1.0000 0.95560  0.19520  0.37920  Biso   1.000  H
  H46      1.0000 0.04440  0.80480  0.62080  Biso   1.000  H
  H47      1.0000 0.01310  0.15760  0.45120  Biso   1.000  H
  H48      1.0000 0.98690  0.84240  0.54880  Biso   1.000  H
  C53      1.0000 0.92300  0.35450  0.44060  Biso   1.000  C
  C54      1.0000 0.07700  0.64550  0.55940  Biso   1.000  C
  C55      1.0000 0.81720  0.36250  0.42900  Biso   1.000  C
  C56      1.0000 0.18280  0.63750  0.57100  Biso   1.000  C
  H49      1.0000 0.81120  0.33460  0.39400  Biso   1.000  H
  H50      1.0000 0.18880  0.66540  0.60600  Biso   1.000  H
  C57      1.0000 0.71530  0.41370  0.47050  Biso   1.000  C
  C58      1.0000 0.28470  0.58630  0.52950  Biso   1.000  C
  H51      1.0000 0.64260  0.42000  0.46230  Biso   1.000  H
  H52      1.0000 0.35740  0.58000  0.53770  Biso   1.000  H
  C59      1.0000 0.72500  0.45230  0.52100  Biso   1.000  C
  C60      1.0000 0.27500  0.54770  0.47900  Biso   1.000  C
  H53      1.0000 0.65880  0.48470  0.54890  Biso   1.000  H
  H54      1.0000 0.34120  0.51530  0.45110  Biso   1.000  H
  C61      1.0000 0.83200  0.44510  0.53260  Biso   1.000  C
  C62      1.0000 0.16800  0.55490  0.46740  Biso   1.000  C
  H55      1.0000 0.83710  0.47320  0.56770  Biso   1.000  H
  H56      1.0000 0.16290  0.52680  0.43230  Biso   1.000  H
  C63      1.0000 0.93120  0.39640  0.49250  Biso   1.000  C
  C64      1.0000 0.06880  0.60360  0.50750  Biso   1.000  C
  H57      1.0000 0.00350  0.39170  0.50040  Biso   1.000  H
  H58      1.0000 0.99650  0.60830  0.49960  Biso   1.000  H
  C65      1.0000 0.17120  0.27450  0.42780  Biso   1.000  C
  C66      1.0000 0.82880  0.72550  0.57220  Biso   1.000  C
  C67      1.0000 0.24830  0.32830  0.39660  Biso   1.000  C
  C68      1.0000 0.75170  0.67170  0.60340  Biso   1.000  C
  H59      1.0000 0.24110  0.37300  0.35050  Biso   1.000  H
  H60      1.0000 0.75890  0.62700  0.64950  Biso   1.000  H
  C69      1.0000 0.33820  0.31720  0.43290  Biso   1.000  C
  C70      1.0000 0.66180  0.68280  0.56710  Biso   1.000  C
  H61      1.0000 0.39380  0.35060  0.41000  Biso   1.000  H
  H62      1.0000 0.60620  0.64940  0.59000  Biso   1.000  H
  C71      1.0000 0.34060  0.25670  0.50190  Biso   1.000  C
  C72      1.0000 0.65940  0.74330  0.49810  Biso   1.000  C
  H63      1.0000 0.39680  0.25110  0.52790  Biso   1.000  H
  H64      1.0000 0.60320  0.74890  0.47210  Biso   1.000  H
  C73      1.0000 0.26420  0.20280  0.53570  Biso   1.000  C
  C74      1.0000 0.73580  0.79720  0.46430  Biso   1.000  C
  H65      1.0000 0.27020  0.15970  0.58260  Biso   1.000  H
  H66      1.0000 0.72980  0.84030  0.41740  Biso   1.000  H
  C75      1.0000 0.17800  0.21390  0.49840  Biso   1.000  C
  C76      1.0000 0.82200  0.78610  0.50160  Biso   1.000  C
  H67      1.0000 0.12340  0.17960  0.52170  Biso   1.000  H
  H68      1.0000 0.87660  0.82040  0.47830  Biso   1.000  H
  C77      1.0000 0.07750  0.02040  0.34320  Biso   1.000  C
  C78      1.0000 0.92250  0.97960  0.65680  Biso   1.000  C
  C79      1.0000 0.98900  0.05240  0.30200  Biso   1.000  C
  C80      1.0000 0.01100  0.94760  0.69800  Biso   1.000  C
  H69      1.0000 0.96010  0.11560  0.28260  Biso   1.000  H
  H70      1.0000 0.03990  0.88440  0.71740  Biso   1.000  H
  C81      1.0000 0.94390  0.98920  0.29020  Biso   1.000  C
  C82      1.0000 0.05610  0.01080  0.70980  Biso   1.000  C
  H71      1.0000 0.88600  0.01070  0.26170  Biso   1.000  H
  H72      1.0000 0.11400  0.98930  0.73830  Biso   1.000  H
  C83      1.0000 0.98260  0.89770  0.31910  Biso   1.000  C
  C84      1.0000 0.01740  0.10230  0.68090  Biso   1.000  C
  H73      1.0000 0.95020  0.85700  0.31130  Biso   1.000  H
  H74      1.0000 0.04980  0.14300  0.68870  Biso   1.000  H
  C85      1.0000 0.06720  0.86460  0.35910  Biso   1.000  C
  C86      1.0000 0.93280  0.13540  0.64090  Biso   1.000  C
  H75      1.0000 0.09350  0.80090  0.37790  Biso   1.000  H
  H76      1.0000 0.90650  0.19910  0.62210  Biso   1.000  H
  C87      1.0000 0.11740  0.92440  0.37320  Biso   1.000  C
  C88      1.0000 0.88260  0.07560  0.62680  Biso   1.000  C
  H77      1.0000 0.17540  0.90090  0.40160  Biso   1.000  H
  H78      1.0000 0.82460  0.09910  0.59840  Biso   1.000  H
  C89      1.0000 0.23350  0.03750  0.41680  Biso   1.000  C
  C90      1.0000 0.76650  0.96250  0.58320  Biso   1.000  C
  C91      1.0000 0.19740  0.99000  0.48970  Biso   1.000  C
  C92      1.0000 0.80260  0.01000  0.51030  Biso   1.000  C
  H79      1.0000 0.11780  0.99740  0.50660  Biso   1.000  H
  H80      1.0000 0.88220  0.00260  0.49340  Biso   1.000  H
  C93      1.0000 0.26460  0.93310  0.54040  Biso   1.000  C
  C94      1.0000 0.73540  0.06690  0.45960  Biso   1.000  C
  H81      1.0000 0.23350  0.90260  0.58960  Biso   1.000  H
  H82      1.0000 0.76650  0.09740  0.41040  Biso   1.000  H
  C95      1.0000 0.38400  0.92320  0.51390  Biso   1.000  C
  C96      1.0000 0.61600  0.07680  0.48610  Biso   1.000  C
  H83      1.0000 0.43440  0.88510  0.54640  Biso   1.000  H
  H84      1.0000 0.56560  0.11490  0.45360  Biso   1.000  H
  C97      1.0000 0.42830  0.96830  0.44110  Biso   1.000  C
  C98      1.0000 0.57170  0.03170  0.55890  Biso   1.000  C
  H85      1.0000 0.50800  0.96030  0.42420  Biso   1.000  H
  H86      1.0000 0.49200  0.03970  0.57580  Biso   1.000  H
  C99      1.0000 0.35350  0.02610  0.39270  Biso   1.000  C
  C100     1.0000 0.64650  0.97390  0.60730  Biso   1.000  C
  H87      1.0000 0.38340  0.05770  0.34370  Biso   1.000  H
  H88      1.0000 0.61660  0.94230  0.65630  Biso   1.000  H
  C101     1.0000 0.99280  0.28120  0.15790  Biso   1.000  C
  C102     1.0000 0.00720  0.71880  0.84210  Biso   1.000  C
  C103     1.0000 0.94360  0.24910  0.11300  Biso   1.000  C
  C104     1.0000 0.05640  0.75090  0.88700  Biso   1.000  C
  C105     1.0000 0.99830  0.25250  0.03880  Biso   1.000  C
  C106     1.0000 0.00170  0.74750  0.96120  Biso   1.000  C
  H89      1.0000 0.05790  0.28190  0.01640  Biso   1.000  H
  H90      1.0000 0.94210  0.71810  0.98360  Biso   1.000  H
  C107     1.0000 0.85450  0.20690  0.14820  Biso   1.000  C
  C108     1.0000 0.14550  0.79310  0.85180  Biso   1.000  C
  H91      1.0000 0.81840  0.20560  0.19930  Biso   1.000  H
  H92      1.0000 0.18160  0.79440  0.80070  Biso   1.000  H
  C109     1.0000 0.96390  0.21110  0.99630  Biso   1.000  C
  C110     1.0000 0.03610  0.78890  0.00370  Biso   1.000  C
  H93      1.0000 0.99930  0.21460  0.94480  Biso   1.000  H
  H94      1.0000 0.00070  0.78540  0.05520  Biso   1.000  H
  C111     1.0000 0.81980  0.16640  0.10640  Biso   1.000  C
  C112     1.0000 0.18020  0.83360  0.89360  Biso   1.000  C
  H95      1.0000 0.75770  0.13980  0.12880  Biso   1.000  H
  H96      1.0000 0.24230  0.86020  0.87120  Biso   1.000  H
  C113     1.0000 0.87800  0.16520  0.03000  Biso   1.000  C
  C114     1.0000 0.12200  0.83480  0.97000  Biso   1.000  C
  C115     1.0000 0.84800  0.11130  0.98920  Biso   1.000  C
  C116     1.0000 0.15200  0.88870  0.01080  Biso   1.000  C
  C117     1.0000 0.85490  0.14020  0.91050  Biso   1.000  C
  C118     1.0000 0.14510  0.85980  0.08950  Biso   1.000  C
  H97      1.0000 0.87230  0.19640  0.88370  Biso   1.000  H
  H98      1.0000 0.12770  0.80360  0.11630  Biso   1.000  H
  C119     1.0000 0.82310  0.02830  0.02900  Biso   1.000  C
  C120     1.0000 0.17690  0.97170  0.97100  Biso   1.000  C
  H99      1.0000 0.81870  0.00820  0.08180  Biso   1.000  H
  H100     1.0000 0.18130  0.99180  0.91820  Biso   1.000  H
  C121     1.0000 0.83710  0.08860  0.87100  Biso   1.000  C
  C122     1.0000 0.16290  0.91140  0.12900  Biso   1.000  C
  H101     1.0000 0.84250  0.10830  0.81800  Biso   1.000  H
  H102     1.0000 0.15750  0.89170  0.18200  Biso   1.000  H
  C123     1.0000 0.80470  0.97440  0.99070  Biso   1.000  C
  C124     1.0000 0.19530  0.02560  0.00930  Biso   1.000  C
  H103     1.0000 0.78850  0.91780  0.01740  Biso   1.000  H
  H104     1.0000 0.21150  0.08220  0.98260  Biso   1.000  H
  C125     1.0000 0.81050  0.00510  0.91320  Biso   1.000  C
  C126     1.0000 0.18950  0.99490  0.08680  Biso   1.000  C
  C127     1.0000 0.79680  0.94840  0.87180  Biso   1.000  C
  C128     1.0000 0.20320  0.05160  0.12820  Biso   1.000  C
  C129     1.0000 0.84000  0.51580  0.25580  Biso   1.000  C
  C130     1.0000 0.16000  0.48420  0.74420  Biso   1.000  C
  C131     1.0000 0.71670  0.57640  0.26830  Biso   1.000  C
  C132     1.0000 0.28330  0.42360  0.73170  Biso   1.000  C
  H105     1.0000 0.70150  0.61910  0.22050  Biso   1.000  H
  H106     1.0000 0.29850  0.38090  0.77950  Biso   1.000  H
  H107     1.0000 0.70740  0.61010  0.30500  Biso   1.000  H
  H108     1.0000 0.29260  0.38990  0.69500  Biso   1.000  H
  H109     1.0000 0.66330  0.53830  0.28730  Biso   1.000  H
  H110     1.0000 0.33670  0.46170  0.71270  Biso   1.000  H
  B1       1.0000 0.64600  0.33860  0.29860  Biso   1.000  B
  B2       1.0000 0.35400  0.66140  0.70140  Biso   1.000  B
  F1       1.0000 0.76800  0.30500  0.28550  Biso   1.000  F
  F2       1.0000 0.23200  0.69500  0.71450  Biso   1.000  F
  F3       1.0000 0.60100  0.40400  0.32900  Biso   1.000  F
  F4       1.0000 0.39900  0.59600  0.67100  Biso   1.000  F
  F5       1.0000 0.61600  0.25760  0.35110  Biso   1.000  F
  F6       1.0000 0.38400  0.74240  0.64890  Biso   1.000  F
  F7       1.0000 0.60410  0.35020  0.23340  Biso   1.000  F
  F8       1.0000 0.39590  0.64980  0.76660  Biso   1.000  F
  B3       1.0000 0.83100  0.77500  0.20280  Biso   1.000  B
  B4       1.0000 0.16900  0.22500  0.79720  Biso   1.000  B
  F9       1.0000 0.90670  0.69420  0.19210  Biso   1.000  F
  F10      1.0000 0.09330  0.30580  0.80790  Biso   1.000  F
  F11      1.0000 0.88290  0.84530  0.18260  Biso   1.000  F
  F12      1.0000 0.11710  0.15470  0.81740  Biso   1.000  F
  F13      1.0000 0.75430  0.80100  0.14940  Biso   1.000  F
  F14      1.0000 0.24570  0.19900  0.85060  Biso   1.000  F
  F15      1.0000 0.76240  0.76920  0.27440  Biso   1.000  F
  F16      1.0000 0.23760  0.23080  0.72560  Biso   1.000  F
  C133     1.0000 0.47670  0.81960  0.30830  Biso   1.000  C
  C134     1.0000 0.52330  0.18040  0.69170  Biso   1.000  C
  H111     1.0000 0.55760  0.79380  0.28730  Biso   1.000  H
  H112     1.0000 0.44240  0.20620  0.71270  Biso   1.000  H
  H113     1.0000 0.47310  0.86860  0.33030  Biso   1.000  H
  H114     1.0000 0.52690  0.13140  0.66970  Biso   1.000  H
  Cl1      1.0000 0.40000  0.86660  0.23420  Biso   1.000  Cl
  Cl2      1.0000 0.60000  0.13340  0.76580  Biso   1.000  Cl
  Cl3      1.0000 0.42390  0.73490  0.37970  Biso   1.000  Cl
  Cl4      1.0000 0.57610  0.26510  0.62030  Biso   1.000  Cl
  F17      1.0000 0.67900  0.24570  0.33040  Biso   1.000  F
  F18      1.0000 0.32100  0.75430  0.66960  Biso   1.000  F
  F19      1.0000 0.75680  0.36140  0.26210  Biso   1.000  F
  F20      1.0000 0.24320  0.63860  0.73790  Biso   1.000  F
  F21      1.0000 0.57900  0.39000  0.35100  Biso   1.000  F
  F22      1.0000 0.42100  0.61000  0.64900  Biso   1.000  F
