data_image0
_cell_length_a       14.376
_cell_length_b       16.082
_cell_length_c       23.959
_cell_angle_alpha    91.405
_cell_angle_beta     102.253
_cell_angle_gamma    113.678

_symmetry_space_group_name_H-M    "P 1"
_symmetry_int_tables_number       1

loop_
  _symmetry_equiv_pos_as_xyz
  'x, y, z'

loop_
  _atom_site_label
  _atom_site_occupancy
  _atom_site_fract_x
  _atom_site_fract_y
  _atom_site_fract_z
  _atom_site_thermal_displace_type
  _atom_site_B_iso_or_equiv
  _atom_site_type_symbol
  Cu1      1.0000 0.33425  0.20651  0.29470  Biso   1.000  Cu
  Cu2      1.0000 0.66575  0.79349  0.70530  Biso   1.000  Cu
  Cu3      1.0000 0.14045  0.12115  0.35420  Biso   1.000  Cu
  Cu4      1.0000 0.85955  0.87885  0.64580  Biso   1.000  Cu
  P1       1.0000 0.42013  0.16836  0.37318  Biso   1.000  P
  P2       1.0000 0.57987  0.83164  0.62682  Biso   1.000  P
  P3       1.0000 0.23895  0.09570  0.43148  Biso   1.000  P
  P4       1.0000 0.76105  0.90430  0.56852  Biso   1.000  P
  P5       1.0000 0.30791  0.33528  0.28830  Biso   1.000  P
  P6       1.0000 0.69209  0.66472  0.71170  Biso   1.000  P
  P7       1.0000 0.13120  0.25625  0.34853  Biso   1.000  P
  P8       1.0000 0.86880  0.74375  0.65147  Biso   1.000  P
  N1       1.0000 0.20960  0.10520  0.24411  Biso   1.000  N
  N2       1.0000 0.79040  0.89480  0.75589  Biso   1.000  N
  N3       1.0000 0.98020  0.98600  0.69053  Biso   1.000  N
  N4       1.0000 0.01980  0.01400  0.30947  Biso   1.000  N
  N5       1.0000 0.43530  0.22930  0.24168  Biso   1.000  N
  N6       1.0000 0.56470  0.77070  0.75832  Biso   1.000  N
  C1       1.0000 0.37880  0.16920  0.44013  Biso   1.000  C
  C2       1.0000 0.62120  0.83080  0.55987  Biso   1.000  C
  H1       1.0000 0.39250  0.23140  0.45350  Biso   1.000  H
  H2       1.0000 0.60750  0.76860  0.54650  Biso   1.000  H
  H3       1.0000 0.41980  0.14840  0.46920  Biso   1.000  H
  H4       1.0000 0.58020  0.85160  0.53080  Biso   1.000  H
  C3       1.0000 0.41760  0.05500  0.36060  Biso   1.000  C
  C4       1.0000 0.58240  0.94500  0.63940  Biso   1.000  C
  C5       1.0000 0.37030  0.00700  0.30650  Biso   1.000  C
  C6       1.0000 0.62970  0.99300  0.69350  Biso   1.000  C
  H5       1.0000 0.34340  0.03370  0.27700  Biso   1.000  H
  H6       1.0000 0.65660  0.96630  0.72300  Biso   1.000  H
  C7       1.0000 0.36240  0.91800  0.29570  Biso   1.000  C
  C8       1.0000 0.63760  0.08200  0.70430  Biso   1.000  C
  H7       1.0000 0.33070  0.88550  0.25910  Biso   1.000  H
  H8       1.0000 0.66930  0.11450  0.74090  Biso   1.000  H
  C9       1.0000 0.40140  0.88010  0.33910  Biso   1.000  C
  C10      1.0000 0.59860  0.11990  0.66090  Biso   1.000  C
  H9       1.0000 0.39420  0.82040  0.33230  Biso   1.000  H
  H10      1.0000 0.60580  0.17960  0.66770  Biso   1.000  H
  C11      1.0000 0.45150  0.92740  0.39320  Biso   1.000  C
  C12      1.0000 0.54850  0.07260  0.60680  Biso   1.000  C
  H11      1.0000 0.48090  0.90090  0.42170  Biso   1.000  H
  H12      1.0000 0.51910  0.09910  0.57830  Biso   1.000  H
  C13      1.0000 0.45800  0.01510  0.40500  Biso   1.000  C
  C14      1.0000 0.54200  0.98490  0.59500  Biso   1.000  C
  H13      1.0000 0.48880  0.04660  0.44190  Biso   1.000  H
  H14      1.0000 0.51120  0.95340  0.55810  Biso   1.000  H
  C15      1.0000 0.56100  0.23970  0.39620  Biso   1.000  C
  C16      1.0000 0.43900  0.76030  0.60380  Biso   1.000  C
  C17      1.0000 0.60740  0.30280  0.44460  Biso   1.000  C
  C18      1.0000 0.39260  0.69720  0.55540  Biso   1.000  C
  H15      1.0000 0.56630  0.30990  0.46780  Biso   1.000  H
  H16      1.0000 0.43370  0.69010  0.53220  Biso   1.000  H
  C19      1.0000 0.71410  0.35610  0.45930  Biso   1.000  C
  C20      1.0000 0.28590  0.64390  0.54070  Biso   1.000  C
  H17      1.0000 0.74370  0.39880  0.49200  Biso   1.000  H
  H18      1.0000 0.25630  0.60120  0.50800  Biso   1.000  H
  C21      1.0000 0.77530  0.34650  0.42670  Biso   1.000  C
  C22      1.0000 0.22470  0.65350  0.57330  Biso   1.000  C
  H19      1.0000 0.84710  0.38210  0.43680  Biso   1.000  H
  H20      1.0000 0.15290  0.61790  0.56320  Biso   1.000  H
  C23      1.0000 0.73060  0.28350  0.37830  Biso   1.000  C
  C24      1.0000 0.26940  0.71650  0.62170  Biso   1.000  C
  H21      1.0000 0.77320  0.27660  0.35590  Biso   1.000  H
  H22      1.0000 0.22680  0.72340  0.64410  Biso   1.000  H
  C25      1.0000 0.62360  0.22990  0.36180  Biso   1.000  C
  C26      1.0000 0.37640  0.77010  0.63820  Biso   1.000  C
  H23      1.0000 0.59440  0.18840  0.32850  Biso   1.000  H
  H24      1.0000 0.40560  0.81160  0.67150  Biso   1.000  H
  C27      1.0000 0.23270  0.98100  0.43900  Biso   1.000  C
  C28      1.0000 0.76730  0.01900  0.56100  Biso   1.000  C
  C29      1.0000 0.18380  0.91660  0.39100  Biso   1.000  C
  C30      1.0000 0.81620  0.08340  0.60900  Biso   1.000  C
  H25      1.0000 0.15320  0.93140  0.35670  Biso   1.000  H
  H26      1.0000 0.84680  0.06860  0.64330  Biso   1.000  H
  C31      1.0000 0.18080  0.82950  0.39450  Biso   1.000  C
  C32      1.0000 0.81920  0.17050  0.60550  Biso   1.000  C
  H27      1.0000 0.14670  0.78500  0.36270  Biso   1.000  H
  H28      1.0000 0.85330  0.21500  0.63730  Biso   1.000  H
  C33      1.0000 0.22880  0.80880  0.44560  Biso   1.000  C
  C34      1.0000 0.77120  0.19120  0.55440  Biso   1.000  C
  H29      1.0000 0.22890  0.75110  0.44730  Biso   1.000  H
  H30      1.0000 0.77110  0.24890  0.55270  Biso   1.000  H
  C35      1.0000 0.27580  0.87220  0.49300  Biso   1.000  C
  C36      1.0000 0.72420  0.12780  0.50700  Biso   1.000  C
  H31      1.0000 0.30560  0.85690  0.52730  Biso   1.000  H
  H32      1.0000 0.69440  0.14310  0.47270  Biso   1.000  H
  C37      1.0000 0.27950  0.95880  0.49060  Biso   1.000  C
  C38      1.0000 0.72050  0.04120  0.50940  Biso   1.000  C
  H33      1.0000 0.31270  0.00230  0.52290  Biso   1.000  H
  H34      1.0000 0.68730  0.99770  0.47710  Biso   1.000  H
  C39      1.0000 0.21060  0.12850  0.49757  Biso   1.000  C
  C40      1.0000 0.78940  0.87150  0.50243  Biso   1.000  C
  C41      1.0000 0.13890  0.06240  0.52170  Biso   1.000  C
  C42      1.0000 0.86110  0.93760  0.47830  Biso   1.000  C
  H35      1.0000 0.11030  0.00140  0.50600  Biso   1.000  H
  H36      1.0000 0.88970  0.99860  0.49400  Biso   1.000  H
  C43      1.0000 0.10900  0.08670  0.56960  Biso   1.000  C
  C44      1.0000 0.89100  0.91330  0.43040  Biso   1.000  C
  H37      1.0000 0.06120  0.04270  0.58600  Biso   1.000  H
  H38      1.0000 0.93880  0.95730  0.41400  Biso   1.000  H
  C45      1.0000 0.15320  0.17840  0.59170  Biso   1.000  C
  C46      1.0000 0.84680  0.82160  0.40830  Biso   1.000  C
  H39      1.0000 0.13360  0.19690  0.62270  Biso   1.000  H
  H40      1.0000 0.86640  0.80310  0.37730  Biso   1.000  H
  C47      1.0000 0.22390  0.24040  0.56850  Biso   1.000  C
  C48      1.0000 0.77610  0.75960  0.43150  Biso   1.000  C
  H41      1.0000 0.25510  0.30110  0.58500  Biso   1.000  H
  H42      1.0000 0.74490  0.69890  0.41500  Biso   1.000  H
  C49      1.0000 0.25190  0.21700  0.52090  Biso   1.000  C
  C50      1.0000 0.74810  0.78300  0.47910  Biso   1.000  C
  H43      1.0000 0.29910  0.26200  0.50480  Biso   1.000  H
  H44      1.0000 0.70090  0.73800  0.49520  Biso   1.000  H
  C51      1.0000 0.24890  0.35740  0.34474  Biso   1.000  C
  C52      1.0000 0.75110  0.64260  0.65526  Biso   1.000  C
  H45      1.0000 0.29950  0.37410  0.38160  Biso   1.000  H
  H46      1.0000 0.70050  0.62590  0.61840  Biso   1.000  H
  H47      1.0000 0.23040  0.40840  0.33670  Biso   1.000  H
  H48      1.0000 0.76960  0.59160  0.66330  Biso   1.000  H
  C53      1.0000 0.43280  0.43410  0.29623  Biso   1.000  C
  C54      1.0000 0.56720  0.56590  0.70377  Biso   1.000  C
  C55      1.0000 0.51620  0.43870  0.33870  Biso   1.000  C
  C56      1.0000 0.48380  0.56130  0.66130  Biso   1.000  C
  H49      1.0000 0.50650  0.39480  0.36400  Biso   1.000  H
  H50      1.0000 0.49350  0.60520  0.63600  Biso   1.000  H
  C57      1.0000 0.61510  0.50850  0.34410  Biso   1.000  C
  C58      1.0000 0.38490  0.49150  0.65590  Biso   1.000  C
  H51      1.0000 0.67120  0.51080  0.37280  Biso   1.000  H
  H52      1.0000 0.32880  0.48920  0.62720  Biso   1.000  H
  C59      1.0000 0.63060  0.57430  0.30710  Biso   1.000  C
  C60      1.0000 0.36940  0.42570  0.69290  Biso   1.000  C
  H53      1.0000 0.69680  0.62130  0.31110  Biso   1.000  H
  H54      1.0000 0.30320  0.37870  0.68890  Biso   1.000  H
  C61      1.0000 0.54900  0.57040  0.26500  Biso   1.000  C
  C62      1.0000 0.45100  0.42960  0.73500  Biso   1.000  C
  H55      1.0000 0.55950  0.61460  0.23980  Biso   1.000  H
  H56      1.0000 0.44050  0.38540  0.76020  Biso   1.000  H
  C63      1.0000 0.44940  0.50070  0.25890  Biso   1.000  C
  C64      1.0000 0.55060  0.49930  0.74110  Biso   1.000  C
  H57      1.0000 0.39390  0.49870  0.22990  Biso   1.000  H
  H58      1.0000 0.60610  0.50130  0.77010  Biso   1.000  H
  C65      1.0000 0.22900  0.34590  0.22040  Biso   1.000  C
  C66      1.0000 0.77100  0.65410  0.77960  Biso   1.000  C
  C67      1.0000 0.18060  0.40400  0.21520  Biso   1.000  C
  C68      1.0000 0.81940  0.59600  0.78480  Biso   1.000  C
  H59      1.0000 0.18280  0.43730  0.24820  Biso   1.000  H
  H60      1.0000 0.81720  0.56270  0.75180  Biso   1.000  H
  C69      1.0000 0.12890  0.41440  0.16270  Biso   1.000  C
  C70      1.0000 0.87110  0.58560  0.83730  Biso   1.000  C
  H61      1.0000 0.09550  0.45360  0.15980  Biso   1.000  H
  H62      1.0000 0.90450  0.54640  0.84020  Biso   1.000  H
  C71      1.0000 0.12760  0.36540  0.11410  Biso   1.000  C
  C72      1.0000 0.87240  0.63460  0.88590  Biso   1.000  C
  H63      1.0000 0.09510  0.37380  0.07810  Biso   1.000  H
  H64      1.0000 0.90490  0.62620  0.92190  Biso   1.000  H
  C73      1.0000 0.17220  0.30580  0.11750  Biso   1.000  C
  C74      1.0000 0.82780  0.69420  0.88250  Biso   1.000  C
  H65      1.0000 0.16900  0.27250  0.08430  Biso   1.000  H
  H66      1.0000 0.83100  0.72750  0.91570  Biso   1.000  H
  C75      1.0000 0.22350  0.29430  0.17120  Biso   1.000  C
  C76      1.0000 0.77650  0.70570  0.82880  Biso   1.000  C
  H67      1.0000 0.25360  0.25260  0.17420  Biso   1.000  H
  H68      1.0000 0.74640  0.74740  0.82580  Biso   1.000  H
  C77      1.0000 0.02850  0.25810  0.29070  Biso   1.000  C
  C78      1.0000 0.97150  0.74190  0.70930  Biso   1.000  C
  C79      1.0000 0.99200  0.19440  0.24190  Biso   1.000  C
  C80      1.0000 0.00800  0.80560  0.75810  Biso   1.000  C
  H69      1.0000 0.02010  0.15170  0.24000  Biso   1.000  H
  H70      1.0000 0.97990  0.84830  0.76000  Biso   1.000  H
  C81      1.0000 0.91300  0.19410  0.19520  Biso   1.000  C
  C82      1.0000 0.08700  0.80590  0.80480  Biso   1.000  C
  H71      1.0000 0.88870  0.15180  0.16250  Biso   1.000  H
  H72      1.0000 0.11130  0.84820  0.83750  Biso   1.000  H
  C83      1.0000 0.87250  0.25860  0.19950  Biso   1.000  C
  C84      1.0000 0.12750  0.74140  0.80050  Biso   1.000  C
  H73      1.0000 0.81980  0.25900  0.16950  Biso   1.000  H
  H74      1.0000 0.18020  0.74100  0.83050  Biso   1.000  H
  C85      1.0000 0.90860  0.32050  0.24670  Biso   1.000  C
  C86      1.0000 0.09140  0.67950  0.75330  Biso   1.000  C
  H75      1.0000 0.88150  0.36400  0.24800  Biso   1.000  H
  H76      1.0000 0.11850  0.63600  0.75200  Biso   1.000  H
  C87      1.0000 0.98500  0.32130  0.29330  Biso   1.000  C
  C88      1.0000 0.01500  0.67870  0.70670  Biso   1.000  C
  H77      1.0000 0.00700  0.36330  0.32590  Biso   1.000  H
  H78      1.0000 0.99300  0.63670  0.67410  Biso   1.000  H
  C89      1.0000 0.09670  0.28470  0.41270  Biso   1.000  C
  C90      1.0000 0.90330  0.71530  0.58730  Biso   1.000  C
  C91      1.0000 0.00840  0.21590  0.42590  Biso   1.000  C
  C92      1.0000 0.99160  0.78410  0.57410  Biso   1.000  C
  H79      1.0000 0.97250  0.16020  0.40240  Biso   1.000  H
  H80      1.0000 0.02750  0.83980  0.59760  Biso   1.000  H
  C93      1.0000 0.97580  0.23110  0.47300  Biso   1.000  C
  C94      1.0000 0.02420  0.76890  0.52700  Biso   1.000  C
  H81      1.0000 0.91720  0.18560  0.48120  Biso   1.000  H
  H82      1.0000 0.08280  0.81440  0.51880  Biso   1.000  H
  C95      1.0000 0.02810  0.31280  0.50880  Biso   1.000  C
  C96      1.0000 0.97190  0.68720  0.49120  Biso   1.000  C
  H83      1.0000 0.00290  0.32420  0.53950  Biso   1.000  H
  H84      1.0000 0.99710  0.67580  0.46050  Biso   1.000  H
  C97      1.0000 0.11890  0.37730  0.49810  Biso   1.000  C
  C98      1.0000 0.88110  0.62270  0.50190  Biso   1.000  C
  H85      1.0000 0.15850  0.43030  0.52380  Biso   1.000  H
  H86      1.0000 0.84150  0.56970  0.47620  Biso   1.000  H
  C99      1.0000 0.15150  0.36430  0.44980  Biso   1.000  C
  C100     1.0000 0.84850  0.63570  0.55020  Biso   1.000  C
  H87      1.0000 0.21090  0.40960  0.44230  Biso   1.000  H
  H88      1.0000 0.78910  0.59040  0.55770  Biso   1.000  H
  C101     1.0000 0.14470  0.05310  0.20860  Biso   1.000  C
  C102     1.0000 0.85530  0.94690  0.79140  Biso   1.000  C
  C103     1.0000 0.06130  0.98520  0.16500  Biso   1.000  C
  C104     1.0000 0.93870  0.01480  0.83500  Biso   1.000  C
  C105     1.0000 0.98970  0.00620  0.12640  Biso   1.000  C
  C106     1.0000 0.01030  0.99380  0.87360  Biso   1.000  C
  H89      1.0000 0.99910  0.06700  0.12790  Biso   1.000  H
  H90      1.0000 0.00090  0.93300  0.87210  Biso   1.000  H
  C107     1.0000 0.05260  0.89870  0.16390  Biso   1.000  C
  C108     1.0000 0.94740  0.10130  0.83610  Biso   1.000  C
  H91      1.0000 0.10090  0.88310  0.18840  Biso   1.000  H
  H92      1.0000 0.89910  0.11690  0.81160  Biso   1.000  H
  C109     1.0000 0.90680  0.94440  0.08660  Biso   1.000  C
  C110     1.0000 0.09320  0.05560  0.91340  Biso   1.000  C
  H93      1.0000 0.86110  0.96160  0.06110  Biso   1.000  H
  H94      1.0000 0.13890  0.03840  0.93890  Biso   1.000  H
  C111     1.0000 0.95930  0.82760  0.12010  Biso   1.000  C
  C112     1.0000 0.04070  0.17240  0.87990  Biso   1.000  C
  H95      1.0000 0.94670  0.76600  0.11660  Biso   1.000  H
  H96      1.0000 0.05330  0.23400  0.88340  Biso   1.000  H
  C113     1.0000 0.89470  0.86040  0.08600  Biso   1.000  C
  C114     1.0000 0.10530  0.13960  0.91400  Biso   1.000  C
  C115     1.0000 0.80020  0.78580  0.04160  Biso   1.000  C
  C116     1.0000 0.19980  0.21420  0.95840  Biso   1.000  C
  H97      1.0000 0.75580  0.80650  0.01800  Biso   1.000  H
  H98      1.0000 0.24420  0.19350  0.98200  Biso   1.000  H
  C117     1.0000 0.77690  0.70400  0.03370  Biso   1.000  C
  C118     1.0000 0.22310  0.29600  0.96630  Biso   1.000  C
  H99      1.0000 0.82470  0.68570  0.05640  Biso   1.000  H
  H100     1.0000 0.17530  0.31430  0.94360  Biso   1.000  H
  C119     1.0000 0.68750  0.62890  0.99520  Biso   1.000  C
  C120     1.0000 0.31250  0.37110  0.00480  Biso   1.000  C
  C121     1.0000 0.60520  0.63700  0.95740  Biso   1.000  C
  C122     1.0000 0.39480  0.36300  0.04260  Biso   1.000  C
  H101     1.0000 0.60510  0.69460  0.95490  Biso   1.000  H
  H102     1.0000 0.39490  0.30540  0.04510  Biso   1.000  H
  C123     1.0000 0.68330  0.54170  0.99570  Biso   1.000  C
  C124     1.0000 0.31670  0.45830  0.00430  Biso   1.000  C
  H103     1.0000 0.73770  0.53330  0.02000  Biso   1.000  H
  H104     1.0000 0.26230  0.46670  0.98000  Biso   1.000  H
  C125     1.0000 0.52390  0.56280  0.92370  Biso   1.000  C
  C126     1.0000 0.47610  0.43720  0.07630  Biso   1.000  C
  H105     1.0000 0.46910  0.57130  0.89970  Biso   1.000  H
  H106     1.0000 0.53090  0.42870  0.10030  Biso   1.000  H
  C127     1.0000 0.60300  0.46730  0.96240  Biso   1.000  C
  C128     1.0000 0.39700  0.53270  0.03760  Biso   1.000  C
  H107     1.0000 0.60280  0.40960  0.96500  Biso   1.000  H
  H108     1.0000 0.39720  0.59040  0.03500  Biso   1.000  H
  C129     1.0000 0.52050  0.47730  0.92400  Biso   1.000  C
  C130     1.0000 0.47950  0.52270  0.07600  Biso   1.000  C
  C131     1.0000 0.04860  0.04870  0.71764  Biso   1.000  C
  C132     1.0000 0.95140  0.95130  0.28236  Biso   1.000  C
  C133     1.0000 0.13140  0.12810  0.75330  Biso   1.000  C
  C134     1.0000 0.86860  0.87190  0.24670  Biso   1.000  C
  C135     1.0000 0.21400  0.11990  0.79060  Biso   1.000  C
  C136     1.0000 0.78600  0.88010  0.20940  Biso   1.000  C
  H109     1.0000 0.21870  0.06400  0.79290  Biso   1.000  H
  H110     1.0000 0.78130  0.93600  0.20710  Biso   1.000  H
  C137     1.0000 0.12700  0.21140  0.75170  Biso   1.000  C
  C138     1.0000 0.87300  0.78860  0.24830  Biso   1.000  C
  H111     1.0000 0.07170  0.21710  0.72630  Biso   1.000  H
  H112     1.0000 0.92830  0.78290  0.27370  Biso   1.000  H
  C139     1.0000 0.29210  0.20150  0.82570  Biso   1.000  C
  C140     1.0000 0.70790  0.79850  0.17430  Biso   1.000  C
  H113     1.0000 0.35010  0.19970  0.85070  Biso   1.000  H
  H114     1.0000 0.64990  0.80030  0.14930  Biso   1.000  H
  C141     1.0000 0.20430  0.28750  0.78770  Biso   1.000  C
  C142     1.0000 0.79570  0.71250  0.21230  Biso   1.000  C
  H115     1.0000 0.19740  0.34240  0.78510  Biso   1.000  H
  H116     1.0000 0.80260  0.65760  0.21490  Biso   1.000  H
  C143     1.0000 0.28050  0.28880  0.82230  Biso   1.000  C
  C144     1.0000 0.71950  0.71120  0.17770  Biso   1.000  C
  C145     1.0000 0.35660  0.37680  0.85450  Biso   1.000  C
  C146     1.0000 0.64340  0.62320  0.14550  Biso   1.000  C
  H117     1.0000 0.33890  0.42570  0.84660  Biso   1.000  H
  H118     1.0000 0.66110  0.57430  0.15340  Biso   1.000  H
  C147     1.0000 0.43530  0.39570  0.88810  Biso   1.000  C
  C148     1.0000 0.56470  0.60430  0.11190  Biso   1.000  C
  H119     1.0000 0.44840  0.34420  0.89420  Biso   1.000  H
  H120     1.0000 0.55160  0.65580  0.10580  Biso   1.000  H
  C149     1.0000 0.49670  0.26080  0.21630  Biso   1.000  C
  C150     1.0000 0.50330  0.73920  0.78370  Biso   1.000  C
  C151     1.0000 0.57550  0.30100  0.18520  Biso   1.000  C
  C152     1.0000 0.42450  0.69900  0.81480  Biso   1.000  C
  C153     1.0000 0.66010  0.38260  0.20740  Biso   1.000  C
  C154     1.0000 0.33990  0.61740  0.79260  Biso   1.000  C
  H121     1.0000 0.66600  0.41260  0.24250  Biso   1.000  H
  H122     1.0000 0.33400  0.58740  0.75750  Biso   1.000  H
  C155     1.0000 0.56490  0.25370  0.13100  Biso   1.000  C
  C156     1.0000 0.43510  0.74630  0.86900  Biso   1.000  C
  H123     1.0000 0.50950  0.19730  0.11650  Biso   1.000  H
  H124     1.0000 0.49050  0.80270  0.88350  Biso   1.000  H
  C157     1.0000 0.73620  0.41950  0.17710  Biso   1.000  C
  C158     1.0000 0.26380  0.58050  0.82290  Biso   1.000  C
  H125     1.0000 0.79490  0.47340  0.19260  Biso   1.000  H
  H126     1.0000 0.20510  0.52660  0.80740  Biso   1.000  H
  C159     1.0000 0.64170  0.29610  0.10100  Biso   1.000  C
  C160     1.0000 0.35830  0.70390  0.89900  Biso   1.000  C
  H127     1.0000 0.63540  0.26880  0.06490  Biso   1.000  H
  H128     1.0000 0.36460  0.73120  0.93510  Biso   1.000  H
  C161     1.0000 0.72550  0.37650  0.12340  Biso   1.000  C
  C162     1.0000 0.27450  0.62350  0.87660  Biso   1.000  C
  C163     1.0000 0.92080  0.46540  0.03000  Biso   1.000  C
  C164     1.0000 0.07920  0.53460  0.97000  Biso   1.000  C
  C165     1.0000 0.00720  0.53230  0.05310  Biso   1.000  C
  C166     1.0000 0.99280  0.46770  0.94690  Biso   1.000  C
  H129     1.0000 0.01640  0.55600  0.09060  Biso   1.000  H
  H130     1.0000 0.98360  0.44400  0.90940  Biso   1.000  H
  C167     1.0000 0.90740  0.42540  0.97420  Biso   1.000  C
  C168     1.0000 0.09260  0.57460  0.02580  Biso   1.000  C
  H131     1.0000 0.84700  0.37460  0.95600  Biso   1.000  H
  H132     1.0000 0.15300  0.62540  0.04400  Biso   1.000  H
  C169     1.0000 0.81900  0.42580  0.09730  Biso   1.000  C
  C170     1.0000 0.18100  0.57420  0.90270  Biso   1.000  C
  H133     1.0000 0.87580  0.47630  0.11910  Biso   1.000  H
  H134     1.0000 0.12420  0.52370  0.88090  Biso   1.000  H
  C171     1.0000 0.82240  0.40140  0.04850  Biso   1.000  C
  C172     1.0000 0.17760  0.59860  0.95150  Biso   1.000  C
  H135     1.0000 0.77050  0.34950  0.02530  Biso   1.000  H
  H136     1.0000 0.22950  0.65050  0.97470  Biso   1.000  H
