data_image0
_cell_length_a       4.162
_cell_length_b       10.459
_cell_length_c       10.5052
_cell_angle_alpha    69.31
_cell_angle_beta     83.608
_cell_angle_gamma    78.873

_symmetry_space_group_name_H-M    "P 1"
_symmetry_int_tables_number       1

loop_
  _symmetry_equiv_pos_as_xyz
  'x, y, z'

loop_
  _atom_site_label
  _atom_site_occupancy
  _atom_site_fract_x
  _atom_site_fract_y
  _atom_site_fract_z
  _atom_site_thermal_displace_type
  _atom_site_B_iso_or_equiv
  _atom_site_type_symbol
  I1       1.0000 0.71940  0.63491  0.81160  Biso   1.000  I
  I2       1.0000 0.28060  0.36509  0.18840  Biso   1.000  I
  Cu1      1.0000 0.27730  0.47534  0.91507  Biso   1.000  Cu
  Cu2      1.0000 0.72270  0.52466  0.08493  Biso   1.000  Cu
  S1       1.0000 0.13350  0.17400  0.96490  Biso   1.000  S
  S2       1.0000 0.86650  0.82600  0.03510  Biso   1.000  S
  N1       1.0000 0.31230  0.30180  0.86440  Biso   1.000  N
  N2       1.0000 0.68770  0.69820  0.13560  Biso   1.000  N
  N3       1.0000 0.21700  0.07080  0.87790  Biso   1.000  N
  N4       1.0000 0.78300  0.92920  0.12210  Biso   1.000  N
  C1       1.0000 0.44960  0.26610  0.75720  Biso   1.000  C
  C2       1.0000 0.55040  0.73390  0.24280  Biso   1.000  C
  C3       1.0000 0.62900  0.34500  0.64450  Biso   1.000  C
  C4       1.0000 0.37100  0.65500  0.35550  Biso   1.000  C
  H1       1.0000 0.66610  0.43220  0.63700  Biso   1.000  H
  H2       1.0000 0.33390  0.56780  0.36300  Biso   1.000  H
  C5       1.0000 0.39500  0.13310  0.76560  Biso   1.000  C
  C6       1.0000 0.60500  0.86690  0.23440  Biso   1.000  C
  C7       1.0000 0.52500  0.07760  0.66290  Biso   1.000  C
  C8       1.0000 0.47500  0.92240  0.33710  Biso   1.000  C
  H3       1.0000 0.49340  0.98990  0.66870  Biso   1.000  H
  H4       1.0000 0.50660  0.01010  0.33130  Biso   1.000  H
  C9       1.0000 0.69400  0.15460  0.55590  Biso   1.000  C
  C10      1.0000 0.30600  0.84540  0.44410  Biso   1.000  C
  H5       1.0000 0.77970  0.11970  0.48690  Biso   1.000  H
  H6       1.0000 0.22030  0.88030  0.51310  Biso   1.000  H
  C11      1.0000 0.74400  0.28710  0.54670  Biso   1.000  C
  C12      1.0000 0.25600  0.71290  0.45330  Biso   1.000  C
  H7       1.0000 0.86110  0.33740  0.47080  Biso   1.000  H
  H8       1.0000 0.13890  0.66260  0.52920  Biso   1.000  H
