data_image0
_cell_length_a       5.7255
_cell_length_b       12.136
_cell_length_c       9.3084
_cell_angle_alpha    90
_cell_angle_beta     94.792
_cell_angle_gamma    90

_symmetry_space_group_name_H-M    "P 1"
_symmetry_int_tables_number       1

loop_
  _symmetry_equiv_pos_as_xyz
  'x, y, z'

loop_
  _atom_site_label
  _atom_site_occupancy
  _atom_site_fract_x
  _atom_site_fract_y
  _atom_site_fract_z
  _atom_site_thermal_displace_type
  _atom_site_B_iso_or_equiv
  _atom_site_type_symbol
  Cu1      1.0000 0.68009  0.21662  0.55089  Biso   1.000  Cu
  Cu2      1.0000 0.31991  0.71662  0.44911  Biso   1.000  Cu
  Cu3      1.0000 0.47793  0.44470  0.52785  Biso   1.000  Cu
  Cu4      1.0000 0.52207  0.94470  0.47215  Biso   1.000  Cu
  S1       1.0000 0.39633  0.25948  0.35014  Biso   1.000  S
  S2       1.0000 0.60367  0.75948  0.64986  Biso   1.000  S
  S3       1.0000 0.75292  0.39127  0.71464  Biso   1.000  S
  S4       1.0000 0.24708  0.89127  0.28536  Biso   1.000  S
  N1       1.0000 0.57970  0.90050  0.98800  Biso   1.000  N
  N2       1.0000 0.42030  0.40050  0.01200  Biso   1.000  N
  H1       1.0000 0.57350  0.86270  0.91290  Biso   1.000  H
  H2       1.0000 0.42650  0.36270  0.08710  Biso   1.000  H
  H3       1.0000 0.42880  0.89980  0.02530  Biso   1.000  H
  H4       1.0000 0.57120  0.39980  0.97470  Biso   1.000  H
  N3       1.0000 0.87770  0.99900  0.89730  Biso   1.000  N
  N4       1.0000 0.12230  0.49900  0.10270  Biso   1.000  N
  N5       1.0000 0.17810  0.08880  0.79420  Biso   1.000  N
  N6       1.0000 0.82190  0.58880  0.20580  Biso   1.000  N
  N7       1.0000 0.47150  0.13260  0.67060  Biso   1.000  N
  N8       1.0000 0.52850  0.63260  0.32940  Biso   1.000  N
  N9       1.0000 0.38470  0.03060  0.62380  Biso   1.000  N
  N10      1.0000 0.61530  0.53060  0.37620  Biso   1.000  N
  N11      1.0000 0.97140  0.21180  0.46600  Biso   1.000  N
  N12      1.0000 0.02860  0.71180  0.53400  Biso   1.000  N
  N13      1.0000 0.18170  0.44370  0.60740  Biso   1.000  N
  N14      1.0000 0.81830  0.94370  0.39260  Biso   1.000  N
  C1       1.0000 0.00510  0.08990  0.89850  Biso   1.000  C
  C2       1.0000 0.99490  0.58990  0.10150  Biso   1.000  C
  C3       1.0000 0.98430  0.17890  0.98710  Biso   1.000  C
  C4       1.0000 0.01570  0.67890  0.01290  Biso   1.000  C
  H5       1.0000 0.07930  0.24070  0.98250  Biso   1.000  H
  H6       1.0000 0.92070  0.74070  0.01750  Biso   1.000  H
  C5       1.0000 0.81500  0.17170  0.08320  Biso   1.000  C
  C6       1.0000 0.18500  0.67170  0.91680  Biso   1.000  C
  H7       1.0000 0.79600  0.22920  0.14710  Biso   1.000  H
  H8       1.0000 0.20400  0.72920  0.85290  Biso   1.000  H
  C7       1.0000 0.67510  0.08120  0.08570  Biso   1.000  C
  C8       1.0000 0.32490  0.58120  0.91430  Biso   1.000  C
  H9       1.0000 0.55930  0.07670  0.14980  Biso   1.000  H
  H10      1.0000 0.44070  0.57670  0.85020  Biso   1.000  H
  C9       1.0000 0.70940  0.99520  0.98960  Biso   1.000  C
  C10      1.0000 0.29060  0.49520  0.01040  Biso   1.000  C
  C11      1.0000 0.34330  0.16510  0.77110  Biso   1.000  C
  C12      1.0000 0.65670  0.66510  0.22890  Biso   1.000  C
  H11      1.0000 0.36230  0.23150  0.82050  Biso   1.000  H
  H12      1.0000 0.63770  0.73150  0.17950  Biso   1.000  H
  C13      1.0000 0.21050  0.00780  0.69870  Biso   1.000  C
  C14      1.0000 0.78950  0.50780  0.30130  Biso   1.000  C
  H13      1.0000 0.12000  0.94420  0.68820  Biso   1.000  H
  H14      1.0000 0.88000  0.44420  0.31180  Biso   1.000  H
  C15      1.0000 0.14450  0.23080  0.41630  Biso   1.000  C
  C16      1.0000 0.85550  0.73080  0.58370  Biso   1.000  C
  C17      1.0000 0.00580  0.42350  0.65240  Biso   1.000  C
  C18      1.0000 0.99420  0.92350  0.34760  Biso   1.000  C
