data_image0
_cell_length_a       8.2529
_cell_length_b       9.7052
_cell_length_c       10.3996
_cell_angle_alpha    67.298
_cell_angle_beta     69.518
_cell_angle_gamma    79.187

_symmetry_space_group_name_H-M    "P 1"
_symmetry_int_tables_number       1

loop_
  _symmetry_equiv_pos_as_xyz
  'x, y, z'

loop_
  _atom_site_label
  _atom_site_occupancy
  _atom_site_fract_x
  _atom_site_fract_y
  _atom_site_fract_z
  _atom_site_thermal_displace_type
  _atom_site_B_iso_or_equiv
  _atom_site_type_symbol
  Cu1      1.0000 0.42273  0.66829  0.06695  Biso   1.000  Cu
  Cu2      1.0000 0.57727  0.33171  0.93305  Biso   1.000  Cu
  Cu3      1.0000 0.51226  0.22131  0.59837  Biso   1.000  Cu
  Cu4      1.0000 0.48774  0.77869  0.40163  Biso   1.000  Cu
  Cu5      1.0000 0.98905  0.94217  0.34642  Biso   1.000  Cu
  Cu6      1.0000 0.01095  0.05783  0.65358  Biso   1.000  Cu
  Cu7      1.0000 0.00000  0.00000  0.00000  Biso   1.000  Cu
  C1       1.0000 0.00400  0.62500  0.77910  Biso   1.000  C
  C2       1.0000 0.99600  0.37500  0.22090  Biso   1.000  C
  C3       1.0000 0.99700  0.56380  0.68270  Biso   1.000  C
  C4       1.0000 0.00300  0.43620  0.31730  Biso   1.000  C
  H1       1.0000 0.08590  0.49960  0.64910  Biso   1.000  H
  H2       1.0000 0.91410  0.50040  0.35090  Biso   1.000  H
  C5       1.0000 0.84870  0.60320  0.63800  Biso   1.000  C
  C6       1.0000 0.15130  0.39680  0.36200  Biso   1.000  C
  H3       1.0000 0.83650  0.56470  0.57300  Biso   1.000  H
  H4       1.0000 0.16350  0.43530  0.42700  Biso   1.000  H
  C7       1.0000 0.72170  0.69800  0.68930  Biso   1.000  C
  C8       1.0000 0.27830  0.30200  0.31070  Biso   1.000  C
  H5       1.0000 0.62220  0.72440  0.66040  Biso   1.000  H
  H6       1.0000 0.37780  0.27560  0.33960  Biso   1.000  H
  C9       1.0000 0.74410  0.75460  0.78600  Biso   1.000  C
  C10      1.0000 0.25590  0.24540  0.21400  Biso   1.000  C
  C11      1.0000 0.18650  0.66270  0.90660  Biso   1.000  C
  C12      1.0000 0.81350  0.33730  0.09340  Biso   1.000  C
  H7       1.0000 0.12140  0.74500  0.92730  Biso   1.000  H
  H8       1.0000 0.87860  0.25500  0.07270  Biso   1.000  H
  C13      1.0000 0.27480  0.47930  0.82970  Biso   1.000  C
  C14      1.0000 0.72520  0.52070  0.17030  Biso   1.000  C
  C15      1.0000 0.16900  0.84110  0.24890  Biso   1.000  C
  C16      1.0000 0.83100  0.15890  0.75110  Biso   1.000  C
  C17      1.0000 0.68630  0.10930  0.49530  Biso   1.000  C
  C18      1.0000 0.31370  0.89070  0.50470  Biso   1.000  C
  C19      1.0000 0.20320  0.08020  0.86450  Biso   1.000  C
  C20      1.0000 0.79680  0.91980  0.13550  Biso   1.000  C
  N1       1.0000 0.32520  0.60290  0.94430  Biso   1.000  N
  N2       1.0000 0.67480  0.39710  0.05570  Biso   1.000  N
  N3       1.0000 0.38240  0.48360  0.89420  Biso   1.000  N
  N4       1.0000 0.61760  0.51640  0.10580  Biso   1.000  N
  N5       1.0000 0.14890  0.59120  0.83420  Biso   1.000  N
  N6       1.0000 0.85110  0.40880  0.16580  Biso   1.000  N
  N7       1.0000 0.88530  0.71870  0.83040  Biso   1.000  N
  N8       1.0000 0.11470  0.28130  0.16960  Biso   1.000  N
  N9       1.0000 0.61330  0.84200  0.85280  Biso   1.000  N
  N10      1.0000 0.38670  0.15800  0.14720  Biso   1.000  N
  H9       1.0000 0.55440  0.90120  0.79080  Biso   1.000  H
  H10      1.0000 0.44560  0.09880  0.20920  Biso   1.000  H
  H11      1.0000 0.65880  0.90010  0.87940  Biso   1.000  H
  H12      1.0000 0.34120  0.09990  0.12060  Biso   1.000  H
  N11      1.0000 0.26750  0.77800  0.18370  Biso   1.000  N
  N12      1.0000 0.73250  0.22200  0.81630  Biso   1.000  N
  N13      1.0000 0.80020  0.04600  0.43880  Biso   1.000  N
  N14      1.0000 0.19980  0.95400  0.56120  Biso   1.000  N
  N15      1.0000 0.32450  0.12930  0.77240  Biso   1.000  N
  N16      1.0000 0.67550  0.87070  0.22760  Biso   1.000  N
  N17      1.0000 0.50290  0.43440  0.52130  Biso   1.000  N
  N18      1.0000 0.49710  0.56560  0.47870  Biso   1.000  N
  H13      1.0000 0.29300  0.41100  0.77600  Biso   1.000  H
  H14      1.0000 0.70700  0.58900  0.22400  Biso   1.000  H
