data_image0
_cell_length_a       9.6005
_cell_length_b       17.2685
_cell_length_c       15.6571
_cell_angle_alpha    90
_cell_angle_beta     107.09
_cell_angle_gamma    90

_symmetry_space_group_name_H-M    "P 1"
_symmetry_int_tables_number       1

loop_
  _symmetry_equiv_pos_as_xyz
  'x, y, z'

loop_
  _atom_site_label
  _atom_site_occupancy
  _atom_site_fract_x
  _atom_site_fract_y
  _atom_site_fract_z
  _atom_site_thermal_displace_type
  _atom_site_B_iso_or_equiv
  _atom_site_type_symbol
  I1       1.0000 0.46587  0.59307  0.88351  Biso   1.000  I
  I2       1.0000 0.53413  0.59307  0.61649  Biso   1.000  I
  I3       1.0000 0.96587  0.09307  0.88351  Biso   1.000  I
  I4       1.0000 0.03413  0.09307  0.61649  Biso   1.000  I
  I5       1.0000 0.53413  0.40693  0.11649  Biso   1.000  I
  I6       1.0000 0.46587  0.40693  0.38351  Biso   1.000  I
  I7       1.0000 0.03413  0.90693  0.11649  Biso   1.000  I
  I8       1.0000 0.96587  0.90693  0.38351  Biso   1.000  I
  Cu1      1.0000 0.21501  0.53640  0.81274  Biso   1.000  Cu
  Cu2      1.0000 0.78499  0.53640  0.68726  Biso   1.000  Cu
  Cu3      1.0000 0.71501  0.03640  0.81274  Biso   1.000  Cu
  Cu4      1.0000 0.28499  0.03640  0.68726  Biso   1.000  Cu
  Cu5      1.0000 0.78499  0.46360  0.18726  Biso   1.000  Cu
  Cu6      1.0000 0.21501  0.46360  0.31274  Biso   1.000  Cu
  Cu7      1.0000 0.28499  0.96360  0.18726  Biso   1.000  Cu
  Cu8      1.0000 0.71501  0.96360  0.31274  Biso   1.000  Cu
  Cu9      1.0000 0.50000  0.51393  0.75000  Biso   1.000  Cu
  Cu10     1.0000 0.00000  0.01393  0.75000  Biso   1.000  Cu
  Cu11     1.0000 0.50000  0.48607  0.25000  Biso   1.000  Cu
  Cu12     1.0000 0.00000  0.98607  0.25000  Biso   1.000  Cu
  S1       1.0000 0.28963  0.43818  0.67699  Biso   1.000  S
  S2       1.0000 0.71037  0.43818  0.82301  Biso   1.000  S
  S3       1.0000 0.78963  0.93818  0.67699  Biso   1.000  S
  S4       1.0000 0.21037  0.93818  0.82301  Biso   1.000  S
  S5       1.0000 0.71037  0.56182  0.32301  Biso   1.000  S
  S6       1.0000 0.28963  0.56182  0.17699  Biso   1.000  S
  S7       1.0000 0.21037  0.06182  0.32301  Biso   1.000  S
  S8       1.0000 0.78963  0.06182  0.17699  Biso   1.000  S
  I9       1.0000 0.00000  0.62300  0.75000  Biso   1.000  I
  I10      1.0000 0.50000  0.12300  0.75000  Biso   1.000  I
  I11      1.0000 0.00000  0.37700  0.25000  Biso   1.000  I
  I12      1.0000 0.50000  0.87700  0.25000  Biso   1.000  I
  N1       1.0000 0.20080  0.42090  0.81690  Biso   1.000  N
  N2       1.0000 0.79920  0.42090  0.68310  Biso   1.000  N
  N3       1.0000 0.70080  0.92090  0.81690  Biso   1.000  N
  N4       1.0000 0.29920  0.92090  0.68310  Biso   1.000  N
  N5       1.0000 0.79920  0.57910  0.18310  Biso   1.000  N
  N6       1.0000 0.20080  0.57910  0.31690  Biso   1.000  N
  N7       1.0000 0.29920  0.07910  0.18310  Biso   1.000  N
  N8       1.0000 0.70080  0.07910  0.31690  Biso   1.000  N
  C1       1.0000 0.23710  0.37900  0.75480  Biso   1.000  C
  C2       1.0000 0.76290  0.37900  0.74520  Biso   1.000  C
  C3       1.0000 0.73710  0.87900  0.75480  Biso   1.000  C
  C4       1.0000 0.26290  0.87900  0.74520  Biso   1.000  C
  C5       1.0000 0.76290  0.62100  0.24520  Biso   1.000  C
  C6       1.0000 0.23710  0.62100  0.25480  Biso   1.000  C
  C7       1.0000 0.26290  0.12100  0.24520  Biso   1.000  C
  C8       1.0000 0.73710  0.12100  0.25480  Biso   1.000  C
  C9       1.0000 0.16130  0.38370  0.88180  Biso   1.000  C
  C10      1.0000 0.83870  0.38370  0.61820  Biso   1.000  C
  C11      1.0000 0.66130  0.88370  0.88180  Biso   1.000  C
  C12      1.0000 0.33870  0.88370  0.61820  Biso   1.000  C
  C13      1.0000 0.83870  0.61630  0.11820  Biso   1.000  C
  C14      1.0000 0.16130  0.61630  0.38180  Biso   1.000  C
  C15      1.0000 0.33870  0.11630  0.11820  Biso   1.000  C
  C16      1.0000 0.66130  0.11630  0.38180  Biso   1.000  C
  C17      1.0000 0.15690  0.30390  0.88400  Biso   1.000  C
  C18      1.0000 0.84310  0.30390  0.61600  Biso   1.000  C
  C19      1.0000 0.65690  0.80390  0.88400  Biso   1.000  C
  C20      1.0000 0.34310  0.80390  0.61600  Biso   1.000  C
  C21      1.0000 0.84310  0.69610  0.11600  Biso   1.000  C
  C22      1.0000 0.15690  0.69610  0.38400  Biso   1.000  C
  C23      1.0000 0.34310  0.19610  0.11600  Biso   1.000  C
  C24      1.0000 0.65690  0.19610  0.38400  Biso   1.000  C
  H1       1.0000 0.13020  0.27910  0.92950  Biso   1.000  H
  H2       1.0000 0.86980  0.27910  0.57050  Biso   1.000  H
  H3       1.0000 0.63020  0.77910  0.92950  Biso   1.000  H
  H4       1.0000 0.36980  0.77910  0.57050  Biso   1.000  H
  H5       1.0000 0.86980  0.72090  0.07050  Biso   1.000  H
  H6       1.0000 0.13020  0.72090  0.42950  Biso   1.000  H
  H7       1.0000 0.36980  0.22090  0.07050  Biso   1.000  H
  H8       1.0000 0.63020  0.22090  0.42950  Biso   1.000  H
  C25      1.0000 0.19170  0.26110  0.81930  Biso   1.000  C
  C26      1.0000 0.80830  0.26110  0.68070  Biso   1.000  C
  C27      1.0000 0.69170  0.76110  0.81930  Biso   1.000  C
  C28      1.0000 0.30830  0.76110  0.68070  Biso   1.000  C
  C29      1.0000 0.80830  0.73890  0.18070  Biso   1.000  C
  C30      1.0000 0.19170  0.73890  0.31930  Biso   1.000  C
  C31      1.0000 0.30830  0.23890  0.18070  Biso   1.000  C
  C32      1.0000 0.69170  0.23890  0.31930  Biso   1.000  C
  H9       1.0000 0.18730  0.20730  0.82020  Biso   1.000  H
  H10      1.0000 0.81270  0.20730  0.67980  Biso   1.000  H
  H11      1.0000 0.68730  0.70730  0.82020  Biso   1.000  H
  H12      1.0000 0.31270  0.70730  0.67980  Biso   1.000  H
  H13      1.0000 0.81270  0.79270  0.17980  Biso   1.000  H
  H14      1.0000 0.18730  0.79270  0.32020  Biso   1.000  H
  H15      1.0000 0.31270  0.29270  0.17980  Biso   1.000  H
  H16      1.0000 0.68730  0.29270  0.32020  Biso   1.000  H
  C33      1.0000 0.23330  0.29860  0.75300  Biso   1.000  C
  C34      1.0000 0.76670  0.29860  0.74700  Biso   1.000  C
  C35      1.0000 0.73330  0.79860  0.75300  Biso   1.000  C
  C36      1.0000 0.26670  0.79860  0.74700  Biso   1.000  C
  C37      1.0000 0.76670  0.70140  0.24700  Biso   1.000  C
  C38      1.0000 0.23330  0.70140  0.25300  Biso   1.000  C
  C39      1.0000 0.26670  0.20140  0.24700  Biso   1.000  C
  C40      1.0000 0.73330  0.20140  0.25300  Biso   1.000  C
  H17      1.0000 0.25800  0.27090  0.70850  Biso   1.000  H
  H18      1.0000 0.74200  0.27090  0.79150  Biso   1.000  H
  H19      1.0000 0.75800  0.77090  0.70850  Biso   1.000  H
  H20      1.0000 0.24200  0.77090  0.79150  Biso   1.000  H
  H21      1.0000 0.74200  0.72910  0.29150  Biso   1.000  H
  H22      1.0000 0.25800  0.72910  0.20850  Biso   1.000  H
  H23      1.0000 0.24200  0.22910  0.29150  Biso   1.000  H
  H24      1.0000 0.75800  0.22910  0.20850  Biso   1.000  H
  C41      1.0000 0.12660  0.43410  0.95020  Biso   1.000  C
  C42      1.0000 0.87340  0.43410  0.54980  Biso   1.000  C
  C43      1.0000 0.62660  0.93410  0.95020  Biso   1.000  C
  C44      1.0000 0.37340  0.93410  0.54980  Biso   1.000  C
  C45      1.0000 0.87340  0.56590  0.04980  Biso   1.000  C
  C46      1.0000 0.12660  0.56590  0.45020  Biso   1.000  C
  C47      1.0000 0.37340  0.06590  0.04980  Biso   1.000  C
  C48      1.0000 0.62660  0.06590  0.45020  Biso   1.000  C
  H25      1.0000 0.09990  0.40230  0.99320  Biso   1.000  H
  H26      1.0000 0.90010  0.40230  0.50680  Biso   1.000  H
  H27      1.0000 0.59990  0.90230  0.99320  Biso   1.000  H
  H28      1.0000 0.40010  0.90230  0.50680  Biso   1.000  H
  H29      1.0000 0.90010  0.59770  0.00680  Biso   1.000  H
  H30      1.0000 0.09990  0.59770  0.49320  Biso   1.000  H
  H31      1.0000 0.40010  0.09770  0.00680  Biso   1.000  H
  H32      1.0000 0.59990  0.09770  0.49320  Biso   1.000  H
  H33      1.0000 0.21050  0.46450  0.97980  Biso   1.000  H
  H34      1.0000 0.78950  0.46450  0.52020  Biso   1.000  H
  H35      1.0000 0.71050  0.96450  0.97980  Biso   1.000  H
  H36      1.0000 0.28950  0.96450  0.52020  Biso   1.000  H
  H37      1.0000 0.78950  0.53550  0.02020  Biso   1.000  H
  H38      1.0000 0.21050  0.53550  0.47980  Biso   1.000  H
  H39      1.0000 0.28950  0.03550  0.02020  Biso   1.000  H
  H40      1.0000 0.71050  0.03550  0.47980  Biso   1.000  H
  H41      1.0000 0.04700  0.46770  0.92160  Biso   1.000  H
  H42      1.0000 0.95300  0.46770  0.57840  Biso   1.000  H
  H43      1.0000 0.54700  0.96770  0.92160  Biso   1.000  H
  H44      1.0000 0.45300  0.96770  0.57840  Biso   1.000  H
  H45      1.0000 0.95300  0.53230  0.07840  Biso   1.000  H
  H46      1.0000 0.04700  0.53230  0.42160  Biso   1.000  H
  H47      1.0000 0.45300  0.03230  0.07840  Biso   1.000  H
  H48      1.0000 0.54700  0.03230  0.42160  Biso   1.000  H
  C49      1.0000 0.35590  0.37100  0.61090  Biso   1.000  C
  C50      1.0000 0.64410  0.37100  0.88910  Biso   1.000  C
  C51      1.0000 0.85590  0.87100  0.61090  Biso   1.000  C
  C52      1.0000 0.14410  0.87100  0.88910  Biso   1.000  C
  C53      1.0000 0.64410  0.62900  0.38910  Biso   1.000  C
  C54      1.0000 0.35590  0.62900  0.11090  Biso   1.000  C
  C55      1.0000 0.14410  0.12900  0.38910  Biso   1.000  C
  C56      1.0000 0.85590  0.12900  0.11090  Biso   1.000  C
  H49      1.0000 0.42070  0.39850  0.58410  Biso   1.000  H
  H50      1.0000 0.57930  0.39850  0.91590  Biso   1.000  H
  H51      1.0000 0.92070  0.89850  0.58410  Biso   1.000  H
  H52      1.0000 0.07930  0.89850  0.91590  Biso   1.000  H
  H53      1.0000 0.57930  0.60150  0.41590  Biso   1.000  H
  H54      1.0000 0.42070  0.60150  0.08410  Biso   1.000  H
  H55      1.0000 0.07930  0.10150  0.41590  Biso   1.000  H
  H56      1.0000 0.92070  0.10150  0.08410  Biso   1.000  H
  H57      1.0000 0.41340  0.33190  0.65040  Biso   1.000  H
  H58      1.0000 0.58660  0.33190  0.84960  Biso   1.000  H
  H59      1.0000 0.91340  0.83190  0.65040  Biso   1.000  H
  H60      1.0000 0.08660  0.83190  0.84960  Biso   1.000  H
  H61      1.0000 0.58660  0.66810  0.34960  Biso   1.000  H
  H62      1.0000 0.41340  0.66810  0.15040  Biso   1.000  H
  H63      1.0000 0.08660  0.16810  0.34960  Biso   1.000  H
  H64      1.0000 0.91340  0.16810  0.15040  Biso   1.000  H
  C57      1.0000 0.24070  0.33010  0.53690  Biso   1.000  C
  C58      1.0000 0.75930  0.33010  0.96310  Biso   1.000  C
  C59      1.0000 0.74070  0.83010  0.53690  Biso   1.000  C
  C60      1.0000 0.25930  0.83010  0.96310  Biso   1.000  C
  C61      1.0000 0.75930  0.66990  0.46310  Biso   1.000  C
  C62      1.0000 0.24070  0.66990  0.03690  Biso   1.000  C
  C63      1.0000 0.25930  0.16990  0.46310  Biso   1.000  C
  C64      1.0000 0.74070  0.16990  0.03690  Biso   1.000  C
  H65      1.0000 0.28720  0.29560  0.50560  Biso   1.000  H
  H66      1.0000 0.71280  0.29560  0.99440  Biso   1.000  H
  H67      1.0000 0.78720  0.79560  0.50560  Biso   1.000  H
  H68      1.0000 0.21280  0.79560  0.99440  Biso   1.000  H
  H69      1.0000 0.71280  0.70440  0.49440  Biso   1.000  H
  H70      1.0000 0.28720  0.70440  0.00560  Biso   1.000  H
  H71      1.0000 0.21280  0.20440  0.49440  Biso   1.000  H
  H72      1.0000 0.78720  0.20440  0.00560  Biso   1.000  H
  H73      1.0000 0.17740  0.30110  0.56230  Biso   1.000  H
  H74      1.0000 0.82260  0.30110  0.93770  Biso   1.000  H
  H75      1.0000 0.67740  0.80110  0.56230  Biso   1.000  H
  H76      1.0000 0.32260  0.80110  0.93770  Biso   1.000  H
  H77      1.0000 0.82260  0.69890  0.43770  Biso   1.000  H
  H78      1.0000 0.17740  0.69890  0.06230  Biso   1.000  H
  H79      1.0000 0.32260  0.19890  0.43770  Biso   1.000  H
  H80      1.0000 0.67740  0.19890  0.06230  Biso   1.000  H
  H81      1.0000 0.18480  0.36780  0.49590  Biso   1.000  H
  H82      1.0000 0.81520  0.36780  0.00410  Biso   1.000  H
  H83      1.0000 0.68480  0.86780  0.49590  Biso   1.000  H
  H84      1.0000 0.31520  0.86780  0.00410  Biso   1.000  H
  H85      1.0000 0.81520  0.63220  0.50410  Biso   1.000  H
  H86      1.0000 0.18480  0.63220  0.99590  Biso   1.000  H
  H87      1.0000 0.31520  0.13220  0.50410  Biso   1.000  H
  H88      1.0000 0.68480  0.13220  0.99590  Biso   1.000  H
  C65      1.0000 0.28800  0.37950  0.58500  Biso   1.000  C
  C66      1.0000 0.71200  0.37950  0.91500  Biso   1.000  C
  C67      1.0000 0.78800  0.87950  0.58500  Biso   1.000  C
  C68      1.0000 0.21200  0.87950  0.91500  Biso   1.000  C
  C69      1.0000 0.71200  0.62050  0.41500  Biso   1.000  C
  C70      1.0000 0.28800  0.62050  0.08500  Biso   1.000  C
  C71      1.0000 0.21200  0.12050  0.41500  Biso   1.000  C
  C72      1.0000 0.78800  0.12050  0.08500  Biso   1.000  C
  H89      1.0000 0.20700  0.34340  0.57250  Biso   1.000  H
  H90      1.0000 0.79300  0.34340  0.92750  Biso   1.000  H
  H91      1.0000 0.70700  0.84340  0.57250  Biso   1.000  H
  H92      1.0000 0.29300  0.84340  0.92750  Biso   1.000  H
  H93      1.0000 0.79300  0.65660  0.42750  Biso   1.000  H
  H94      1.0000 0.20700  0.65660  0.07250  Biso   1.000  H
  H95      1.0000 0.29300  0.15660  0.42750  Biso   1.000  H
  H96      1.0000 0.70700  0.15660  0.07250  Biso   1.000  H
  H97      1.0000 0.27850  0.41090  0.53230  Biso   1.000  H
  H98      1.0000 0.72150  0.41090  0.96770  Biso   1.000  H
  H99      1.0000 0.77850  0.91090  0.53230  Biso   1.000  H
  H100     1.0000 0.22150  0.91090  0.96770  Biso   1.000  H
  H101     1.0000 0.72150  0.58910  0.46770  Biso   1.000  H
  H102     1.0000 0.27850  0.58910  0.03230  Biso   1.000  H
  H103     1.0000 0.22150  0.08910  0.46770  Biso   1.000  H
  H104     1.0000 0.77850  0.08910  0.03230  Biso   1.000  H
  C73      1.0000 0.42970  0.33680  0.61020  Biso   1.000  C
  C74      1.0000 0.57030  0.33680  0.88980  Biso   1.000  C
  C75      1.0000 0.92970  0.83680  0.61020  Biso   1.000  C
  C76      1.0000 0.07030  0.83680  0.88980  Biso   1.000  C
  C77      1.0000 0.57030  0.66320  0.38980  Biso   1.000  C
  C78      1.0000 0.42970  0.66320  0.11020  Biso   1.000  C
  C79      1.0000 0.07030  0.16320  0.38980  Biso   1.000  C
  C80      1.0000 0.92970  0.16320  0.11020  Biso   1.000  C
  H105     1.0000 0.43410  0.30370  0.56180  Biso   1.000  H
  H106     1.0000 0.56590  0.30370  0.93820  Biso   1.000  H
  H107     1.0000 0.93410  0.80370  0.56180  Biso   1.000  H
  H108     1.0000 0.06590  0.80370  0.93820  Biso   1.000  H
  H109     1.0000 0.56590  0.69630  0.43820  Biso   1.000  H
  H110     1.0000 0.43410  0.69630  0.06180  Biso   1.000  H
  H111     1.0000 0.06590  0.19630  0.43820  Biso   1.000  H
  H112     1.0000 0.93410  0.19630  0.06180  Biso   1.000  H
  H113     1.0000 0.50860  0.37330  0.62250  Biso   1.000  H
  H114     1.0000 0.49140  0.37330  0.87750  Biso   1.000  H
  H115     1.0000 0.00860  0.87330  0.62250  Biso   1.000  H
  H116     1.0000 0.99140  0.87330  0.87750  Biso   1.000  H
  H117     1.0000 0.49140  0.62670  0.37750  Biso   1.000  H
  H118     1.0000 0.50860  0.62670  0.12250  Biso   1.000  H
  H119     1.0000 0.99140  0.12670  0.37750  Biso   1.000  H
  H120     1.0000 0.00860  0.12670  0.12250  Biso   1.000  H
  H121     1.0000 0.43740  0.30610  0.66250  Biso   1.000  H
  H122     1.0000 0.56260  0.30610  0.83750  Biso   1.000  H
  H123     1.0000 0.93740  0.80610  0.66250  Biso   1.000  H
  H124     1.0000 0.06260  0.80610  0.83750  Biso   1.000  H
  H125     1.0000 0.56260  0.69390  0.33750  Biso   1.000  H
  H126     1.0000 0.43740  0.69390  0.16250  Biso   1.000  H
  H127     1.0000 0.06260  0.19390  0.33750  Biso   1.000  H
  H128     1.0000 0.93740  0.19390  0.16250  Biso   1.000  H
