data_image0
_cell_length_a       9.919
_cell_length_b       9.0927
_cell_length_c       13.9818
_cell_angle_alpha    90
_cell_angle_beta     95.811
_cell_angle_gamma    90

_symmetry_space_group_name_H-M    "P 1"
_symmetry_int_tables_number       1

loop_
  _symmetry_equiv_pos_as_xyz
  'x, y, z'

loop_
  _atom_site_label
  _atom_site_occupancy
  _atom_site_fract_x
  _atom_site_fract_y
  _atom_site_fract_z
  _atom_site_thermal_displace_type
  _atom_site_B_iso_or_equiv
  _atom_site_type_symbol
  I1       1.0000 0.56385  0.61718  0.32187  Biso   1.000  I
  I2       1.0000 0.93615  0.61718  0.17813  Biso   1.000  I
  I3       1.0000 0.43615  0.38282  0.67813  Biso   1.000  I
  I4       1.0000 0.06385  0.38282  0.82187  Biso   1.000  I
  I5       1.0000 0.25000  0.96183  0.25000  Biso   1.000  I
  I6       1.0000 0.75000  0.03817  0.75000  Biso   1.000  I
  Cu1      1.0000 0.42784  0.78418  0.20393  Biso   1.000  Cu
  Cu2      1.0000 0.07216  0.78418  0.29607  Biso   1.000  Cu
  Cu3      1.0000 0.57216  0.21582  0.79607  Biso   1.000  Cu
  Cu4      1.0000 0.92784  0.21582  0.70393  Biso   1.000  Cu
  Cu5      1.0000 0.75000  0.77479  0.25000  Biso   1.000  Cu
  Cu6      1.0000 0.25000  0.22521  0.75000  Biso   1.000  Cu
  S1       1.0000 0.83453  0.93319  0.37765  Biso   1.000  S
  S2       1.0000 0.66547  0.93319  0.12235  Biso   1.000  S
  S3       1.0000 0.16547  0.06681  0.62235  Biso   1.000  S
  S4       1.0000 0.33453  0.06681  0.87765  Biso   1.000  S
  N1       1.0000 0.03410  0.75850  0.43350  Biso   1.000  N
  N2       1.0000 0.46590  0.75850  0.06650  Biso   1.000  N
  N3       1.0000 0.96590  0.24150  0.56650  Biso   1.000  N
  N4       1.0000 0.53410  0.24150  0.93350  Biso   1.000  N
  C1       1.0000 0.92170  0.81650  0.46410  Biso   1.000  C
  C2       1.0000 0.57830  0.81650  0.03590  Biso   1.000  C
  C3       1.0000 0.07830  0.18350  0.53590  Biso   1.000  C
  C4       1.0000 0.42170  0.18350  0.96410  Biso   1.000  C
  C5       1.0000 0.11340  0.66990  0.49240  Biso   1.000  C
  C6       1.0000 0.38660  0.66990  0.00760  Biso   1.000  C
  C7       1.0000 0.88660  0.33010  0.50760  Biso   1.000  C
  C8       1.0000 0.61340  0.33010  0.99240  Biso   1.000  C
  C9       1.0000 0.08050  0.63830  0.58440  Biso   1.000  C
  C10      1.0000 0.41950  0.63830  0.91560  Biso   1.000  C
  C11      1.0000 0.91950  0.36170  0.41560  Biso   1.000  C
  C12      1.0000 0.58050  0.36170  0.08440  Biso   1.000  C
  H1       1.0000 0.13570  0.57720  0.62480  Biso   1.000  H
  H2       1.0000 0.36430  0.57720  0.87520  Biso   1.000  H
  H3       1.0000 0.86430  0.42280  0.37520  Biso   1.000  H
  H4       1.0000 0.63570  0.42280  0.12480  Biso   1.000  H
  C13      1.0000 0.96560  0.69820  0.61450  Biso   1.000  C
  C14      1.0000 0.53440  0.69820  0.88550  Biso   1.000  C
  C15      1.0000 0.03440  0.30180  0.38550  Biso   1.000  C
  C16      1.0000 0.46560  0.30180  0.11450  Biso   1.000  C
  H5       1.0000 0.94270  0.67800  0.67600  Biso   1.000  H
  H6       1.0000 0.55730  0.67800  0.82400  Biso   1.000  H
  H7       1.0000 0.05730  0.32200  0.32400  Biso   1.000  H
  H8       1.0000 0.44270  0.32200  0.17600  Biso   1.000  H
  C17      1.0000 0.88290  0.78900  0.55430  Biso   1.000  C
  C18      1.0000 0.61710  0.78900  0.94570  Biso   1.000  C
  C19      1.0000 0.11710  0.21100  0.44570  Biso   1.000  C
  C20      1.0000 0.38290  0.21100  0.05430  Biso   1.000  C
  H9       1.0000 0.80430  0.82970  0.57400  Biso   1.000  H
  H10      1.0000 0.69570  0.82970  0.92600  Biso   1.000  H
  H11      1.0000 0.19570  0.17030  0.42600  Biso   1.000  H
  H12      1.0000 0.30430  0.17030  0.07400  Biso   1.000  H
  C21      1.0000 0.23740  0.60960  0.45420  Biso   1.000  C
  C22      1.0000 0.26260  0.60960  0.04580  Biso   1.000  C
  C23      1.0000 0.76260  0.39040  0.54580  Biso   1.000  C
  C24      1.0000 0.73740  0.39040  0.95420  Biso   1.000  C
  H13      1.0000 0.21300  0.56550  0.39250  Biso   1.000  H
  H14      1.0000 0.28700  0.56550  0.10750  Biso   1.000  H
  H15      1.0000 0.78700  0.43450  0.60750  Biso   1.000  H
  H16      1.0000 0.71300  0.43450  0.89250  Biso   1.000  H
  H17      1.0000 0.27800  0.53680  0.49780  Biso   1.000  H
  H18      1.0000 0.22200  0.53680  0.00220  Biso   1.000  H
  H19      1.0000 0.72200  0.46320  0.50220  Biso   1.000  H
  H20      1.0000 0.77800  0.46320  0.99780  Biso   1.000  H
  H21      1.0000 0.30090  0.68780  0.44780  Biso   1.000  H
  H22      1.0000 0.19910  0.68780  0.05220  Biso   1.000  H
  H23      1.0000 0.69910  0.31220  0.55220  Biso   1.000  H
  H24      1.0000 0.80090  0.31220  0.94780  Biso   1.000  H
  C25      1.0000 0.69020  0.99790  0.43640  Biso   1.000  C
  C26      1.0000 0.80980  0.99790  0.06360  Biso   1.000  C
  C27      1.0000 0.30980  0.00210  0.56360  Biso   1.000  C
  C28      1.0000 0.19020  0.00210  0.93640  Biso   1.000  C
  H25      1.0000 0.63180  0.91590  0.44860  Biso   1.000  H
  H26      1.0000 0.86820  0.91590  0.05140  Biso   1.000  H
  H27      1.0000 0.36820  0.08410  0.55140  Biso   1.000  H
  H28      1.0000 0.13180  0.08410  0.94860  Biso   1.000  H
  H29      1.0000 0.72110  0.04370  0.49740  Biso   1.000  H
  H30      1.0000 0.77890  0.04370  0.00260  Biso   1.000  H
  H31      1.0000 0.27890  0.95630  0.50260  Biso   1.000  H
  H32      1.0000 0.22110  0.95630  0.99740  Biso   1.000  H
  C29      1.0000 0.61390  0.10760  0.37130  Biso   1.000  C
  C30      1.0000 0.88610  0.10760  0.12870  Biso   1.000  C
  C31      1.0000 0.38610  0.89240  0.62870  Biso   1.000  C
  C32      1.0000 0.11390  0.89240  0.87130  Biso   1.000  C
  H33      1.0000 0.58330  0.06120  0.31130  Biso   1.000  H
  H34      1.0000 0.91670  0.06120  0.18870  Biso   1.000  H
  H35      1.0000 0.41670  0.93880  0.68870  Biso   1.000  H
  H36      1.0000 0.08330  0.93880  0.81130  Biso   1.000  H
  H37      1.0000 0.67230  0.18840  0.35980  Biso   1.000  H
  H38      1.0000 0.82770  0.18840  0.14020  Biso   1.000  H
  H39      1.0000 0.32770  0.81160  0.64020  Biso   1.000  H
  H40      1.0000 0.17230  0.81160  0.85980  Biso   1.000  H
  H41      1.0000 0.53720  0.14310  0.40110  Biso   1.000  H
  H42      1.0000 0.96280  0.14310  0.09890  Biso   1.000  H
  H43      1.0000 0.46280  0.85690  0.59890  Biso   1.000  H
  H44      1.0000 0.03720  0.85690  0.90110  Biso   1.000  H
