data_image0
_cell_length_a       10.6231
_cell_length_b       8.6391
_cell_length_c       16.842
_cell_angle_alpha    90
_cell_angle_beta     97.874
_cell_angle_gamma    90

_symmetry_space_group_name_H-M    "P 1"
_symmetry_int_tables_number       1

loop_
  _symmetry_equiv_pos_as_xyz
  'x, y, z'

loop_
  _atom_site_label
  _atom_site_occupancy
  _atom_site_fract_x
  _atom_site_fract_y
  _atom_site_fract_z
  _atom_site_thermal_displace_type
  _atom_site_B_iso_or_equiv
  _atom_site_type_symbol
  Cl1      1.0000 0.22250  0.11190  0.85930  Biso   1.000  Cl
  Cl2      1.0000 0.77750  0.61190  0.64070  Biso   1.000  Cl
  Cl3      1.0000 0.77750  0.88810  0.14070  Biso   1.000  Cl
  Cl4      1.0000 0.22250  0.38810  0.35930  Biso   1.000  Cl
  O1       1.0000 0.14040  0.06300  0.91580  Biso   1.000  O
  O2       1.0000 0.85960  0.56300  0.58420  Biso   1.000  O
  O3       1.0000 0.85960  0.93700  0.08420  Biso   1.000  O
  O4       1.0000 0.14040  0.43700  0.41580  Biso   1.000  O
  O5       1.0000 0.28950  0.97470  0.83900  Biso   1.000  O
  O6       1.0000 0.71050  0.47470  0.66100  Biso   1.000  O
  O7       1.0000 0.71050  0.02530  0.16100  Biso   1.000  O
  O8       1.0000 0.28950  0.52530  0.33900  Biso   1.000  O
  O9       1.0000 0.14580  0.17070  0.79060  Biso   1.000  O
  O10      1.0000 0.85420  0.67070  0.70940  Biso   1.000  O
  O11      1.0000 0.85420  0.82930  0.20940  Biso   1.000  O
  O12      1.0000 0.14580  0.32930  0.29060  Biso   1.000  O
  O13      1.0000 0.31220  0.22250  0.89400  Biso   1.000  O
  O14      1.0000 0.68780  0.72250  0.60600  Biso   1.000  O
  O15      1.0000 0.68780  0.77750  0.10600  Biso   1.000  O
  O16      1.0000 0.31220  0.27750  0.39400  Biso   1.000  O
  Cu1      1.0000 0.05091  0.14234  0.04423  Biso   1.000  Cu
  Cu2      1.0000 0.94909  0.64234  0.45577  Biso   1.000  Cu
  Cu3      1.0000 0.94909  0.85766  0.95577  Biso   1.000  Cu
  Cu4      1.0000 0.05091  0.35766  0.54423  Biso   1.000  Cu
  N1       1.0000 0.17180  0.03310  0.11590  Biso   1.000  N
  N2       1.0000 0.82820  0.53310  0.38410  Biso   1.000  N
  N3       1.0000 0.82820  0.96690  0.88410  Biso   1.000  N
  N4       1.0000 0.17180  0.46690  0.61590  Biso   1.000  N
  N5       1.0000 0.92680  0.21960  0.49420  Biso   1.000  N
  N6       1.0000 0.07320  0.71960  0.00580  Biso   1.000  N
  N7       1.0000 0.07320  0.78040  0.50580  Biso   1.000  N
  N8       1.0000 0.92680  0.28040  0.99420  Biso   1.000  N
  C1       1.0000 0.15320  0.01590  0.19140  Biso   1.000  C
  C2       1.0000 0.84680  0.51590  0.30860  Biso   1.000  C
  C3       1.0000 0.84680  0.98410  0.80860  Biso   1.000  C
  C4       1.0000 0.15320  0.48410  0.69140  Biso   1.000  C
  H1       1.0000 0.07620  0.04880  0.20600  Biso   1.000  H
  H2       1.0000 0.92380  0.54880  0.29400  Biso   1.000  H
  H3       1.0000 0.92380  0.95120  0.79400  Biso   1.000  H
  H4       1.0000 0.07620  0.45120  0.70600  Biso   1.000  H
  C5       1.0000 0.24180  0.95170  0.24990  Biso   1.000  C
  C6       1.0000 0.75820  0.45170  0.25010  Biso   1.000  C
  C7       1.0000 0.75820  0.04830  0.75010  Biso   1.000  C
  C8       1.0000 0.24180  0.54830  0.74990  Biso   1.000  C
  H5       1.0000 0.22420  0.94340  0.30240  Biso   1.000  H
  H6       1.0000 0.77580  0.44340  0.19760  Biso   1.000  H
  H7       1.0000 0.77580  0.05660  0.69760  Biso   1.000  H
  H8       1.0000 0.22420  0.55660  0.80240  Biso   1.000  H
  C9       1.0000 0.35580  0.90020  0.23040  Biso   1.000  C
  C10      1.0000 0.64420  0.40020  0.26960  Biso   1.000  C
  C11      1.0000 0.64420  0.09980  0.76960  Biso   1.000  C
  C12      1.0000 0.35580  0.59980  0.73040  Biso   1.000  C
  C13      1.0000 0.37390  0.91650  0.15170  Biso   1.000  C
  C14      1.0000 0.62610  0.41650  0.34830  Biso   1.000  C
  C15      1.0000 0.62610  0.08350  0.84830  Biso   1.000  C
  C16      1.0000 0.37390  0.58350  0.65170  Biso   1.000  C
  H9       1.0000 0.44930  0.88210  0.13550  Biso   1.000  H
  H10      1.0000 0.55070  0.38210  0.36450  Biso   1.000  H
  H11      1.0000 0.55070  0.11790  0.86450  Biso   1.000  H
  H12      1.0000 0.44930  0.61790  0.63550  Biso   1.000  H
  C17      1.0000 0.28350  0.98200  0.09730  Biso   1.000  C
  C18      1.0000 0.71650  0.48200  0.40270  Biso   1.000  C
  C19      1.0000 0.71650  0.01800  0.90270  Biso   1.000  C
  C20      1.0000 0.28350  0.51800  0.59730  Biso   1.000  C
  H13      1.0000 0.29970  0.99190  0.04460  Biso   1.000  H
  H14      1.0000 0.70030  0.49190  0.45540  Biso   1.000  H
  H15      1.0000 0.70030  0.00810  0.95540  Biso   1.000  H
  H16      1.0000 0.29970  0.50810  0.54460  Biso   1.000  H
  C21      1.0000 0.45640  0.83460  0.29290  Biso   1.000  C
  C22      1.0000 0.54360  0.33460  0.20710  Biso   1.000  C
  C23      1.0000 0.54360  0.16540  0.70710  Biso   1.000  C
  C24      1.0000 0.45640  0.66540  0.79290  Biso   1.000  C
  H17      1.0000 0.50650  0.75960  0.26790  Biso   1.000  H
  H18      1.0000 0.49350  0.25960  0.23210  Biso   1.000  H
  H19      1.0000 0.49350  0.24040  0.73210  Biso   1.000  H
  H20      1.0000 0.50650  0.74040  0.76790  Biso   1.000  H
  H21      1.0000 0.41580  0.78100  0.33320  Biso   1.000  H
  H22      1.0000 0.58420  0.28100  0.16680  Biso   1.000  H
  H23      1.0000 0.58420  0.21900  0.66680  Biso   1.000  H
  H24      1.0000 0.41580  0.71900  0.83320  Biso   1.000  H
  C25      1.0000 0.54370  0.95890  0.33320  Biso   1.000  C
  C26      1.0000 0.45630  0.45890  0.16680  Biso   1.000  C
  C27      1.0000 0.45630  0.04110  0.66680  Biso   1.000  C
  C28      1.0000 0.54370  0.54110  0.83320  Biso   1.000  C
  H25      1.0000 0.49480  0.03100  0.36080  Biso   1.000  H
  H26      1.0000 0.50520  0.53100  0.13920  Biso   1.000  H
  H27      1.0000 0.50520  0.96900  0.63920  Biso   1.000  H
  H28      1.0000 0.49480  0.46900  0.86080  Biso   1.000  H
  H29      1.0000 0.58160  0.01610  0.29280  Biso   1.000  H
  H30      1.0000 0.41840  0.51610  0.20720  Biso   1.000  H
  H31      1.0000 0.41840  0.98390  0.70720  Biso   1.000  H
  H32      1.0000 0.58160  0.48390  0.79280  Biso   1.000  H
  C29      1.0000 0.64870  0.88710  0.39310  Biso   1.000  C
  C30      1.0000 0.35130  0.38710  0.10690  Biso   1.000  C
  C31      1.0000 0.35130  0.11290  0.60690  Biso   1.000  C
  C32      1.0000 0.64870  0.61290  0.89310  Biso   1.000  C
  H33      1.0000 0.61070  0.83870  0.43600  Biso   1.000  H
  H34      1.0000 0.38930  0.33870  0.06400  Biso   1.000  H
  H35      1.0000 0.38930  0.16130  0.56400  Biso   1.000  H
  H36      1.0000 0.61070  0.66130  0.93600  Biso   1.000  H
  H37      1.0000 0.69120  0.80700  0.36630  Biso   1.000  H
  H38      1.0000 0.30880  0.30700  0.13370  Biso   1.000  H
  H39      1.0000 0.30880  0.19300  0.63370  Biso   1.000  H
  H40      1.0000 0.69120  0.69300  0.86630  Biso   1.000  H
  C33      1.0000 0.74490  0.00340  0.42820  Biso   1.000  C
  C34      1.0000 0.25510  0.50340  0.07180  Biso   1.000  C
  C35      1.0000 0.25510  0.99660  0.57180  Biso   1.000  C
  C36      1.0000 0.74490  0.49660  0.92820  Biso   1.000  C
  C37      1.0000 0.84480  0.04850  0.39020  Biso   1.000  C
  C38      1.0000 0.15520  0.54850  0.10980  Biso   1.000  C
  C39      1.0000 0.15520  0.95150  0.60980  Biso   1.000  C
  C40      1.0000 0.84480  0.45150  0.89020  Biso   1.000  C
  H41      1.0000 0.85340  0.00610  0.34050  Biso   1.000  H
  H42      1.0000 0.14660  0.50610  0.15950  Biso   1.000  H
  H43      1.0000 0.14660  0.99390  0.65950  Biso   1.000  H
  H44      1.0000 0.85340  0.49390  0.84050  Biso   1.000  H
  C41      1.0000 0.93190  0.15390  0.42340  Biso   1.000  C
  C42      1.0000 0.06810  0.65390  0.07660  Biso   1.000  C
  C43      1.0000 0.06810  0.84610  0.57660  Biso   1.000  C
  C44      1.0000 0.93190  0.34610  0.92340  Biso   1.000  C
  H45      1.0000 0.99790  0.18110  0.39520  Biso   1.000  H
  H46      1.0000 0.00210  0.68110  0.10480  Biso   1.000  H
  H47      1.0000 0.00210  0.81890  0.60480  Biso   1.000  H
  H48      1.0000 0.99790  0.31890  0.89520  Biso   1.000  H
  C45      1.0000 0.83020  0.17890  0.53130  Biso   1.000  C
  C46      1.0000 0.16980  0.67890  0.96870  Biso   1.000  C
  C47      1.0000 0.16980  0.82110  0.46870  Biso   1.000  C
  C48      1.0000 0.83020  0.32110  0.03130  Biso   1.000  C
  H49      1.0000 0.82310  0.22460  0.58050  Biso   1.000  H
  H50      1.0000 0.17690  0.72460  0.91950  Biso   1.000  H
  H51      1.0000 0.17690  0.77540  0.41950  Biso   1.000  H
  H52      1.0000 0.82310  0.27540  0.08050  Biso   1.000  H
  C49      1.0000 0.73920  0.07230  0.50120  Biso   1.000  C
  C50      1.0000 0.26080  0.57230  0.99880  Biso   1.000  C
  C51      1.0000 0.26080  0.92770  0.49880  Biso   1.000  C
  C52      1.0000 0.73920  0.42770  0.00120  Biso   1.000  C
  H53      1.0000 0.67390  0.04690  0.53050  Biso   1.000  H
  H54      1.0000 0.32610  0.54690  0.96950  Biso   1.000  H
  H55      1.0000 0.32610  0.95310  0.46950  Biso   1.000  H
  H56      1.0000 0.67390  0.45310  0.03050  Biso   1.000  H
  Cl5      1.0000 0.24600  0.08230  0.86460  Biso   1.000  Cl
  Cl6      1.0000 0.75400  0.58230  0.63540  Biso   1.000  Cl
  Cl7      1.0000 0.75400  0.91770  0.13540  Biso   1.000  Cl
  Cl8      1.0000 0.24600  0.41770  0.36460  Biso   1.000  Cl
  O17      1.0000 0.19170  0.16890  0.92350  Biso   1.000  O
  O18      1.0000 0.80830  0.66890  0.57650  Biso   1.000  O
  O19      1.0000 0.80830  0.83110  0.07650  Biso   1.000  O
  O20      1.0000 0.19170  0.33110  0.42350  Biso   1.000  O
  O21      1.0000 0.15930  0.96700  0.82700  Biso   1.000  O
  O22      1.0000 0.84070  0.46700  0.67300  Biso   1.000  O
  O23      1.0000 0.84070  0.03300  0.17300  Biso   1.000  O
  O24      1.0000 0.15930  0.53300  0.32700  Biso   1.000  O
  O25      1.0000 0.28630  0.18100  0.80490  Biso   1.000  O
  O26      1.0000 0.71370  0.68100  0.69510  Biso   1.000  O
  O27      1.0000 0.71370  0.81900  0.19510  Biso   1.000  O
  O28      1.0000 0.28630  0.31900  0.30490  Biso   1.000  O
  O29      1.0000 0.35610  0.99900  0.90440  Biso   1.000  O
  O30      1.0000 0.64390  0.49900  0.59560  Biso   1.000  O
  O31      1.0000 0.64390  0.00100  0.09560  Biso   1.000  O
  O32      1.0000 0.35610  0.50100  0.40440  Biso   1.000  O
