data_image0
_cell_length_a       8.25
_cell_length_b       8.25
_cell_length_c       9.71
_cell_angle_alpha    90
_cell_angle_beta     90
_cell_angle_gamma    90

_symmetry_space_group_name_H-M    "P 1"
_symmetry_int_tables_number       1

loop_
  _symmetry_equiv_pos_as_xyz
  'x, y, z'

loop_
  _atom_site_label
  _atom_site_occupancy
  _atom_site_fract_x
  _atom_site_fract_y
  _atom_site_fract_z
  _atom_site_thermal_displace_type
  _atom_site_B_iso_or_equiv
  _atom_site_type_symbol
  Cu1      1.0000 0.00000  0.00000  0.00000  Biso   1.000  Cu
  Cu2      1.0000 0.50000  0.50000  0.50000  Biso   1.000  Cu
  N1       1.0000 0.19200  0.05300  0.11300  Biso   1.000  N
  N2       1.0000 0.94700  0.19200  0.88700  Biso   1.000  N
  N3       1.0000 0.80800  0.94700  0.11300  Biso   1.000  N
  N4       1.0000 0.05300  0.80800  0.88700  Biso   1.000  N
  N5       1.0000 0.30800  0.55300  0.38700  Biso   1.000  N
  N6       1.0000 0.55300  0.69200  0.61300  Biso   1.000  N
  N7       1.0000 0.69200  0.44700  0.38700  Biso   1.000  N
  N8       1.0000 0.44700  0.30800  0.61300  Biso   1.000  N
  C1       1.0000 0.29700  0.08800  0.18300  Biso   1.000  C
  C2       1.0000 0.91200  0.29700  0.81700  Biso   1.000  C
  C3       1.0000 0.70300  0.91200  0.18300  Biso   1.000  C
  C4       1.0000 0.08800  0.70300  0.81700  Biso   1.000  C
  C5       1.0000 0.20300  0.58800  0.31700  Biso   1.000  C
  C6       1.0000 0.58800  0.79700  0.68300  Biso   1.000  C
  C7       1.0000 0.79700  0.41200  0.31700  Biso   1.000  C
  C8       1.0000 0.41200  0.20300  0.68300  Biso   1.000  C
  C9       1.0000 0.44700  0.13800  0.26700  Biso   1.000  C
  C10      1.0000 0.86200  0.44700  0.73300  Biso   1.000  C
  C11      1.0000 0.55300  0.86200  0.26700  Biso   1.000  C
  C12      1.0000 0.13800  0.55300  0.73300  Biso   1.000  C
  C13      1.0000 0.05300  0.63800  0.23300  Biso   1.000  C
  C14      1.0000 0.63800  0.94700  0.76700  Biso   1.000  C
  C15      1.0000 0.94700  0.36200  0.23300  Biso   1.000  C
  C16      1.0000 0.36200  0.05300  0.76700  Biso   1.000  C
  C17      1.0000 0.50000  0.00000  0.36200  Biso   1.000  C
  C18      1.0000 0.00000  0.50000  0.63800  Biso   1.000  C
  C19      1.0000 0.00000  0.50000  0.13800  Biso   1.000  C
  C20      1.0000 0.50000  0.00000  0.86200  Biso   1.000  C
