data_image0
_cell_length_a       10.088
_cell_length_b       14.727
_cell_length_c       12.562
_cell_angle_alpha    90
_cell_angle_beta     100.34
_cell_angle_gamma    90

_symmetry_space_group_name_H-M    "P 1"
_symmetry_int_tables_number       1

loop_
  _symmetry_equiv_pos_as_xyz
  'x, y, z'

loop_
  _atom_site_label
  _atom_site_occupancy
  _atom_site_fract_x
  _atom_site_fract_y
  _atom_site_fract_z
  _atom_site_thermal_displace_type
  _atom_site_B_iso_or_equiv
  _atom_site_type_symbol
  Cu1      1.0000 0.81060  0.50020  0.18480  Biso   1.000  Cu
  Cu2      1.0000 0.18940  0.00020  0.81520  Biso   1.000  Cu
  P1       1.0000 0.87440  0.50750  0.36610  Biso   1.000  P
  P2       1.0000 0.12560  0.00750  0.63390  Biso   1.000  P
  C1       1.0000 0.81190  0.40530  0.42870  Biso   1.000  C
  C2       1.0000 0.18810  0.90530  0.57130  Biso   1.000  C
  C3       1.0000 0.84660  0.32040  0.40790  Biso   1.000  C
  C4       1.0000 0.15340  0.82040  0.59210  Biso   1.000  C
  H1       1.0000 0.91150  0.31320  0.36450  Biso   1.000  H
  H2       1.0000 0.08850  0.81320  0.63550  Biso   1.000  H
  C5       1.0000 0.79270  0.24030  0.44650  Biso   1.000  C
  C6       1.0000 0.20730  0.74030  0.55350  Biso   1.000  C
  H3       1.0000 0.80560  0.18280  0.41950  Biso   1.000  H
  H4       1.0000 0.19440  0.68280  0.58050  Biso   1.000  H
  C7       1.0000 0.72720  0.25370  0.51930  Biso   1.000  C
  C8       1.0000 0.27280  0.75370  0.48070  Biso   1.000  C
  H5       1.0000 0.73280  0.20880  0.57190  Biso   1.000  H
  H6       1.0000 0.26720  0.70880  0.42810  Biso   1.000  H
  C9       1.0000 0.64090  0.33280  0.53260  Biso   1.000  C
  C10      1.0000 0.35910  0.83280  0.46740  Biso   1.000  C
  H7       1.0000 0.55850  0.33150  0.55610  Biso   1.000  H
  H8       1.0000 0.44150  0.83150  0.44390  Biso   1.000  H
  C11      1.0000 0.71070  0.41410  0.50160  Biso   1.000  C
  C12      1.0000 0.28930  0.91410  0.49840  Biso   1.000  C
  H9       1.0000 0.69170  0.47090  0.52750  Biso   1.000  H
  H10      1.0000 0.30830  0.97090  0.47250  Biso   1.000  H
  C13      1.0000 0.04870  0.50470  0.42040  Biso   1.000  C
  C14      1.0000 0.95130  0.00470  0.57960  Biso   1.000  C
  C15      1.0000 0.09740  0.49280  0.52820  Biso   1.000  C
  C16      1.0000 0.90260  0.99280  0.47180  Biso   1.000  C
  H11      1.0000 0.03470  0.48650  0.57370  Biso   1.000  H
  H12      1.0000 0.96530  0.98650  0.42630  Biso   1.000  H
  C17      1.0000 0.24240  0.48890  0.57880  Biso   1.000  C
  C18      1.0000 0.75760  0.98890  0.42120  Biso   1.000  C
  H13      1.0000 0.27260  0.48330  0.65290  Biso   1.000  H
  H14      1.0000 0.72740  0.98330  0.34710  Biso   1.000  H
  C19      1.0000 0.33220  0.49480  0.50050  Biso   1.000  C
  C20      1.0000 0.66780  0.99480  0.49950  Biso   1.000  C
  H15      1.0000 0.42440  0.50080  0.52470  Biso   1.000  H
  H16      1.0000 0.57560  0.00080  0.47530  Biso   1.000  H
  C21      1.0000 0.28360  0.49160  0.39330  Biso   1.000  C
  C22      1.0000 0.71640  0.99160  0.60670  Biso   1.000  C
  H17      1.0000 0.34270  0.47600  0.34740  Biso   1.000  H
  H18      1.0000 0.65730  0.97600  0.65260  Biso   1.000  H
  C23      1.0000 0.13440  0.51230  0.34160  Biso   1.000  C
  C24      1.0000 0.86560  0.01230  0.65840  Biso   1.000  C
  H19      1.0000 0.10510  0.52760  0.26940  Biso   1.000  H
  H20      1.0000 0.89490  0.02760  0.73060  Biso   1.000  H
  C25      1.0000 0.81120  0.60520  0.43220  Biso   1.000  C
  C26      1.0000 0.18880  0.10520  0.56780  Biso   1.000  C
  C27      1.0000 0.69750  0.64520  0.39870  Biso   1.000  C
  C28      1.0000 0.30250  0.14520  0.60130  Biso   1.000  C
  H21      1.0000 0.64550  0.62690  0.33350  Biso   1.000  H
  H22      1.0000 0.35450  0.12690  0.66650  Biso   1.000  H
  C29      1.0000 0.65290  0.71100  0.45370  Biso   1.000  C
  C30      1.0000 0.34710  0.21100  0.54630  Biso   1.000  C
  H23      1.0000 0.56220  0.72670  0.43870  Biso   1.000  H
  H24      1.0000 0.43780  0.22670  0.56130  Biso   1.000  H
  C31      1.0000 0.73490  0.75470  0.52970  Biso   1.000  C
  C32      1.0000 0.26510  0.25470  0.47030  Biso   1.000  C
  H25      1.0000 0.72740  0.81610  0.54480  Biso   1.000  H
  H26      1.0000 0.27260  0.31610  0.45520  Biso   1.000  H
  C33      1.0000 0.82550  0.70290  0.57990  Biso   1.000  C
  C34      1.0000 0.17450  0.20290  0.42010  Biso   1.000  C
  H27      1.0000 0.85990  0.70870  0.65330  Biso   1.000  H
  H28      1.0000 0.14010  0.20870  0.34670  Biso   1.000  H
  C35      1.0000 0.86530  0.64200  0.52040  Biso   1.000  C
  C36      1.0000 0.13470  0.14200  0.47960  Biso   1.000  C
  H29      1.0000 0.95140  0.62040  0.54730  Biso   1.000  H
  H30      1.0000 0.04860  0.12040  0.45270  Biso   1.000  H
  P3       1.0000 0.60480  0.53660  0.09190  Biso   1.000  P
  P4       1.0000 0.39520  0.03660  0.90810  Biso   1.000  P
  C37      1.0000 0.48660  0.44320  0.10520  Biso   1.000  C
  C38      1.0000 0.51340  0.94320  0.89480  Biso   1.000  C
  C39      1.0000 0.36740  0.43050  0.03410  Biso   1.000  C
  C40      1.0000 0.63260  0.93050  0.96590  Biso   1.000  C
  H31      1.0000 0.34710  0.46620  0.97220  Biso   1.000  H
  H32      1.0000 0.65290  0.96620  0.02780  Biso   1.000  H
  C41      1.0000 0.27730  0.36430  0.05480  Biso   1.000  C
  C42      1.0000 0.72270  0.86430  0.94520  Biso   1.000  C
  H33      1.0000 0.19910  0.35580  0.00410  Biso   1.000  H
  H34      1.0000 0.80090  0.85580  0.99590  Biso   1.000  H
  C43      1.0000 0.29630  0.31230  0.14290  Biso   1.000  C
  C44      1.0000 0.70370  0.81230  0.85710  Biso   1.000  C
  H35      1.0000 0.23350  0.26890  0.15470  Biso   1.000  H
  H36      1.0000 0.76650  0.76890  0.84530  Biso   1.000  H
  C45      1.0000 0.42310  0.32720  0.22130  Biso   1.000  C
  C46      1.0000 0.57690  0.82720  0.77870  Biso   1.000  C
  H37      1.0000 0.43940  0.29510  0.28610  Biso   1.000  H
  H38      1.0000 0.56060  0.79510  0.71390  Biso   1.000  H
  C47      1.0000 0.52000  0.39090  0.19710  Biso   1.000  C
  C48      1.0000 0.48000  0.89090  0.80290  Biso   1.000  C
  H39      1.0000 0.60340  0.39700  0.24210  Biso   1.000  H
  H40      1.0000 0.39660  0.89700  0.75790  Biso   1.000  H
  C49      1.0000 0.58170  0.55770  0.94360  Biso   1.000  C
  C50      1.0000 0.41830  0.05770  0.05640  Biso   1.000  C
  C51      1.0000 0.69250  0.51770  0.89570  Biso   1.000  C
  C52      1.0000 0.30750  0.01770  0.10430  Biso   1.000  C
  H41      1.0000 0.76120  0.48320  0.93550  Biso   1.000  H
  H42      1.0000 0.23880  0.98320  0.06450  Biso   1.000  H
  C53      1.0000 0.68530  0.53580  0.78750  Biso   1.000  C
  C54      1.0000 0.31470  0.03580  0.21250  Biso   1.000  C
  H43      1.0000 0.75260  0.51410  0.75240  Biso   1.000  H
  H44      1.0000 0.24740  0.01410  0.24760  Biso   1.000  H
  C55      1.0000 0.58470  0.58350  0.73200  Biso   1.000  C
  C56      1.0000 0.41530  0.08350  0.26800  Biso   1.000  C
  H45      1.0000 0.58820  0.59680  0.66020  Biso   1.000  H
  H46      1.0000 0.41180  0.09680  0.33980  Biso   1.000  H
  C57      1.0000 0.47300  0.61550  0.77370  Biso   1.000  C
  C58      1.0000 0.52700  0.11550  0.22630  Biso   1.000  C
  H47      1.0000 0.39990  0.64470  0.73190  Biso   1.000  H
  H48      1.0000 0.60010  0.14470  0.26810  Biso   1.000  H
  C59      1.0000 0.48320  0.59880  0.88530  Biso   1.000  C
  C60      1.0000 0.51680  0.09880  0.11470  Biso   1.000  C
  H49      1.0000 0.41350  0.61910  0.91880  Biso   1.000  H
  H50      1.0000 0.58650  0.11910  0.08120  Biso   1.000  H
  C61      1.0000 0.52790  0.64520  0.13450  Biso   1.000  C
  C62      1.0000 0.47210  0.14520  0.86550  Biso   1.000  C
  C63      1.0000 0.60990  0.72120  0.14840  Biso   1.000  C
  C64      1.0000 0.39010  0.22120  0.85160  Biso   1.000  C
  H51      1.0000 0.70100  0.72490  0.14490  Biso   1.000  H
  H52      1.0000 0.29900  0.22490  0.85510  Biso   1.000  H
  C65      1.0000 0.51630  0.79730  0.17060  Biso   1.000  C
  C66      1.0000 0.48370  0.29730  0.82940  Biso   1.000  C
  H53      1.0000 0.54860  0.85630  0.16860  Biso   1.000  H
  H54      1.0000 0.45140  0.35630  0.83140  Biso   1.000  H
  C67      1.0000 0.39830  0.78800  0.19160  Biso   1.000  C
  C68      1.0000 0.60170  0.28800  0.80840  Biso   1.000  C
  H55      1.0000 0.35350  0.83970  0.20880  Biso   1.000  H
  H56      1.0000 0.64650  0.33970  0.79120  Biso   1.000  H
  C69      1.0000 0.34120  0.71600  0.19040  Biso   1.000  C
  C70      1.0000 0.65880  0.21600  0.80960  Biso   1.000  C
  H57      1.0000 0.25630  0.70950  0.20870  Biso   1.000  H
  H58      1.0000 0.74370  0.20950  0.79130  Biso   1.000  H
  C71      1.0000 0.41580  0.64160  0.15840  Biso   1.000  C
  C72      1.0000 0.58420  0.14160  0.84160  Biso   1.000  C
  H59      1.0000 0.37510  0.58480  0.15540  Biso   1.000  H
  H60      1.0000 0.62490  0.08480  0.84460  Biso   1.000  H
  O1       1.0000 0.12790  0.86990  0.84860  Biso   1.000  O
  O2       1.0000 0.87210  0.36990  0.15140  Biso   1.000  O
  O3       1.0000 0.05890  0.89040  0.00370  Biso   1.000  O
  O4       1.0000 0.94110  0.39040  0.99630  Biso   1.000  O
  O5       1.0000 0.09020  0.52230  0.82030  Biso   1.000  O
  O6       1.0000 0.90980  0.02230  0.17970  Biso   1.000  O
  O7       1.0000 0.94630  0.60590  0.12720  Biso   1.000  O
  O8       1.0000 0.05370  0.10590  0.87280  Biso   1.000  O
  C73      1.0000 0.08920  0.68120  0.87060  Biso   1.000  C
  C74      1.0000 0.91080  0.18120  0.12940  Biso   1.000  C
  H61      1.0000 0.11590  0.70180  0.80780  Biso   1.000  H
  H62      1.0000 0.88410  0.20180  0.19220  Biso   1.000  H
  N1       1.0000 0.01770  0.56370  0.97480  Biso   1.000  N
  N2       1.0000 0.98230  0.06370  0.02520  Biso   1.000  N
  H63      1.0000 0.99620  0.50870  0.98700  Biso   1.000  H
  H64      1.0000 0.00380  0.00870  0.01300  Biso   1.000  H
  C75      1.0000 0.07150  0.58090  0.87500  Biso   1.000  C
  C76      1.0000 0.92850  0.08090  0.12500  Biso   1.000  C
  C77      1.0000 0.00030  0.62350  0.04510  Biso   1.000  C
  C78      1.0000 0.99970  0.12350  0.95490  Biso   1.000  C
  N3       1.0000 0.01940  0.71790  0.02180  Biso   1.000  N
  N4       1.0000 0.98060  0.21790  0.97820  Biso   1.000  N
  H65      1.0000 0.99410  0.75810  0.06370  Biso   1.000  H
  H66      1.0000 0.00590  0.25810  0.93630  Biso   1.000  H
  C79      1.0000 0.07380  0.74570  0.93940  Biso   1.000  C
  C80      1.0000 0.92620  0.24570  0.06060  Biso   1.000  C
  C81      1.0000 0.08610  0.84600  0.93130  Biso   1.000  C
  C82      1.0000 0.91390  0.34600  0.06870  Biso   1.000  C
  O9       1.0000 0.05450  0.33140  0.80570  Biso   1.000  O
  O10      1.0000 0.94550  0.83140  0.19430  Biso   1.000  O
  C83      1.0000 0.00960  0.30040  0.70180  Biso   1.000  C
  C84      1.0000 0.99040  0.80040  0.29820  Biso   1.000  C
