data_image0
_cell_length_a       9.992
_cell_length_b       13.992
_cell_length_c       17.802
_cell_angle_alpha    79.044
_cell_angle_beta     87.595
_cell_angle_gamma    83.709

_symmetry_space_group_name_H-M    "P 1"
_symmetry_int_tables_number       1

loop_
  _symmetry_equiv_pos_as_xyz
  'x, y, z'

loop_
  _atom_site_label
  _atom_site_occupancy
  _atom_site_fract_x
  _atom_site_fract_y
  _atom_site_fract_z
  _atom_site_thermal_displace_type
  _atom_site_B_iso_or_equiv
  _atom_site_type_symbol
  Cu1      1.0000 0.05887  0.91427  0.95310  Biso   1.000  Cu
  Cu2      1.0000 0.94113  0.08573  0.04690  Biso   1.000  Cu
  Cu3      1.0000 0.91096  0.08573  0.54365  Biso   1.000  Cu
  Cu4      1.0000 0.08904  0.91427  0.45635  Biso   1.000  Cu
  I1       1.0000 0.87038  0.06109  0.90695  Biso   1.000  I
  I2       1.0000 0.12962  0.93891  0.09306  Biso   1.000  I
  I3       1.0000 0.12011  0.95311  0.59387  Biso   1.000  I
  I4       1.0000 0.87989  0.04689  0.40613  Biso   1.000  I
  N1       1.0000 0.22110  0.95587  0.88474  Biso   1.000  N
  N2       1.0000 0.77890  0.04413  0.11526  Biso   1.000  N
  N3       1.0000 0.76450  0.02793  0.61791  Biso   1.000  N
  N4       1.0000 0.23550  0.97207  0.38209  Biso   1.000  N
  P1       1.0000 0.00362  0.76199  0.96496  Biso   1.000  P
  P2       1.0000 0.99638  0.23801  0.03504  Biso   1.000  P
  P3       1.0000 0.92137  0.24527  0.53788  Biso   1.000  P
  P4       1.0000 0.07863  0.75473  0.46212  Biso   1.000  P
  C1       1.0000 0.91500  0.72670  0.05791  Biso   1.000  C
  C2       1.0000 0.08500  0.27330  0.94209  Biso   1.000  C
  H1       1.0000 0.97820  0.73570  0.09750  Biso   1.000  H
  H2       1.0000 0.02180  0.26430  0.90250  Biso   1.000  H
  C3       1.0000 0.78960  0.79770  0.06632  Biso   1.000  C
  C4       1.0000 0.21040  0.20230  0.93368  Biso   1.000  C
  H3       1.0000 0.81300  0.86590  0.05250  Biso   1.000  H
  H4       1.0000 0.18700  0.13410  0.94750  Biso   1.000  H
  H5       1.0000 0.71990  0.78920  0.03090  Biso   1.000  H
  H6       1.0000 0.28010  0.21080  0.96910  Biso   1.000  H
  C5       1.0000 0.73400  0.77900  0.14862  Biso   1.000  C
  C6       1.0000 0.26600  0.22100  0.85138  Biso   1.000  C
  H7       1.0000 0.80010  0.79450  0.18330  Biso   1.000  H
  H8       1.0000 0.19990  0.20550  0.81670  Biso   1.000  H
  H9       1.0000 0.65000  0.82270  0.15230  Biso   1.000  H
  H10      1.0000 0.35000  0.17730  0.84770  Biso   1.000  H
  C7       1.0000 0.70470  0.67240  0.17407  Biso   1.000  C
  C8       1.0000 0.29530  0.32760  0.82593  Biso   1.000  C
  H11      1.0000 0.67590  0.66150  0.22870  Biso   1.000  H
  H12      1.0000 0.32410  0.33850  0.77130  Biso   1.000  H
  H13      1.0000 0.62970  0.65970  0.14390  Biso   1.000  H
  H14      1.0000 0.37030  0.34030  0.85610  Biso   1.000  H
  C9       1.0000 0.82660  0.60180  0.16363  Biso   1.000  C
  C10      1.0000 0.17340  0.39820  0.83637  Biso   1.000  C
  H15      1.0000 0.80180  0.53390  0.17670  Biso   1.000  H
  H16      1.0000 0.19820  0.46610  0.82330  Biso   1.000  H
  H17      1.0000 0.89770  0.60850  0.19880  Biso   1.000  H
  H18      1.0000 0.10230  0.39150  0.80120  Biso   1.000  H
  C11      1.0000 0.88110  0.62160  0.08076  Biso   1.000  C
  C12      1.0000 0.11890  0.37840  0.91924  Biso   1.000  C
  H19      1.0000 0.96290  0.57620  0.07580  Biso   1.000  H
  H20      1.0000 0.03710  0.42380  0.92420  Biso   1.000  H
  H21      1.0000 0.81280  0.60940  0.04590  Biso   1.000  H
  H22      1.0000 0.18720  0.39060  0.95410  Biso   1.000  H
  C13      1.0000 0.89260  0.73310  0.89301  Biso   1.000  C
  C14      1.0000 0.10740  0.26690  0.10699  Biso   1.000  C
  H23      1.0000 0.79840  0.75200  0.91000  Biso   1.000  H
  H24      1.0000 0.20160  0.24800  0.09000  Biso   1.000  H
  C15      1.0000 0.91150  0.79660  0.81294  Biso   1.000  C
  C16      1.0000 0.08850  0.20340  0.18706  Biso   1.000  C
  H25      1.0000 0.90200  0.86660  0.81730  Biso   1.000  H
  H26      1.0000 0.09800  0.13340  0.18270  Biso   1.000  H
  H27      1.0000 0.00340  0.78030  0.79290  Biso   1.000  H
  H28      1.0000 0.99660  0.21970  0.20710  Biso   1.000  H
  C17      1.0000 0.80850  0.78020  0.75708  Biso   1.000  C
  C18      1.0000 0.19150  0.21980  0.24292  Biso   1.000  C
  H29      1.0000 0.82720  0.81860  0.70570  Biso   1.000  H
  H30      1.0000 0.17280  0.18140  0.29430  Biso   1.000  H
  H31      1.0000 0.71730  0.80400  0.77390  Biso   1.000  H
  H32      1.0000 0.28270  0.19600  0.22610  Biso   1.000  H
  C19      1.0000 0.81240  0.67230  0.75216  Biso   1.000  C
  C20      1.0000 0.18760  0.32770  0.24784  Biso   1.000  C
  H33      1.0000 0.90010  0.65030  0.72970  Biso   1.000  H
  H34      1.0000 0.09990  0.34970  0.27030  Biso   1.000  H
  H35      1.0000 0.74060  0.66360  0.71820  Biso   1.000  H
  H36      1.0000 0.25940  0.33640  0.28180  Biso   1.000  H
  C21      1.0000 0.79290  0.60980  0.83127  Biso   1.000  C
  C22      1.0000 0.20710  0.39020  0.16873  Biso   1.000  C
  H37      1.0000 0.70180  0.62760  0.85170  Biso   1.000  H
  H38      1.0000 0.29820  0.37240  0.14830  Biso   1.000  H
  H39      1.0000 0.80010  0.53990  0.82710  Biso   1.000  H
  H40      1.0000 0.19990  0.46010  0.17290  Biso   1.000  H
  C23      1.0000 0.89820  0.62520  0.88591  Biso   1.000  C
  C24      1.0000 0.10180  0.37480  0.11409  Biso   1.000  C
  H41      1.0000 0.98880  0.60320  0.86710  Biso   1.000  H
  H42      1.0000 0.01120  0.39680  0.13290  Biso   1.000  H
  H43      1.0000 0.88270  0.58500  0.93700  Biso   1.000  H
  H44      1.0000 0.11730  0.41500  0.06300  Biso   1.000  H
  C25      1.0000 0.15450  0.67090  0.96987  Biso   1.000  C
  C26      1.0000 0.84550  0.32910  0.03013  Biso   1.000  C
  H45      1.0000 0.12460  0.60370  0.97770  Biso   1.000  H
  H46      1.0000 0.87540  0.39630  0.02230  Biso   1.000  H
  C27      1.0000 0.23860  0.67880  0.03873  Biso   1.000  C
  C28      1.0000 0.76140  0.32120  0.96127  Biso   1.000  C
  H47      1.0000 0.25430  0.74810  0.03590  Biso   1.000  H
  H48      1.0000 0.74570  0.25190  0.96410  Biso   1.000  H
  H49      1.0000 0.18700  0.65790  0.08660  Biso   1.000  H
  H50      1.0000 0.81300  0.34210  0.91340  Biso   1.000  H
  C29      1.0000 0.37320  0.61670  0.04114  Biso   1.000  C
  C30      1.0000 0.62680  0.38330  0.95886  Biso   1.000  C
  H51      1.0000 0.42580  0.62790  0.08400  Biso   1.000  H
  H52      1.0000 0.57420  0.37210  0.91600  Biso   1.000  H
  H53      1.0000 0.35790  0.54660  0.05070  Biso   1.000  H
  H54      1.0000 0.64210  0.45340  0.94930  Biso   1.000  H
  C31      1.0000 0.45320  0.64050  0.96716  Biso   1.000  C
  C32      1.0000 0.54680  0.35950  0.03284  Biso   1.000  C
  H55      1.0000 0.47390  0.70940  0.95900  Biso   1.000  H
  H56      1.0000 0.52610  0.29060  0.04100  Biso   1.000  H
  H57      1.0000 0.53940  0.59790  0.97030  Biso   1.000  H
  H58      1.0000 0.46060  0.40210  0.02970  Biso   1.000  H
  C33      1.0000 0.37410  0.62530  0.90067  Biso   1.000  C
  C34      1.0000 0.62590  0.37470  0.09933  Biso   1.000  C
  H59      1.0000 0.35850  0.55550  0.90730  Biso   1.000  H
  H60      1.0000 0.64150  0.44450  0.09270  Biso   1.000  H
  H61      1.0000 0.42670  0.64240  0.85250  Biso   1.000  H
  H62      1.0000 0.57330  0.35760  0.14750  Biso   1.000  H
  C35      1.0000 0.23850  0.68870  0.89533  Biso   1.000  C
  C36      1.0000 0.76150  0.31130  0.10467  Biso   1.000  C
  H63      1.0000 0.18680  0.67450  0.85320  Biso   1.000  H
  H64      1.0000 0.81320  0.32550  0.14680  Biso   1.000  H
  H65      1.0000 0.25470  0.75850  0.88280  Biso   1.000  H
  H66      1.0000 0.74530  0.24150  0.11720  Biso   1.000  H
  C37      1.0000 0.34810  0.94340  0.90804  Biso   1.000  C
  C38      1.0000 0.65190  0.05660  0.09196  Biso   1.000  C
  H67      1.0000 0.36380  0.92630  0.96140  Biso   1.000  H
  H68      1.0000 0.63620  0.07370  0.03860  Biso   1.000  H
  C39      1.0000 0.45760  0.95420  0.85846  Biso   1.000  C
  C40      1.0000 0.54240  0.04580  0.14154  Biso   1.000  C
  H69      1.0000 0.54620  0.94380  0.87780  Biso   1.000  H
  H70      1.0000 0.45380  0.05620  0.12220  Biso   1.000  H
  C41      1.0000 0.43800  0.98031  0.78030  Biso   1.000  C
  C42      1.0000 0.56200  0.01969  0.21970  Biso   1.000  C
  C43      1.0000 0.30530  0.99550  0.75635  Biso   1.000  C
  C44      1.0000 0.69470  0.00450  0.24365  Biso   1.000  C
  H71      1.0000 0.28640  0.01480  0.70350  Biso   1.000  H
  H72      1.0000 0.71360  0.98520  0.29650  Biso   1.000  H
  C45      1.0000 0.20180  0.98250  0.80925  Biso   1.000  C
  C46      1.0000 0.79820  0.01750  0.19075  Biso   1.000  C
  H73      1.0000 0.11200  0.99290  0.79150  Biso   1.000  H
  H74      1.0000 0.88800  0.00710  0.20850  Biso   1.000  H
  C47      1.0000 0.77480  0.03670  0.69117  Biso   1.000  C
  C48      1.0000 0.22520  0.96330  0.30883  Biso   1.000  C
  H75      1.0000 0.85750  0.05340  0.70690  Biso   1.000  H
  H76      1.0000 0.14250  0.94660  0.29310  Biso   1.000  H
  C49      1.0000 0.67140  0.02270  0.74481  Biso   1.000  C
  C50      1.0000 0.32860  0.97730  0.25519  Biso   1.000  C
  H77      1.0000 0.68240  0.03230  0.79550  Biso   1.000  H
  H78      1.0000 0.31760  0.96770  0.20450  Biso   1.000  H
  C51      1.0000 0.55120  0.99447  0.72407  Biso   1.000  C
  C52      1.0000 0.44880  0.00553  0.27593  Biso   1.000  C
  C53      1.0000 0.54190  0.98030  0.64935  Biso   1.000  C
  C54      1.0000 0.45810  0.01970  0.35065  Biso   1.000  C
  H79      1.0000 0.46300  0.95830  0.63330  Biso   1.000  H
  H80      1.0000 0.53700  0.04170  0.36670  Biso   1.000  H
  C55      1.0000 0.64940  0.99890  0.59837  Biso   1.000  C
  C56      1.0000 0.35060  0.00110  0.40163  Biso   1.000  C
  H81      1.0000 0.64080  0.99050  0.54710  Biso   1.000  H
  H82      1.0000 0.35920  0.00950  0.45290  Biso   1.000  H
  C57      1.0000 0.84660  0.29390  0.62200  Biso   1.000  C
  C58      1.0000 0.15340  0.70610  0.37800  Biso   1.000  C
  H83      1.0000 0.88550  0.24690  0.66720  Biso   1.000  H
  H84      1.0000 0.11450  0.75310  0.33280  Biso   1.000  H
  C59      1.0000 0.88040  0.39420  0.63369  Biso   1.000  C
  C60      1.0000 0.11960  0.60580  0.36631  Biso   1.000  C
  H85      1.0000 0.97890  0.39700  0.62830  Biso   1.000  H
  H86      1.0000 0.02110  0.60300  0.37170  Biso   1.000  H
  H87      1.0000 0.83680  0.44580  0.59370  Biso   1.000  H
  H88      1.0000 0.16320  0.55420  0.40630  Biso   1.000  H
  C61      1.0000 0.83300  0.41360  0.71199  Biso   1.000  C
  C62      1.0000 0.16700  0.58640  0.28801  Biso   1.000  C
  H89      1.0000 0.85270  0.47990  0.71690  Biso   1.000  H
  H90      1.0000 0.14730  0.52010  0.28310  Biso   1.000  H
  H91      1.0000 0.88280  0.36570  0.75200  Biso   1.000  H
  H92      1.0000 0.11720  0.63430  0.24800  Biso   1.000  H
  C63      1.0000 0.68210  0.40590  0.72420  Biso   1.000  C
  C64      1.0000 0.31790  0.59410  0.27580  Biso   1.000  C
  H93      1.0000 0.65540  0.41370  0.77700  Biso   1.000  H
  H94      1.0000 0.34460  0.58630  0.22300  Biso   1.000  H
  H95      1.0000 0.63170  0.45930  0.68840  Biso   1.000  H
  H96      1.0000 0.36830  0.54070  0.31160  Biso   1.000  H
  C65      1.0000 0.64600  0.30780  0.71097  Biso   1.000  C
  C66      1.0000 0.35400  0.69220  0.28903  Biso   1.000  C
  H97      1.0000 0.54710  0.30640  0.71590  Biso   1.000  H
  H98      1.0000 0.45290  0.69360  0.28410  Biso   1.000  H
  H99      1.0000 0.68810  0.25490  0.75060  Biso   1.000  H
  H100     1.0000 0.31190  0.74510  0.24940  Biso   1.000  H
  C67      1.0000 0.69370  0.28970  0.63186  Biso   1.000  C
  C68      1.0000 0.30630  0.71030  0.36814  Biso   1.000  C
  H101     1.0000 0.64680  0.33990  0.59210  Biso   1.000  H
  H102     1.0000 0.35320  0.66010  0.40790  Biso   1.000  H
  H103     1.0000 0.67100  0.22470  0.62530  Biso   1.000  H
  H104     1.0000 0.32900  0.77530  0.37470  Biso   1.000  H
  C69      1.0000 0.84710  0.31810  0.44876  Biso   1.000  C
  C70      1.0000 0.15290  0.68190  0.55124  Biso   1.000  C
  H105     1.0000 0.90240  0.29450  0.40650  Biso   1.000  H
  H106     1.0000 0.09760  0.70550  0.59350  Biso   1.000  H
  C71      1.0000 0.85280  0.42890  0.43323  Biso   1.000  C
  C72      1.0000 0.14720  0.57110  0.56677  Biso   1.000  C
  H107     1.0000 0.94570  0.44330  0.44020  Biso   1.000  H
  H108     1.0000 0.05430  0.55670  0.55980  Biso   1.000  H
  H109     1.0000 0.79280  0.45840  0.47020  Biso   1.000  H
  H110     1.0000 0.20720  0.54160  0.52980  Biso   1.000  H
  C73      1.0000 0.80870  0.47390  0.35138  Biso   1.000  C
  C74      1.0000 0.19130  0.52610  0.64862  Biso   1.000  C
  H111     1.0000 0.80880  0.54590  0.34330  Biso   1.000  H
  H112     1.0000 0.19120  0.45410  0.65670  Biso   1.000  H
  H113     1.0000 0.87410  0.44910  0.31450  Biso   1.000  H
  H114     1.0000 0.12590  0.55090  0.68550  Biso   1.000  H
  C75      1.0000 0.66910  0.44920  0.33652  Biso   1.000  C
  C76      1.0000 0.33090  0.55080  0.66348  Biso   1.000  C
  H115     1.0000 0.64700  0.47500  0.28230  Biso   1.000  H
  H116     1.0000 0.35300  0.52500  0.71770  Biso   1.000  H
  H117     1.0000 0.60210  0.48140  0.36870  Biso   1.000  H
  H118     1.0000 0.39790  0.51860  0.63130  Biso   1.000  H
  C77      1.0000 0.66030  0.33940  0.35406  Biso   1.000  C
  C78      1.0000 0.33970  0.66060  0.64594  Biso   1.000  C
  H119     1.0000 0.71940  0.30780  0.31780  Biso   1.000  H
  H120     1.0000 0.28060  0.69220  0.68220  Biso   1.000  H
  H121     1.0000 0.56670  0.32610  0.34730  Biso   1.000  H
  H122     1.0000 0.43330  0.67390  0.65270  Biso   1.000  H
  C79      1.0000 0.70320  0.29600  0.43645  Biso   1.000  C
  C80      1.0000 0.29680  0.70400  0.56355  Biso   1.000  C
  H123     1.0000 0.69910  0.22430  0.44650  Biso   1.000  H
  H124     1.0000 0.30090  0.77570  0.55350  Biso   1.000  H
  H125     1.0000 0.64030  0.32430  0.47290  Biso   1.000  H
  H126     1.0000 0.35970  0.67570  0.52710  Biso   1.000  H
  C81      1.0000 0.09630  0.27830  0.53282  Biso   1.000  C
  C82      1.0000 0.90370  0.72170  0.46718  Biso   1.000  C
  H127     1.0000 0.09390  0.35110  0.52580  Biso   1.000  H
  H128     1.0000 0.90610  0.64890  0.47420  Biso   1.000  H
  C83      1.0000 0.16790  0.23160  0.60838  Biso   1.000  C
  C84      1.0000 0.83210  0.76840  0.39162  Biso   1.000  C
  H129     1.0000 0.12520  0.26220  0.65040  Biso   1.000  H
  H130     1.0000 0.87480  0.73780  0.34960  Biso   1.000  H
  H131     1.0000 0.15590  0.16100  0.62050  Biso   1.000  H
  H132     1.0000 0.84410  0.83900  0.37950  Biso   1.000  H
  C85      1.0000 0.31830  0.24390  0.60410  Biso   1.000  C
  C86      1.0000 0.68170  0.75610  0.39590  Biso   1.000  C
  H133     1.0000 0.33080  0.31410  0.59900  Biso   1.000  H
  H134     1.0000 0.66920  0.68590  0.40100  Biso   1.000  H
  H135     1.0000 0.36100  0.20830  0.65200  Biso   1.000  H
  H136     1.0000 0.63900  0.79170  0.34800  Biso   1.000  H
  C87      1.0000 0.38630  0.20480  0.53604  Biso   1.000  C
  C88      1.0000 0.61370  0.79520  0.46396  Biso   1.000  C
  H137     1.0000 0.48300  0.21480  0.53370  Biso   1.000  H
  H138     1.0000 0.51700  0.78520  0.46630  Biso   1.000  H
  H139     1.0000 0.37910  0.13360  0.54280  Biso   1.000  H
  H140     1.0000 0.62090  0.86640  0.45720  Biso   1.000  H
  C89      1.0000 0.32040  0.25700  0.46177  Biso   1.000  C
  C90      1.0000 0.67960  0.74300  0.53823  Biso   1.000  C
  H141     1.0000 0.33240  0.32750  0.45360  Biso   1.000  H
  H142     1.0000 0.66760  0.67250  0.54640  Biso   1.000  H
  H143     1.0000 0.36480  0.23010  0.41840  Biso   1.000  H
  H144     1.0000 0.63520  0.76990  0.58160  Biso   1.000  H
  C91      1.0000 0.17120  0.24420  0.46408  Biso   1.000  C
  C92      1.0000 0.82880  0.75580  0.53592  Biso   1.000  C
  H145     1.0000 0.16020  0.17430  0.46620  Biso   1.000  H
  H146     1.0000 0.83980  0.82570  0.53380  Biso   1.000  H
  H147     1.0000 0.13010  0.28190  0.41630  Biso   1.000  H
  H148     1.0000 0.86990  0.71810  0.58370  Biso   1.000  H
