data_image0
_cell_length_a       23.859
_cell_length_b       18.306
_cell_length_c       17.338
_cell_angle_alpha    90
_cell_angle_beta     90
_cell_angle_gamma    90

_symmetry_space_group_name_H-M    "P 1"
_symmetry_int_tables_number       1

loop_
  _symmetry_equiv_pos_as_xyz
  'x, y, z'

loop_
  _atom_site_label
  _atom_site_occupancy
  _atom_site_fract_x
  _atom_site_fract_y
  _atom_site_fract_z
  _atom_site_thermal_displace_type
  _atom_site_B_iso_or_equiv
  _atom_site_type_symbol
  I1       1.0000 0.12069  0.65325  0.21887  Biso   1.000  I
  I2       1.0000 0.87931  0.34675  0.71887  Biso   1.000  I
  I3       1.0000 0.62069  0.84675  0.21887  Biso   1.000  I
  I4       1.0000 0.37931  0.15325  0.71887  Biso   1.000  I
  I5       1.0000 0.13659  0.60315  0.98037  Biso   1.000  I
  I6       1.0000 0.86340  0.39685  0.48037  Biso   1.000  I
  I7       1.0000 0.63660  0.89685  0.98037  Biso   1.000  I
  I8       1.0000 0.36340  0.10316  0.48037  Biso   1.000  I
  Cu1      1.0000 0.18558  0.58500  0.12259  Biso   1.000  Cu
  Cu2      1.0000 0.81442  0.41500  0.62259  Biso   1.000  Cu
  Cu3      1.0000 0.68558  0.91500  0.12259  Biso   1.000  Cu
  Cu4      1.0000 0.31442  0.08500  0.62259  Biso   1.000  Cu
  Cu5      1.0000 0.07092  0.56715  0.09999  Biso   1.000  Cu
  Cu6      1.0000 0.92908  0.43285  0.59999  Biso   1.000  Cu
  Cu7      1.0000 0.57092  0.93285  0.09999  Biso   1.000  Cu
  Cu8      1.0000 0.42908  0.06715  0.59999  Biso   1.000  Cu
  P1       1.0000 0.19818  0.46550  0.13863  Biso   1.000  P
  P2       1.0000 0.80182  0.53450  0.63863  Biso   1.000  P
  P3       1.0000 0.69818  0.03450  0.13863  Biso   1.000  P
  P4       1.0000 0.30182  0.96550  0.63863  Biso   1.000  P
  P5       1.0000 0.07506  0.44562  0.10041  Biso   1.000  P
  P6       1.0000 0.92494  0.55438  0.60041  Biso   1.000  P
  P7       1.0000 0.57506  0.05438  0.10041  Biso   1.000  P
  P8       1.0000 0.42494  0.94562  0.60041  Biso   1.000  P
  N1       1.0000 0.25818  0.64382  0.11738  Biso   1.000  N
  N2       1.0000 0.74182  0.35618  0.61738  Biso   1.000  N
  N3       1.0000 0.75818  0.85618  0.11738  Biso   1.000  N
  N4       1.0000 0.24182  0.14382  0.61738  Biso   1.000  N
  N5       1.0000 0.49551  0.87418  0.10092  Biso   1.000  N
  N6       1.0000 0.50449  0.12582  0.60092  Biso   1.000  N
  N7       1.0000 0.99551  0.62582  0.10092  Biso   1.000  N
  N8       1.0000 0.00449  0.37418  0.60092  Biso   1.000  N
  C1       1.0000 0.26680  0.44050  0.10100  Biso   1.000  C
  C2       1.0000 0.73320  0.55950  0.60100  Biso   1.000  C
  C3       1.0000 0.76680  0.05950  0.10100  Biso   1.000  C
  C4       1.0000 0.23320  0.94050  0.60100  Biso   1.000  C
  C5       1.0000 0.27553  0.42130  0.02700  Biso   1.000  C
  C6       1.0000 0.72447  0.57870  0.52700  Biso   1.000  C
  C7       1.0000 0.77553  0.07870  0.02700  Biso   1.000  C
  C8       1.0000 0.22447  0.92130  0.52700  Biso   1.000  C
  H1       1.0000 0.24410  0.41630  0.99570  Biso   1.000  H
  H2       1.0000 0.75590  0.58370  0.49570  Biso   1.000  H
  H3       1.0000 0.74410  0.08370  0.99570  Biso   1.000  H
  H4       1.0000 0.25590  0.91630  0.49570  Biso   1.000  H
  C9       1.0000 0.32850  0.40820  0.99280  Biso   1.000  C
  C10      1.0000 0.67150  0.59180  0.49280  Biso   1.000  C
  C11      1.0000 0.82850  0.09180  0.99280  Biso   1.000  C
  C12      1.0000 0.17150  0.90820  0.49280  Biso   1.000  C
  H5       1.0000 0.33370  0.39080  0.94290  Biso   1.000  H
  H6       1.0000 0.66630  0.60920  0.44290  Biso   1.000  H
  H7       1.0000 0.83370  0.10920  0.94290  Biso   1.000  H
  H8       1.0000 0.16630  0.89080  0.44290  Biso   1.000  H
  C13      1.0000 0.37336  0.42560  0.04590  Biso   1.000  C
  C14      1.0000 0.62664  0.57440  0.54590  Biso   1.000  C
  C15      1.0000 0.87336  0.07440  0.04590  Biso   1.000  C
  C16      1.0000 0.12664  0.92560  0.54590  Biso   1.000  C
  H9       1.0000 0.40970  0.42270  0.02680  Biso   1.000  H
  H10      1.0000 0.59030  0.57730  0.52680  Biso   1.000  H
  H11      1.0000 0.90970  0.07730  0.02680  Biso   1.000  H
  H12      1.0000 0.09030  0.92270  0.52680  Biso   1.000  H
  C17      1.0000 0.36789  0.44500  0.11770  Biso   1.000  C
  C18      1.0000 0.63211  0.55500  0.61770  Biso   1.000  C
  C19      1.0000 0.86789  0.05500  0.11770  Biso   1.000  C
  C20      1.0000 0.13211  0.94500  0.61770  Biso   1.000  C
  H13      1.0000 0.39880  0.45250  0.14930  Biso   1.000  H
  H14      1.0000 0.60120  0.54750  0.64930  Biso   1.000  H
  H15      1.0000 0.89880  0.04750  0.14930  Biso   1.000  H
  H16      1.0000 0.10120  0.95250  0.64930  Biso   1.000  H
  C21      1.0000 0.31219  0.45410  0.14530  Biso   1.000  C
  C22      1.0000 0.68781  0.54590  0.64530  Biso   1.000  C
  C23      1.0000 0.81219  0.04590  0.14530  Biso   1.000  C
  C24      1.0000 0.18781  0.95410  0.64530  Biso   1.000  C
  H17      1.0000 0.30680  0.47010  0.19570  Biso   1.000  H
  H18      1.0000 0.69320  0.52990  0.69570  Biso   1.000  H
  H19      1.0000 0.80680  0.02990  0.19570  Biso   1.000  H
  H20      1.0000 0.19320  0.97010  0.69570  Biso   1.000  H
  C25      1.0000 0.19541  0.42354  0.23340  Biso   1.000  C
  C26      1.0000 0.80459  0.57646  0.73340  Biso   1.000  C
  C27      1.0000 0.69541  0.07646  0.23340  Biso   1.000  C
  C28      1.0000 0.30459  0.92354  0.73340  Biso   1.000  C
  C29      1.0000 0.21147  0.34930  0.24420  Biso   1.000  C
  C30      1.0000 0.78853  0.65070  0.74420  Biso   1.000  C
  C31      1.0000 0.71147  0.15070  0.24420  Biso   1.000  C
  C32      1.0000 0.28853  0.84930  0.74420  Biso   1.000  C
  H21      1.0000 0.22710  0.32410  0.20290  Biso   1.000  H
  H22      1.0000 0.77290  0.67590  0.70290  Biso   1.000  H
  H23      1.0000 0.72710  0.17590  0.20290  Biso   1.000  H
  H24      1.0000 0.27290  0.82410  0.70290  Biso   1.000  H
  C33      1.0000 0.20470  0.31260  0.31450  Biso   1.000  C
  C34      1.0000 0.79530  0.68740  0.81450  Biso   1.000  C
  C35      1.0000 0.70470  0.18740  0.31450  Biso   1.000  C
  C36      1.0000 0.29530  0.81260  0.81450  Biso   1.000  C
  H25      1.0000 0.21490  0.26400  0.32120  Biso   1.000  H
  H26      1.0000 0.78510  0.73600  0.82120  Biso   1.000  H
  H27      1.0000 0.71490  0.23600  0.32120  Biso   1.000  H
  H28      1.0000 0.28510  0.76400  0.82120  Biso   1.000  H
  C37      1.0000 0.18285  0.35210  0.37040  Biso   1.000  C
  C38      1.0000 0.81715  0.64790  0.87040  Biso   1.000  C
  C39      1.0000 0.68285  0.14790  0.37040  Biso   1.000  C
  C40      1.0000 0.31715  0.85210  0.87040  Biso   1.000  C
  H29      1.0000 0.17730  0.32850  0.41720  Biso   1.000  H
  H30      1.0000 0.82270  0.67150  0.91720  Biso   1.000  H
  H31      1.0000 0.67730  0.17150  0.41720  Biso   1.000  H
  H32      1.0000 0.32270  0.82850  0.91720  Biso   1.000  H
  C41      1.0000 0.16690  0.42670  0.36690  Biso   1.000  C
  C42      1.0000 0.83310  0.57330  0.86690  Biso   1.000  C
  C43      1.0000 0.66690  0.07330  0.36690  Biso   1.000  C
  C44      1.0000 0.33310  0.92670  0.86690  Biso   1.000  C
  H33      1.0000 0.15310  0.45270  0.40900  Biso   1.000  H
  H34      1.0000 0.84690  0.54730  0.90900  Biso   1.000  H
  H35      1.0000 0.65310  0.04730  0.40900  Biso   1.000  H
  H36      1.0000 0.34690  0.95270  0.90900  Biso   1.000  H
  C45      1.0000 0.17405  0.45710  0.29300  Biso   1.000  C
  C46      1.0000 0.82595  0.54290  0.79300  Biso   1.000  C
  C47      1.0000 0.67405  0.04290  0.29300  Biso   1.000  C
  C48      1.0000 0.32595  0.95710  0.79300  Biso   1.000  C
  H37      1.0000 0.16260  0.50520  0.28600  Biso   1.000  H
  H38      1.0000 0.83740  0.49480  0.78600  Biso   1.000  H
  H39      1.0000 0.66260  0.99480  0.28600  Biso   1.000  H
  H40      1.0000 0.33740  0.00520  0.78600  Biso   1.000  H
  C49      1.0000 0.04018  0.39905  0.02050  Biso   1.000  C
  C50      1.0000 0.95982  0.60095  0.52050  Biso   1.000  C
  C51      1.0000 0.54018  0.10095  0.02050  Biso   1.000  C
  C52      1.0000 0.45982  0.89905  0.52050  Biso   1.000  C
  C53      1.0000 0.01571  0.44150  0.96180  Biso   1.000  C
  C54      1.0000 0.98429  0.55850  0.46180  Biso   1.000  C
  C55      1.0000 0.51571  0.05850  0.96180  Biso   1.000  C
  C56      1.0000 0.48429  0.94150  0.46180  Biso   1.000  C
  H41      1.0000 0.01450  0.49220  0.96530  Biso   1.000  H
  H42      1.0000 0.98550  0.50780  0.46530  Biso   1.000  H
  H43      1.0000 0.51450  0.00780  0.96530  Biso   1.000  H
  H44      1.0000 0.48550  0.99220  0.46530  Biso   1.000  H
  C57      1.0000 0.99251  0.40390  0.89590  Biso   1.000  C
  C58      1.0000 0.00749  0.59610  0.39590  Biso   1.000  C
  C59      1.0000 0.49251  0.09610  0.89590  Biso   1.000  C
  C60      1.0000 0.50749  0.90390  0.39590  Biso   1.000  C
  H45      1.0000 0.98060  0.43190  0.85420  Biso   1.000  H
  H46      1.0000 0.01940  0.56810  0.35420  Biso   1.000  H
  H47      1.0000 0.48060  0.06810  0.85420  Biso   1.000  H
  H48      1.0000 0.51940  0.93190  0.35420  Biso   1.000  H
  C61      1.0000 0.98710  0.33030  0.89090  Biso   1.000  C
  C62      1.0000 0.01290  0.66970  0.39090  Biso   1.000  C
  C63      1.0000 0.48710  0.16970  0.89090  Biso   1.000  C
  C64      1.0000 0.51290  0.83030  0.39090  Biso   1.000  C
  H49      1.0000 0.96850  0.30790  0.85010  Biso   1.000  H
  H50      1.0000 0.03150  0.69210  0.35010  Biso   1.000  H
  H51      1.0000 0.46850  0.19210  0.85010  Biso   1.000  H
  H52      1.0000 0.53150  0.80790  0.35010  Biso   1.000  H
  C65      1.0000 0.01230  0.28800  0.95440  Biso   1.000  C
  C66      1.0000 0.98770  0.71200  0.45440  Biso   1.000  C
  C67      1.0000 0.51230  0.21200  0.95440  Biso   1.000  C
  C68      1.0000 0.48770  0.78800  0.45440  Biso   1.000  C
  H53      1.0000 0.01180  0.23720  0.95290  Biso   1.000  H
  H54      1.0000 0.98820  0.76280  0.45290  Biso   1.000  H
  H55      1.0000 0.51180  0.26280  0.95290  Biso   1.000  H
  H56      1.0000 0.48820  0.73720  0.45290  Biso   1.000  H
  C69      1.0000 0.03672  0.32348  0.01610  Biso   1.000  C
  C70      1.0000 0.96328  0.67652  0.51610  Biso   1.000  C
  C71      1.0000 0.53672  0.17652  0.01610  Biso   1.000  C
  C72      1.0000 0.46328  0.82348  0.51610  Biso   1.000  C
  H57      1.0000 0.05140  0.29570  0.05620  Biso   1.000  H
  H58      1.0000 0.94860  0.70430  0.55620  Biso   1.000  H
  H59      1.0000 0.55140  0.20430  0.05620  Biso   1.000  H
  H60      1.0000 0.44860  0.79570  0.55620  Biso   1.000  H
  C73      1.0000 0.04743  0.39929  0.18794  Biso   1.000  C
  C74      1.0000 0.95257  0.60071  0.68794  Biso   1.000  C
  C75      1.0000 0.54743  0.10071  0.18794  Biso   1.000  C
  C76      1.0000 0.45257  0.89929  0.68794  Biso   1.000  C
  C77      1.0000 0.06693  0.33392  0.21510  Biso   1.000  C
  C78      1.0000 0.93307  0.66608  0.71510  Biso   1.000  C
  C79      1.0000 0.56693  0.16608  0.21510  Biso   1.000  C
  C80      1.0000 0.43307  0.83392  0.71510  Biso   1.000  C
  H61      1.0000 0.09520  0.30870  0.18950  Biso   1.000  H
  H62      1.0000 0.90480  0.69130  0.68950  Biso   1.000  H
  H63      1.0000 0.59520  0.19130  0.18950  Biso   1.000  H
  H64      1.0000 0.40480  0.80870  0.68950  Biso   1.000  H
  C81      1.0000 0.04257  0.30610  0.28310  Biso   1.000  C
  C82      1.0000 0.95743  0.69390  0.78310  Biso   1.000  C
  C83      1.0000 0.54257  0.19390  0.28310  Biso   1.000  C
  C84      1.0000 0.45743  0.80610  0.78310  Biso   1.000  C
  H65      1.0000 0.05560  0.26240  0.30390  Biso   1.000  H
  H66      1.0000 0.94440  0.73760  0.80390  Biso   1.000  H
  H67      1.0000 0.55560  0.23760  0.30390  Biso   1.000  H
  H68      1.0000 0.44440  0.76240  0.80390  Biso   1.000  H
  C85      1.0000 0.00157  0.34150  0.31730  Biso   1.000  C
  C86      1.0000 0.99843  0.65850  0.81730  Biso   1.000  C
  C87      1.0000 0.50157  0.15850  0.31730  Biso   1.000  C
  C88      1.0000 0.49843  0.84150  0.81730  Biso   1.000  C
  H69      1.0000 0.98480  0.32050  0.36040  Biso   1.000  H
  H70      1.0000 0.01520  0.67950  0.86040  Biso   1.000  H
  H71      1.0000 0.48480  0.17950  0.36040  Biso   1.000  H
  H72      1.0000 0.51520  0.82050  0.86040  Biso   1.000  H
  C89      1.0000 0.98320  0.40530  0.29330  Biso   1.000  C
  C90      1.0000 0.01680  0.59470  0.79330  Biso   1.000  C
  C91      1.0000 0.48320  0.09470  0.29330  Biso   1.000  C
  C92      1.0000 0.51680  0.90530  0.79330  Biso   1.000  C
  H73      1.0000 0.95480  0.42930  0.31980  Biso   1.000  H
  H74      1.0000 0.04520  0.57070  0.81980  Biso   1.000  H
  H75      1.0000 0.45480  0.07070  0.31980  Biso   1.000  H
  H76      1.0000 0.54520  0.92930  0.81980  Biso   1.000  H
  C93      1.0000 0.00670  0.43614  0.22840  Biso   1.000  C
  C94      1.0000 0.99330  0.56386  0.72840  Biso   1.000  C
  C95      1.0000 0.50670  0.06386  0.22840  Biso   1.000  C
  C96      1.0000 0.49330  0.93614  0.72840  Biso   1.000  C
  H77      1.0000 0.99500  0.48200  0.21180  Biso   1.000  H
  H78      1.0000 0.00500  0.51800  0.71180  Biso   1.000  H
  H79      1.0000 0.49500  0.01800  0.21180  Biso   1.000  H
  H80      1.0000 0.50500  0.98200  0.71180  Biso   1.000  H
  C97      1.0000 0.14819  0.41098  0.08470  Biso   1.000  C
  C98      1.0000 0.85181  0.58902  0.58470  Biso   1.000  C
  C99      1.0000 0.64819  0.08902  0.08470  Biso   1.000  C
  C100     1.0000 0.35181  0.91098  0.58470  Biso   1.000  C
  C101     1.0000 0.27226  0.68889  0.17310  Biso   1.000  C
  C102     1.0000 0.72774  0.31111  0.67310  Biso   1.000  C
  C103     1.0000 0.77226  0.81111  0.17310  Biso   1.000  C
  C104     1.0000 0.22774  0.18889  0.67310  Biso   1.000  C
  H81      1.0000 0.24900  0.69090  0.21610  Biso   1.000  H
  H82      1.0000 0.75100  0.30910  0.71610  Biso   1.000  H
  H83      1.0000 0.74900  0.80910  0.21610  Biso   1.000  H
  H84      1.0000 0.25100  0.19090  0.71610  Biso   1.000  H
  C105     1.0000 0.32005  0.73451  0.17250  Biso   1.000  C
  C106     1.0000 0.67995  0.26549  0.67250  Biso   1.000  C
  C107     1.0000 0.82005  0.76549  0.17250  Biso   1.000  C
  C108     1.0000 0.17995  0.23451  0.67250  Biso   1.000  C
  H85      1.0000 0.32900  0.76330  0.21490  Biso   1.000  H
  H86      1.0000 0.67100  0.23670  0.71490  Biso   1.000  H
  H87      1.0000 0.82900  0.73670  0.21490  Biso   1.000  H
  H88      1.0000 0.17100  0.26330  0.71490  Biso   1.000  H
  C109     1.0000 0.35440  0.73502  0.10434  Biso   1.000  C
  C110     1.0000 0.64560  0.26498  0.60434  Biso   1.000  C
  C111     1.0000 0.85440  0.76498  0.10434  Biso   1.000  C
  C112     1.0000 0.14560  0.23502  0.60434  Biso   1.000  C
  C113     1.0000 0.34124  0.68753  0.04800  Biso   1.000  C
  C114     1.0000 0.65876  0.31247  0.54800  Biso   1.000  C
  C115     1.0000 0.84124  0.81247  0.04800  Biso   1.000  C
  C116     1.0000 0.15876  0.18753  0.54800  Biso   1.000  C
  H89      1.0000 0.36390  0.68300  0.00460  Biso   1.000  H
  H90      1.0000 0.63610  0.31700  0.50460  Biso   1.000  H
  H91      1.0000 0.86390  0.81700  0.00460  Biso   1.000  H
  H92      1.0000 0.13610  0.18300  0.50460  Biso   1.000  H
  C117     1.0000 0.29208  0.64436  0.05600  Biso   1.000  C
  C118     1.0000 0.70792  0.35564  0.55600  Biso   1.000  C
  C119     1.0000 0.79208  0.85564  0.05600  Biso   1.000  C
  C120     1.0000 0.20792  0.14436  0.55600  Biso   1.000  C
  H93      1.0000 0.28270  0.61390  0.01510  Biso   1.000  H
  H94      1.0000 0.71730  0.38610  0.51510  Biso   1.000  H
  H95      1.0000 0.78270  0.88610  0.01510  Biso   1.000  H
  H96      1.0000 0.21730  0.11390  0.51510  Biso   1.000  H
  C121     1.0000 0.40370  0.78270  0.10020  Biso   1.000  C
  C122     1.0000 0.59630  0.21730  0.60020  Biso   1.000  C
  C123     1.0000 0.90370  0.71730  0.10020  Biso   1.000  C
  C124     1.0000 0.09630  0.28270  0.60020  Biso   1.000  C
  C125     1.0000 0.42495  0.80599  0.03660  Biso   1.000  C
  C126     1.0000 0.57505  0.19401  0.53660  Biso   1.000  C
  C127     1.0000 0.92495  0.69401  0.03660  Biso   1.000  C
  C128     1.0000 0.07505  0.30599  0.53660  Biso   1.000  C
  H97      1.0000 0.41000  0.79120  0.98960  Biso   1.000  H
  H98      1.0000 0.59000  0.20880  0.48960  Biso   1.000  H
  H99      1.0000 0.91000  0.70880  0.98960  Biso   1.000  H
  H100     1.0000 0.09000  0.29120  0.48960  Biso   1.000  H
  C129     1.0000 0.47005  0.85300  0.03853  Biso   1.000  C
  C130     1.0000 0.52995  0.14700  0.53853  Biso   1.000  C
  C131     1.0000 0.97005  0.64700  0.03853  Biso   1.000  C
  C132     1.0000 0.02995  0.35300  0.53853  Biso   1.000  C
  H101     1.0000 0.48320  0.87100  0.99170  Biso   1.000  H
  H102     1.0000 0.51680  0.12900  0.49170  Biso   1.000  H
  H103     1.0000 0.98320  0.62900  0.99170  Biso   1.000  H
  H104     1.0000 0.01680  0.37100  0.49170  Biso   1.000  H
  C133     1.0000 0.47552  0.85258  0.16660  Biso   1.000  C
  C134     1.0000 0.52448  0.14742  0.66660  Biso   1.000  C
  C135     1.0000 0.97552  0.64742  0.16660  Biso   1.000  C
  C136     1.0000 0.02448  0.35258  0.66660  Biso   1.000  C
  H105     1.0000 0.49230  0.86820  0.21210  Biso   1.000  H
  H106     1.0000 0.50770  0.13180  0.71210  Biso   1.000  H
  H107     1.0000 0.99230  0.63180  0.21210  Biso   1.000  H
  H108     1.0000 0.00770  0.36820  0.71210  Biso   1.000  H
  C137     1.0000 0.42961  0.80654  0.16980  Biso   1.000  C
  C138     1.0000 0.57039  0.19346  0.66980  Biso   1.000  C
  C139     1.0000 0.92961  0.69346  0.16980  Biso   1.000  C
  C140     1.0000 0.07039  0.30654  0.66980  Biso   1.000  C
  H109     1.0000 0.41570  0.79120  0.21720  Biso   1.000  H
  H110     1.0000 0.58430  0.20880  0.71720  Biso   1.000  H
  H111     1.0000 0.91570  0.70880  0.21720  Biso   1.000  H
  H112     1.0000 0.08430  0.29120  0.71720  Biso   1.000  H
  I9       1.0000 0.12391  0.10788  0.34708  Biso   1.000  I
  I10      1.0000 0.87609  0.89212  0.84708  Biso   1.000  I
  I11      1.0000 0.62391  0.39212  0.34708  Biso   1.000  I
  I12      1.0000 0.37609  0.60788  0.84708  Biso   1.000  I
  I13      1.0000 0.12433  0.14421  0.10370  Biso   1.000  I
  I14      1.0000 0.87567  0.85579  0.60370  Biso   1.000  I
  I15      1.0000 0.62433  0.35579  0.10370  Biso   1.000  I
  I16      1.0000 0.37567  0.64421  0.60370  Biso   1.000  I
  Cu9      1.0000 0.18250  0.07581  0.21786  Biso   1.000  Cu
  Cu10     1.0000 0.81750  0.92419  0.71786  Biso   1.000  Cu
  Cu11     1.0000 0.68250  0.42419  0.21786  Biso   1.000  Cu
  Cu12     1.0000 0.31750  0.57581  0.71786  Biso   1.000  Cu
  Cu13     1.0000 0.06640  0.07646  0.21435  Biso   1.000  Cu
  Cu14     1.0000 0.93360  0.92354  0.71435  Biso   1.000  Cu
  Cu15     1.0000 0.56640  0.42354  0.21435  Biso   1.000  Cu
  Cu16     1.0000 0.43360  0.57646  0.71435  Biso   1.000  Cu
  P9       1.0000 0.18638  0.95443  0.21439  Biso   1.000  P
  P10      1.0000 0.81362  0.04557  0.71439  Biso   1.000  P
  P11      1.0000 0.68638  0.54557  0.21439  Biso   1.000  P
  P12      1.0000 0.31362  0.45443  0.71439  Biso   1.000  P
  P13      1.0000 0.05978  0.95523  0.21680  Biso   1.000  P
  P14      1.0000 0.94022  0.04477  0.71680  Biso   1.000  P
  P15      1.0000 0.55978  0.54477  0.21680  Biso   1.000  P
  P16      1.0000 0.44022  0.45523  0.71680  Biso   1.000  P
  N9       1.0000 0.25108  0.13979  0.22191  Biso   1.000  N
  N10      1.0000 0.74892  0.86021  0.72191  Biso   1.000  N
  N11      1.0000 0.75108  0.36021  0.22191  Biso   1.000  N
  N12      1.0000 0.24892  0.63979  0.72191  Biso   1.000  N
  N13      1.0000 0.49447  0.36271  0.21672  Biso   1.000  N
  N14      1.0000 0.50553  0.63729  0.71672  Biso   1.000  N
  N15      1.0000 0.99447  0.13729  0.21672  Biso   1.000  N
  N16      1.0000 0.00553  0.86271  0.71672  Biso   1.000  N
  C141     1.0000 0.01018  0.93230  0.35890  Biso   1.000  C
  C142     1.0000 0.98982  0.06770  0.85890  Biso   1.000  C
  C143     1.0000 0.51018  0.56770  0.35890  Biso   1.000  C
  C144     1.0000 0.48982  0.43230  0.85890  Biso   1.000  C
  H113     1.0000 0.04350  0.95020  0.37920  Biso   1.000  H
  H114     1.0000 0.95650  0.04980  0.87920  Biso   1.000  H
  H115     1.0000 0.54350  0.54980  0.37920  Biso   1.000  H
  H116     1.0000 0.45650  0.45020  0.87920  Biso   1.000  H
  C145     1.0000 0.00519  0.92151  0.28169  Biso   1.000  C
  C146     1.0000 0.99481  0.07849  0.78169  Biso   1.000  C
  C147     1.0000 0.50519  0.57849  0.28169  Biso   1.000  C
  C148     1.0000 0.49481  0.42151  0.78169  Biso   1.000  C
  C149     1.0000 0.91170  0.87460  0.30830  Biso   1.000  C
  C150     1.0000 0.08830  0.12540  0.80830  Biso   1.000  C
  C151     1.0000 0.41170  0.62540  0.30830  Biso   1.000  C
  C152     1.0000 0.58830  0.37460  0.80830  Biso   1.000  C
  H117     1.0000 0.87810  0.85650  0.28900  Biso   1.000  H
  H118     1.0000 0.12190  0.14350  0.78900  Biso   1.000  H
  H119     1.0000 0.37810  0.64350  0.28900  Biso   1.000  H
  H120     1.0000 0.62190  0.35650  0.78900  Biso   1.000  H
  C153     1.0000 0.95659  0.88960  0.25340  Biso   1.000  C
  C154     1.0000 0.04341  0.11040  0.75340  Biso   1.000  C
  C155     1.0000 0.45659  0.61040  0.25340  Biso   1.000  C
  C156     1.0000 0.54341  0.38960  0.75340  Biso   1.000  C
  H121     1.0000 0.95280  0.87820  0.20140  Biso   1.000  H
  H122     1.0000 0.04720  0.12180  0.70140  Biso   1.000  H
  H123     1.0000 0.45280  0.62180  0.20140  Biso   1.000  H
  H124     1.0000 0.54720  0.37820  0.70140  Biso   1.000  H
  C157     1.0000 0.96480  0.91630  0.40800  Biso   1.000  C
  C158     1.0000 0.03520  0.08370  0.90800  Biso   1.000  C
  C159     1.0000 0.46480  0.58370  0.40800  Biso   1.000  C
  C160     1.0000 0.53520  0.41630  0.90800  Biso   1.000  C
  H125     1.0000 0.96800  0.92730  0.46010  Biso   1.000  H
  H126     1.0000 0.03200  0.07270  0.96010  Biso   1.000  H
  H127     1.0000 0.46800  0.57270  0.46010  Biso   1.000  H
  H128     1.0000 0.53200  0.42730  0.96010  Biso   1.000  H
  C161     1.0000 0.91553  0.88480  0.38180  Biso   1.000  C
  C162     1.0000 0.08447  0.11520  0.88180  Biso   1.000  C
  C163     1.0000 0.41553  0.61520  0.38180  Biso   1.000  C
  C164     1.0000 0.58447  0.38480  0.88180  Biso   1.000  C
  H129     1.0000 0.88680  0.87170  0.41540  Biso   1.000  H
  H130     1.0000 0.11320  0.12830  0.91540  Biso   1.000  H
  H131     1.0000 0.38680  0.62830  0.41540  Biso   1.000  H
  H132     1.0000 0.61320  0.37170  0.91540  Biso   1.000  H
  C165     1.0000 0.01050  0.94620  0.07120  Biso   1.000  C
  C166     1.0000 0.98950  0.05380  0.57120  Biso   1.000  C
  C167     1.0000 0.51050  0.55380  0.07120  Biso   1.000  C
  C168     1.0000 0.48950  0.44620  0.57120  Biso   1.000  C
  H133     1.0000 0.99890  0.99360  0.08160  Biso   1.000  H
  H134     1.0000 0.00110  0.00640  0.58160  Biso   1.000  H
  H135     1.0000 0.49890  0.50640  0.08160  Biso   1.000  H
  H136     1.0000 0.50110  0.49360  0.58160  Biso   1.000  H
  C169     1.0000 0.04391  0.90598  0.12830  Biso   1.000  C
  C170     1.0000 0.95609  0.09402  0.62830  Biso   1.000  C
  C171     1.0000 0.54391  0.59402  0.12830  Biso   1.000  C
  C172     1.0000 0.45609  0.40598  0.62830  Biso   1.000  C
  C173     1.0000 0.05836  0.83563  0.11140  Biso   1.000  C
  C174     1.0000 0.94164  0.16437  0.61140  Biso   1.000  C
  C175     1.0000 0.55836  0.66437  0.11140  Biso   1.000  C
  C176     1.0000 0.44164  0.33563  0.61140  Biso   1.000  C
  H137     1.0000 0.07880  0.80970  0.14800  Biso   1.000  H
  H138     1.0000 0.92120  0.19030  0.64800  Biso   1.000  H
  H139     1.0000 0.57880  0.69030  0.14800  Biso   1.000  H
  H140     1.0000 0.42120  0.30970  0.64800  Biso   1.000  H
  C177     1.0000 0.04484  0.80080  0.04440  Biso   1.000  C
  C178     1.0000 0.95516  0.19920  0.54440  Biso   1.000  C
  C179     1.0000 0.54484  0.69920  0.04440  Biso   1.000  C
  C180     1.0000 0.45516  0.30080  0.54440  Biso   1.000  C
  H141     1.0000 0.05580  0.75270  0.03600  Biso   1.000  H
  H142     1.0000 0.94420  0.24730  0.53600  Biso   1.000  H
  H143     1.0000 0.55580  0.74730  0.03600  Biso   1.000  H
  H144     1.0000 0.44420  0.25270  0.53600  Biso   1.000  H
  C181     1.0000 0.01440  0.83840  0.98920  Biso   1.000  C
  C182     1.0000 0.98560  0.16160  0.48920  Biso   1.000  C
  C183     1.0000 0.51440  0.66160  0.98920  Biso   1.000  C
  C184     1.0000 0.48560  0.33840  0.48920  Biso   1.000  C
  H145     1.0000 0.00530  0.81520  0.94310  Biso   1.000  H
  H146     1.0000 0.99470  0.18480  0.44310  Biso   1.000  H
  H147     1.0000 0.50530  0.68480  0.94310  Biso   1.000  H
  H148     1.0000 0.49470  0.31520  0.44310  Biso   1.000  H
  C185     1.0000 0.99640  0.91370  0.00210  Biso   1.000  C
  C186     1.0000 0.00360  0.08630  0.50210  Biso   1.000  C
  C187     1.0000 0.49640  0.58630  0.00210  Biso   1.000  C
  C188     1.0000 0.50360  0.41370  0.50210  Biso   1.000  C
  H149     1.0000 0.97610  0.93900  0.96480  Biso   1.000  H
  H150     1.0000 0.02390  0.06100  0.46480  Biso   1.000  H
  H151     1.0000 0.47610  0.56100  0.96480  Biso   1.000  H
  H152     1.0000 0.52390  0.43900  0.46480  Biso   1.000  H
  C189     1.0000 0.45911  0.36576  0.27730  Biso   1.000  C
  C190     1.0000 0.54089  0.63424  0.77730  Biso   1.000  C
  C191     1.0000 0.95911  0.13424  0.27730  Biso   1.000  C
  C192     1.0000 0.04089  0.86576  0.77730  Biso   1.000  C
  H153     1.0000 0.46730  0.39660  0.31840  Biso   1.000  H
  H154     1.0000 0.53270  0.60340  0.81840  Biso   1.000  H
  H155     1.0000 0.96730  0.10340  0.31840  Biso   1.000  H
  H156     1.0000 0.03270  0.89660  0.81840  Biso   1.000  H
  C193     1.0000 0.43251  0.27759  0.15697  Biso   1.000  C
  C194     1.0000 0.56749  0.72241  0.65697  Biso   1.000  C
  C195     1.0000 0.93251  0.22241  0.15697  Biso   1.000  C
  C196     1.0000 0.06749  0.77759  0.65697  Biso   1.000  C
  H157     1.0000 0.42500  0.24900  0.11390  Biso   1.000  H
  H158     1.0000 0.57500  0.75100  0.61390  Biso   1.000  H
  H159     1.0000 0.92500  0.25100  0.11390  Biso   1.000  H
  H160     1.0000 0.07500  0.74900  0.61390  Biso   1.000  H
  C197     1.0000 0.41147  0.32432  0.27930  Biso   1.000  C
  C198     1.0000 0.58853  0.67568  0.77930  Biso   1.000  C
  C199     1.0000 0.91147  0.17568  0.27930  Biso   1.000  C
  C200     1.0000 0.08853  0.82432  0.77930  Biso   1.000  C
  H161     1.0000 0.38810  0.32710  0.32210  Biso   1.000  H
  H162     1.0000 0.61190  0.67290  0.82210  Biso   1.000  H
  H163     1.0000 0.88810  0.17290  0.32210  Biso   1.000  H
  H164     1.0000 0.11190  0.82710  0.82210  Biso   1.000  H
  C201     1.0000 0.39708  0.27746  0.21780  Biso   1.000  C
  C202     1.0000 0.60292  0.72254  0.71780  Biso   1.000  C
  C203     1.0000 0.89708  0.22254  0.21780  Biso   1.000  C
  C204     1.0000 0.10292  0.77746  0.71780  Biso   1.000  C
  C205     1.0000 0.32863  0.19339  0.28540  Biso   1.000  C
  C206     1.0000 0.67137  0.80661  0.78540  Biso   1.000  C
  C207     1.0000 0.82863  0.30661  0.28540  Biso   1.000  C
  C208     1.0000 0.17137  0.69339  0.78540  Biso   1.000  C
  H165     1.0000 0.34830  0.19920  0.33130  Biso   1.000  H
  H166     1.0000 0.65170  0.80080  0.83130  Biso   1.000  H
  H167     1.0000 0.84830  0.30080  0.33130  Biso   1.000  H
  H168     1.0000 0.15170  0.69920  0.83130  Biso   1.000  H
  C209     1.0000 0.31622  0.22100  0.15860  Biso   1.000  C
  C210     1.0000 0.68378  0.77900  0.65860  Biso   1.000  C
  C211     1.0000 0.81622  0.27900  0.15860  Biso   1.000  C
  C212     1.0000 0.18378  0.72100  0.65860  Biso   1.000  C
  H169     1.0000 0.32660  0.24480  0.11350  Biso   1.000  H
  H170     1.0000 0.67340  0.75520  0.61350  Biso   1.000  H
  H171     1.0000 0.82660  0.25520  0.11350  Biso   1.000  H
  H172     1.0000 0.17340  0.74480  0.61350  Biso   1.000  H
  C213     1.0000 0.26907  0.17650  0.15820  Biso   1.000  C
  C214     1.0000 0.73093  0.82350  0.65820  Biso   1.000  C
  C215     1.0000 0.76907  0.32350  0.15820  Biso   1.000  C
  C216     1.0000 0.23093  0.67650  0.65820  Biso   1.000  C
  H173     1.0000 0.24890  0.17170  0.11260  Biso   1.000  H
  H174     1.0000 0.75110  0.82830  0.61260  Biso   1.000  H
  H175     1.0000 0.74890  0.32830  0.11260  Biso   1.000  H
  H176     1.0000 0.25110  0.67170  0.61260  Biso   1.000  H
  C217     1.0000 0.28268  0.14827  0.28420  Biso   1.000  C
  C218     1.0000 0.71732  0.85173  0.78420  Biso   1.000  C
  C219     1.0000 0.78268  0.35173  0.28420  Biso   1.000  C
  C220     1.0000 0.21732  0.64827  0.78420  Biso   1.000  C
  H177     1.0000 0.27340  0.12270  0.32870  Biso   1.000  H
  H178     1.0000 0.72660  0.87730  0.82870  Biso   1.000  H
  H179     1.0000 0.77340  0.37730  0.32870  Biso   1.000  H
  H180     1.0000 0.22660  0.62270  0.82870  Biso   1.000  H
  C221     1.0000 0.34632  0.23012  0.22080  Biso   1.000  C
  C222     1.0000 0.65368  0.76988  0.72080  Biso   1.000  C
  C223     1.0000 0.84632  0.26988  0.22080  Biso   1.000  C
  C224     1.0000 0.15368  0.73012  0.72080  Biso   1.000  C
  C225     1.0000 0.47933  0.31995  0.15940  Biso   1.000  C
  C226     1.0000 0.52067  0.68005  0.65940  Biso   1.000  C
  C227     1.0000 0.97933  0.18005  0.15940  Biso   1.000  C
  C228     1.0000 0.02067  0.81995  0.65940  Biso   1.000  C
  H181     1.0000 0.50280  0.31850  0.11660  Biso   1.000  H
  H182     1.0000 0.49720  0.68150  0.61660  Biso   1.000  H
  H183     1.0000 0.00280  0.18150  0.11660  Biso   1.000  H
  H184     1.0000 0.99720  0.81850  0.61660  Biso   1.000  H
  C229     1.0000 0.19233  0.90685  0.12440  Biso   1.000  C
  C230     1.0000 0.80767  0.09315  0.62440  Biso   1.000  C
  C231     1.0000 0.69233  0.59315  0.12440  Biso   1.000  C
  C232     1.0000 0.30767  0.40685  0.62440  Biso   1.000  C
  C233     1.0000 0.19440  0.84760  0.97790  Biso   1.000  C
  C234     1.0000 0.80560  0.15240  0.47790  Biso   1.000  C
  C235     1.0000 0.69440  0.65240  0.97790  Biso   1.000  C
  C236     1.0000 0.30560  0.34760  0.47790  Biso   1.000  C
  H185     1.0000 0.19800  0.82480  0.93020  Biso   1.000  H
  H186     1.0000 0.80200  0.17520  0.43020  Biso   1.000  H
  H187     1.0000 0.69800  0.67520  0.93020  Biso   1.000  H
  H188     1.0000 0.30200  0.32480  0.43020  Biso   1.000  H
  C237     1.0000 0.19607  0.80570  0.04120  Biso   1.000  C
  C238     1.0000 0.80393  0.19430  0.54120  Biso   1.000  C
  C239     1.0000 0.69607  0.69430  0.04120  Biso   1.000  C
  C240     1.0000 0.30393  0.30570  0.54120  Biso   1.000  C
  H189     1.0000 0.19670  0.75490  0.03870  Biso   1.000  H
  H190     1.0000 0.80330  0.24510  0.53870  Biso   1.000  H
  H191     1.0000 0.69670  0.74510  0.03870  Biso   1.000  H
  H192     1.0000 0.30330  0.25490  0.53870  Biso   1.000  H
  C241     1.0000 0.19684  0.84084  0.10640  Biso   1.000  C
  C242     1.0000 0.80316  0.15916  0.60640  Biso   1.000  C
  C243     1.0000 0.69684  0.65916  0.10640  Biso   1.000  C
  C244     1.0000 0.30316  0.34084  0.60640  Biso   1.000  C
  H193     1.0000 0.20180  0.81040  0.14880  Biso   1.000  H
  H194     1.0000 0.79820  0.18960  0.64880  Biso   1.000  H
  H195     1.0000 0.70180  0.68960  0.14880  Biso   1.000  H
  H196     1.0000 0.29820  0.31040  0.64880  Biso   1.000  H
  C245     1.0000 0.18760  0.92340  0.97890  Biso   1.000  C
  C246     1.0000 0.81240  0.07660  0.47890  Biso   1.000  C
  C247     1.0000 0.68760  0.57660  0.97890  Biso   1.000  C
  C248     1.0000 0.31240  0.42340  0.47890  Biso   1.000  C
  H197     1.0000 0.18240  0.95300  0.93600  Biso   1.000  H
  H198     1.0000 0.81760  0.04700  0.43600  Biso   1.000  H
  H199     1.0000 0.68240  0.54700  0.93600  Biso   1.000  H
  H200     1.0000 0.31760  0.45300  0.43600  Biso   1.000  H
  C249     1.0000 0.19040  0.94950  0.06310  Biso   1.000  C
  C250     1.0000 0.80960  0.05050  0.56310  Biso   1.000  C
  C251     1.0000 0.69040  0.55050  0.06310  Biso   1.000  C
  C252     1.0000 0.30960  0.44950  0.56310  Biso   1.000  C
  H201     1.0000 0.19080  0.99970  0.07160  Biso   1.000  H
  H202     1.0000 0.80920  0.00030  0.57160  Biso   1.000  H
  H203     1.0000 0.69080  0.50030  0.07160  Biso   1.000  H
  H204     1.0000 0.30920  0.49970  0.57160  Biso   1.000  H
  C253     1.0000 0.12285  0.91255  0.25574  Biso   1.000  C
  C254     1.0000 0.87715  0.08745  0.75574  Biso   1.000  C
  C255     1.0000 0.62285  0.58745  0.25574  Biso   1.000  C
  C256     1.0000 0.37715  0.41255  0.75574  Biso   1.000  C
  C257     1.0000 0.23799  0.84940  0.31190  Biso   1.000  C
  C258     1.0000 0.76201  0.15060  0.81190  Biso   1.000  C
  C259     1.0000 0.73799  0.65060  0.31190  Biso   1.000  C
  C260     1.0000 0.26201  0.34940  0.81190  Biso   1.000  C
  H205     1.0000 0.20410  0.82440  0.31040  Biso   1.000  H
  H206     1.0000 0.79590  0.17560  0.81040  Biso   1.000  H
  H207     1.0000 0.70410  0.67560  0.31040  Biso   1.000  H
  H208     1.0000 0.29590  0.32440  0.81040  Biso   1.000  H
  C261     1.0000 0.24127  0.91113  0.27250  Biso   1.000  C
  C262     1.0000 0.75873  0.08887  0.77250  Biso   1.000  C
  C263     1.0000 0.74127  0.58887  0.27250  Biso   1.000  C
  C264     1.0000 0.25873  0.41113  0.77250  Biso   1.000  C
  C265     1.0000 0.29042  0.95060  0.27270  Biso   1.000  C
  C266     1.0000 0.70958  0.04940  0.77270  Biso   1.000  C
  C267     1.0000 0.79042  0.54940  0.27270  Biso   1.000  C
  C268     1.0000 0.20958  0.45060  0.77270  Biso   1.000  C
  H209     1.0000 0.29600  0.99340  0.24500  Biso   1.000  H
  H210     1.0000 0.70400  0.00660  0.74500  Biso   1.000  H
  H211     1.0000 0.79600  0.50660  0.24500  Biso   1.000  H
  H212     1.0000 0.20400  0.49340  0.74500  Biso   1.000  H
  C269     1.0000 0.32400  0.85080  0.35770  Biso   1.000  C
  C270     1.0000 0.67600  0.14920  0.85770  Biso   1.000  C
  C271     1.0000 0.82400  0.64920  0.35770  Biso   1.000  C
  C272     1.0000 0.17600  0.35080  0.85770  Biso   1.000  C
  H213     1.0000 0.35230  0.82770  0.38540  Biso   1.000  H
  H214     1.0000 0.64770  0.17230  0.88540  Biso   1.000  H
  H215     1.0000 0.85230  0.67230  0.38540  Biso   1.000  H
  H216     1.0000 0.14770  0.32770  0.88540  Biso   1.000  H
  C273     1.0000 0.33678  0.91330  0.32680  Biso   1.000  C
  C274     1.0000 0.66322  0.08670  0.82680  Biso   1.000  C
  C275     1.0000 0.83678  0.58670  0.32680  Biso   1.000  C
  C276     1.0000 0.16322  0.41330  0.82680  Biso   1.000  C
  H217     1.0000 0.37130  0.93540  0.33570  Biso   1.000  H
  H218     1.0000 0.62870  0.06460  0.83570  Biso   1.000  H
  H219     1.0000 0.87130  0.56460  0.33570  Biso   1.000  H
  H220     1.0000 0.12870  0.43540  0.83570  Biso   1.000  H
  C277     1.0000 0.27995  0.81950  0.35450  Biso   1.000  C
  C278     1.0000 0.72005  0.18050  0.85450  Biso   1.000  C
  C279     1.0000 0.77995  0.68050  0.35450  Biso   1.000  C
  C280     1.0000 0.22005  0.31950  0.85450  Biso   1.000  C
  H221     1.0000 0.27460  0.77570  0.38060  Biso   1.000  H
  H222     1.0000 0.72540  0.22430  0.88060  Biso   1.000  H
  H223     1.0000 0.77460  0.72430  0.38060  Biso   1.000  H
  H224     1.0000 0.22540  0.27570  0.88060  Biso   1.000  H
