data_image0
_cell_length_a       9.0385
_cell_length_b       13.7246
_cell_length_c       21.8702
_cell_angle_alpha    78.251
_cell_angle_beta     84.963
_cell_angle_gamma    72.862

_symmetry_space_group_name_H-M    "P 1"
_symmetry_int_tables_number       1

loop_
  _symmetry_equiv_pos_as_xyz
  'x, y, z'

loop_
  _atom_site_label
  _atom_site_occupancy
  _atom_site_fract_x
  _atom_site_fract_y
  _atom_site_fract_z
  _atom_site_thermal_displace_type
  _atom_site_B_iso_or_equiv
  _atom_site_type_symbol
  C1       1.0000 0.17590  0.27300  0.02230  Biso   1.000  C
  C2       1.0000 0.82410  0.72700  0.97770  Biso   1.000  C
  C3       1.0000 0.20000  0.33050  0.06260  Biso   1.000  C
  C4       1.0000 0.80000  0.66950  0.93740  Biso   1.000  C
  H1       1.0000 0.11870  0.35970  0.08840  Biso   1.000  H
  H2       1.0000 0.88130  0.64030  0.91160  Biso   1.000  H
  C5       1.0000 0.34460  0.34620  0.06570  Biso   1.000  C
  C6       1.0000 0.65540  0.65380  0.93430  Biso   1.000  C
  H3       1.0000 0.35880  0.38280  0.09500  Biso   1.000  H
  H4       1.0000 0.64120  0.61720  0.90500  Biso   1.000  H
  C7       1.0000 0.46760  0.30900  0.02620  Biso   1.000  C
  C8       1.0000 0.53240  0.69100  0.97380  Biso   1.000  C
  H5       1.0000 0.56190  0.32300  0.02700  Biso   1.000  H
  H6       1.0000 0.43810  0.67700  0.97300  Biso   1.000  H
  C9       1.0000 0.44380  0.24850  0.98460  Biso   1.000  C
  C10      1.0000 0.55620  0.75150  0.01540  Biso   1.000  C
  H7       1.0000 0.52580  0.21840  0.95940  Biso   1.000  H
  H8       1.0000 0.47420  0.78160  0.04060  Biso   1.000  H
  C11      1.0000 0.29870  0.23370  0.98100  Biso   1.000  C
  C12      1.0000 0.70130  0.76630  0.01900  Biso   1.000  C
  H9       1.0000 0.28270  0.19790  0.95160  Biso   1.000  H
  H10      1.0000 0.71730  0.80210  0.04840  Biso   1.000  H
  C13      1.0000 0.92060  0.30330  0.94230  Biso   1.000  C
  C14      1.0000 0.07940  0.69670  0.05770  Biso   1.000  C
  C15      1.0000 0.95470  0.39630  0.91090  Biso   1.000  C
  C16      1.0000 0.04530  0.60370  0.08910  Biso   1.000  C
  H11      1.0000 0.02330  0.42300  0.92680  Biso   1.000  H
  H12      1.0000 0.97670  0.57700  0.07320  Biso   1.000  H
  C17      1.0000 0.88010  0.44470  0.85530  Biso   1.000  C
  C18      1.0000 0.11990  0.55530  0.14470  Biso   1.000  C
  H13      1.0000 0.90090  0.50500  0.83320  Biso   1.000  H
  H14      1.0000 0.09910  0.49500  0.16680  Biso   1.000  H
  C19      1.0000 0.77710  0.40730  0.83170  Biso   1.000  C
  C20      1.0000 0.22290  0.59270  0.16830  Biso   1.000  C
  H15      1.0000 0.72760  0.44340  0.79490  Biso   1.000  H
  H16      1.0000 0.27240  0.55660  0.20510  Biso   1.000  H
  C21      1.0000 0.74540  0.31550  0.86230  Biso   1.000  C
  C22      1.0000 0.25460  0.68450  0.13770  Biso   1.000  C
  H17      1.0000 0.67670  0.28970  0.84570  Biso   1.000  H
  H18      1.0000 0.32330  0.71030  0.15430  Biso   1.000  H
  C23      1.0000 0.81880  0.26320  0.91820  Biso   1.000  C
  C24      1.0000 0.18120  0.73680  0.08180  Biso   1.000  C
  H19      1.0000 0.79940  0.20190  0.93920  Biso   1.000  H
  H20      1.0000 0.20060  0.79810  0.06080  Biso   1.000  H
  C25      1.0000 0.86450  0.30460  0.07390  Biso   1.000  C
  C26      1.0000 0.13550  0.69540  0.92610  Biso   1.000  C
  C27      1.0000 0.78350  0.41000  0.05810  Biso   1.000  C
  C28      1.0000 0.21650  0.59000  0.94190  Biso   1.000  C
  H21      1.0000 0.80260  0.45050  0.02040  Biso   1.000  H
  H22      1.0000 0.19740  0.54950  0.97960  Biso   1.000  H
  C29      1.0000 0.67300  0.45110  0.10170  Biso   1.000  C
  C30      1.0000 0.32700  0.54890  0.89830  Biso   1.000  C
  H23      1.0000 0.61060  0.51890  0.09090  Biso   1.000  H
  H24      1.0000 0.38940  0.48110  0.90910  Biso   1.000  H
  C31      1.0000 0.65300  0.39640  0.15870  Biso   1.000  C
  C32      1.0000 0.34700  0.60360  0.84130  Biso   1.000  C
  H25      1.0000 0.58020  0.42790  0.18670  Biso   1.000  H
  H26      1.0000 0.41980  0.57210  0.81330  Biso   1.000  H
  C33      1.0000 0.73810  0.29500  0.17620  Biso   1.000  C
  C34      1.0000 0.26190  0.70500  0.82380  Biso   1.000  C
  H27      1.0000 0.72690  0.25870  0.21630  Biso   1.000  H
  H28      1.0000 0.27310  0.74130  0.78370  Biso   1.000  H
  C35      1.0000 0.84280  0.24680  0.13230  Biso   1.000  C
  C36      1.0000 0.15720  0.75320  0.86770  Biso   1.000  C
  H29      1.0000 0.89710  0.17690  0.14230  Biso   1.000  H
  H30      1.0000 0.10290  0.82310  0.85770  Biso   1.000  H
  C37      1.0000 0.86650  0.57450  0.28790  Biso   1.000  C
  C38      1.0000 0.13350  0.42550  0.71210  Biso   1.000  C
  C39      1.0000 0.89330  0.67050  0.28350  Biso   1.000  C
  C40      1.0000 0.10670  0.32950  0.71650  Biso   1.000  C
  H31      1.0000 0.95060  0.68240  0.31310  Biso   1.000  H
  H32      1.0000 0.04940  0.31760  0.68690  Biso   1.000  H
  C41      1.0000 0.82870  0.75140  0.23110  Biso   1.000  C
  C42      1.0000 0.17130  0.24860  0.76890  Biso   1.000  C
  H33      1.0000 0.85300  0.81410  0.22450  Biso   1.000  H
  H34      1.0000 0.14700  0.18590  0.77550  Biso   1.000  H
  C43      1.0000 0.73240  0.73650  0.19140  Biso   1.000  C
  C44      1.0000 0.26760  0.26350  0.80860  Biso   1.000  C
  H35      1.0000 0.68630  0.79010  0.15940  Biso   1.000  H
  H36      1.0000 0.31370  0.20990  0.84060  Biso   1.000  H
  C45      1.0000 0.70450  0.64300  0.19880  Biso   1.000  C
  C46      1.0000 0.29550  0.35700  0.80120  Biso   1.000  C
  H37      1.0000 0.63970  0.63410  0.17100  Biso   1.000  H
  H38      1.0000 0.36030  0.36590  0.82900  Biso   1.000  H
  C47      1.0000 0.76860  0.55860  0.24660  Biso   1.000  C
  C48      1.0000 0.23140  0.44140  0.75340  Biso   1.000  C
  H39      1.0000 0.74720  0.49520  0.25060  Biso   1.000  H
  H40      1.0000 0.25280  0.50480  0.74940  Biso   1.000  H
  C49      1.0000 0.11140  0.38050  0.30680  Biso   1.000  C
  C50      1.0000 0.88860  0.61950  0.69320  Biso   1.000  C
  C51      1.0000 0.26590  0.36460  0.32070  Biso   1.000  C
  C52      1.0000 0.73410  0.63540  0.67930  Biso   1.000  C
  H41      1.0000 0.29350  0.39670  0.34980  Biso   1.000  H
  H42      1.0000 0.70650  0.60330  0.65020  Biso   1.000  H
  C53      1.0000 0.37710  0.29660  0.28770  Biso   1.000  C
  C54      1.0000 0.62290  0.70340  0.71230  Biso   1.000  C
  H43      1.0000 0.48090  0.28700  0.29470  Biso   1.000  H
  H44      1.0000 0.51910  0.71300  0.70530  Biso   1.000  H
  C55      1.0000 0.34390  0.24270  0.24560  Biso   1.000  C
  C56      1.0000 0.65610  0.75730  0.75440  Biso   1.000  C
  H45      1.0000 0.42050  0.19660  0.22590  Biso   1.000  H
  H46      1.0000 0.57950  0.80340  0.77410  Biso   1.000  H
  C57      1.0000 0.18500  0.26360  0.23510  Biso   1.000  C
  C58      1.0000 0.81500  0.73640  0.76490  Biso   1.000  C
  H47      1.0000 0.15680  0.22980  0.20720  Biso   1.000  H
  H48      1.0000 0.84320  0.77020  0.79280  Biso   1.000  H
  C59      1.0000 0.06630  0.33240  0.26430  Biso   1.000  C
  C60      1.0000 0.93370  0.66760  0.73570  Biso   1.000  C
  H49      1.0000 0.96260  0.34530  0.25560  Biso   1.000  H
  H50      1.0000 0.03740  0.65470  0.74440  Biso   1.000  H
  C61      1.0000 0.81980  0.40190  0.37830  Biso   1.000  C
  C62      1.0000 0.18020  0.59810  0.62170  Biso   1.000  C
  C63      1.0000 0.85700  0.29460  0.38950  Biso   1.000  C
  C64      1.0000 0.14300  0.70540  0.61050  Biso   1.000  C
  H51      1.0000 0.95640  0.25480  0.38090  Biso   1.000  H
  H52      1.0000 0.04360  0.74520  0.61910  Biso   1.000  H
  C65      1.0000 0.74100  0.24730  0.41400  Biso   1.000  C
  C66      1.0000 0.25900  0.75270  0.58600  Biso   1.000  C
  H53      1.0000 0.76300  0.17550  0.42040  Biso   1.000  H
  H54      1.0000 0.23700  0.82450  0.57960  Biso   1.000  H
  C67      1.0000 0.59920  0.30420  0.42840  Biso   1.000  C
  C68      1.0000 0.40080  0.69580  0.57160  Biso   1.000  C
  H55      1.0000 0.52430  0.27080  0.44420  Biso   1.000  H
  H56      1.0000 0.47570  0.72920  0.55580  Biso   1.000  H
  C69      1.0000 0.56070  0.41140  0.42030  Biso   1.000  C
  C70      1.0000 0.43930  0.58860  0.57970  Biso   1.000  C
  H57      1.0000 0.46250  0.44930  0.43180  Biso   1.000  H
  H58      1.0000 0.53750  0.55070  0.56820  Biso   1.000  H
  C71      1.0000 0.67100  0.46150  0.39460  Biso   1.000  C
  C72      1.0000 0.32900  0.53850  0.60540  Biso   1.000  C
  H59      1.0000 0.64700  0.53340  0.38820  Biso   1.000  H
  H60      1.0000 0.35300  0.46660  0.61180  Biso   1.000  H
  C73      1.0000 0.32740  0.00560  0.11020  Biso   1.000  C
  C74      1.0000 0.67260  0.99440  0.88980  Biso   1.000  C
  H61      1.0000 0.36620  0.03180  0.07150  Biso   1.000  H
  H62      1.0000 0.63380  0.96820  0.92850  Biso   1.000  H
  C75      1.0000 0.42050  0.97940  0.16320  Biso   1.000  C
  C76      1.0000 0.57950  0.02060  0.83680  Biso   1.000  C
  H63      1.0000 0.51680  0.99200  0.16010  Biso   1.000  H
  H64      1.0000 0.48320  0.00800  0.83990  Biso   1.000  H
  C77      1.0000 0.36450  0.93420  0.22040  Biso   1.000  C
  C78      1.0000 0.63550  0.06580  0.77960  Biso   1.000  C
  C79      1.0000 0.21620  0.92130  0.22310  Biso   1.000  C
  C80      1.0000 0.78380  0.07870  0.77690  Biso   1.000  C
  H65      1.0000 0.17460  0.89330  0.26060  Biso   1.000  H
  H66      1.0000 0.82540  0.10670  0.73940  Biso   1.000  H
  C81      1.0000 0.13050  0.95150  0.16820  Biso   1.000  C
  C82      1.0000 0.86950  0.04850  0.83180  Biso   1.000  C
  H67      1.0000 0.03270  0.94160  0.16990  Biso   1.000  H
  H68      1.0000 0.96730  0.05840  0.83010  Biso   1.000  H
  C83      1.0000 0.26900  0.62850  0.33580  Biso   1.000  C
  C84      1.0000 0.73100  0.37150  0.66420  Biso   1.000  C
  H69      1.0000 0.25250  0.58770  0.30940  Biso   1.000  H
  H70      1.0000 0.74750  0.41230  0.69060  Biso   1.000  H
  C85      1.0000 0.35420  0.69910  0.31420  Biso   1.000  C
  C86      1.0000 0.64580  0.30090  0.68580  Biso   1.000  C
  H71      1.0000 0.38890  0.70690  0.27270  Biso   1.000  H
  H72      1.0000 0.61110  0.29310  0.72730  Biso   1.000  H
  C87      1.0000 0.38840  0.75690  0.35180  Biso   1.000  C
  C88      1.0000 0.61160  0.24310  0.64820  Biso   1.000  C
  C89      1.0000 0.33620  0.74100  0.41540  Biso   1.000  C
  C90      1.0000 0.66380  0.25900  0.58460  Biso   1.000  C
  H73      1.0000 0.36320  0.77420  0.44400  Biso   1.000  H
  H74      1.0000 0.63680  0.22580  0.55600  Biso   1.000  H
  C91      1.0000 0.24440  0.67480  0.43360  Biso   1.000  C
  C92      1.0000 0.75560  0.32520  0.56640  Biso   1.000  C
  H75      1.0000 0.20480  0.66880  0.47450  Biso   1.000  H
  H76      1.0000 0.79520  0.33120  0.52550  Biso   1.000  H
  C93      1.0000 0.96980  0.94820  0.41420  Biso   1.000  C
  C94      1.0000 0.03020  0.05180  0.58580  Biso   1.000  C
  H77      1.0000 0.01630  0.92340  0.45280  Biso   1.000  H
  H78      1.0000 0.98370  0.07660  0.54720  Biso   1.000  H
  C95      1.0000 0.84940  0.91100  0.40170  Biso   1.000  C
  C96      1.0000 0.15060  0.08900  0.59830  Biso   1.000  C
  H79      1.0000 0.81900  0.86040  0.43080  Biso   1.000  H
  H80      1.0000 0.18100  0.13960  0.56920  Biso   1.000  H
  C97      1.0000 0.77390  0.95200  0.34350  Biso   1.000  C
  C98      1.0000 0.22610  0.04800  0.65650  Biso   1.000  C
  C99      1.0000 0.82240  0.02610  0.30180  Biso   1.000  C
  C100     1.0000 0.17760  0.97390  0.69820  Biso   1.000  C
  H81      1.0000 0.77630  0.05380  0.26330  Biso   1.000  H
  H82      1.0000 0.22370  0.94620  0.73670  Biso   1.000  H
  C101     1.0000 0.94470  0.05950  0.31870  Biso   1.000  C
  C102     1.0000 0.05530  0.94050  0.68130  Biso   1.000  C
  H83      1.0000 0.97400  0.11250  0.29130  Biso   1.000  H
  H84      1.0000 0.02600  0.88750  0.70870  Biso   1.000  H
  C103     1.0000 0.46590  0.90520  0.27400  Biso   1.000  C
  C104     1.0000 0.53410  0.09480  0.72600  Biso   1.000  C
  C105     1.0000 0.47250  0.83240  0.32850  Biso   1.000  C
  C106     1.0000 0.52750  0.16760  0.67150  Biso   1.000  C
  C107     1.0000 0.64700  0.91940  0.32670  Biso   1.000  C
  C108     1.0000 0.35300  0.08060  0.67330  Biso   1.000  C
  C109     1.0000 0.34600  0.00960  0.45070  Biso   1.000  C
  C110     1.0000 0.65400  0.99040  0.54930  Biso   1.000  C
  C111     1.0000 0.32340  0.10380  0.40590  Biso   1.000  C
  C112     1.0000 0.67660  0.89620  0.59410  Biso   1.000  C
  H85      1.0000 0.41310  0.12840  0.40380  Biso   1.000  H
  H86      1.0000 0.58690  0.87160  0.59620  Biso   1.000  H
  H87      1.0000 0.23410  0.15500  0.41810  Biso   1.000  H
  H88      1.0000 0.76590  0.84500  0.58190  Biso   1.000  H
  H89      1.0000 0.30780  0.09130  0.36560  Biso   1.000  H
  H90      1.0000 0.69220  0.90870  0.63440  Biso   1.000  H
  Cu1      1.0000 0.04659  0.06277  0.03682  Biso   1.000  Cu
  Cu2      1.0000 0.95341  0.93723  0.96318  Biso   1.000  Cu
  Cu3      1.0000 0.06007  0.52794  0.42275  Biso   1.000  Cu
  Cu4      1.0000 0.93993  0.47206  0.57725  Biso   1.000  Cu
  I1       1.0000 0.20968  0.99336  0.93839  Biso   1.000  I
  I2       1.0000 0.79032  0.00664  0.06161  Biso   1.000  I
  I3       1.0000 0.82104  0.63699  0.48661  Biso   1.000  I
  I4       1.0000 0.17896  0.36301  0.51339  Biso   1.000  I
  N1       1.0000 0.18500  0.99350  0.11430  Biso   1.000  N
  N2       1.0000 0.81500  0.00650  0.88570  Biso   1.000  N
  N3       1.0000 0.20800  0.61880  0.39727  Biso   1.000  N
  N4       1.0000 0.79200  0.38120  0.60273  Biso   1.000  N
  N5       1.0000 0.02060  0.01820  0.37250  Biso   1.000  N
  N6       1.0000 0.97940  0.98180  0.62750  Biso   1.000  N
  N7       1.0000 0.57200  0.95770  0.27530  Biso   1.000  N
  N8       1.0000 0.42800  0.04230  0.72470  Biso   1.000  N
  N9       1.0000 0.59120  0.84210  0.36180  Biso   1.000  N
  N10      1.0000 0.40880  0.15790  0.63820  Biso   1.000  N
  H91      1.0000 0.62330  0.80620  0.39760  Biso   1.000  H
  H92      1.0000 0.37670  0.19380  0.60240  Biso   1.000  H
  N11      1.0000 0.37290  0.93430  0.48480  Biso   1.000  N
  N12      1.0000 0.62710  0.06570  0.51520  Biso   1.000  N
  P1       1.0000 0.00137  0.23500  0.01872  Biso   1.000  P
  P2       1.0000 0.99863  0.76500  0.98128  Biso   1.000  P
  P3       1.0000 0.96553  0.47152  0.35002  Biso   1.000  P
  P4       1.0000 0.03447  0.52848  0.64998  Biso   1.000  P
