data_image0
_cell_length_a       11.74
_cell_length_b       12.323
_cell_length_c       16.614
_cell_angle_alpha    90
_cell_angle_beta     95.926
_cell_angle_gamma    90

_symmetry_space_group_name_H-M    "P 1"
_symmetry_int_tables_number       1

loop_
  _symmetry_equiv_pos_as_xyz
  'x, y, z'

loop_
  _atom_site_label
  _atom_site_occupancy
  _atom_site_fract_x
  _atom_site_fract_y
  _atom_site_fract_z
  _atom_site_thermal_displace_type
  _atom_site_B_iso_or_equiv
  _atom_site_type_symbol
  Cu1      1.0000 0.05317  0.15582  0.18777  Biso   1.000  Cu
  Cu2      1.0000 0.44683  0.15582  0.31222  Biso   1.000  Cu
  Cu3      1.0000 0.94683  0.84418  0.81222  Biso   1.000  Cu
  Cu4      1.0000 0.55317  0.84418  0.68778  Biso   1.000  Cu
  Cu5      1.0000 0.25000  0.27796  0.25000  Biso   1.000  Cu
  Cu6      1.0000 0.75000  0.72204  0.75000  Biso   1.000  Cu
  Cu7      1.0000 0.25000  0.99642  0.25000  Biso   1.000  Cu
  Cu8      1.0000 0.75000  0.00358  0.75000  Biso   1.000  Cu
  S1       1.0000 0.07554  0.28777  0.28129  Biso   1.000  S
  S2       1.0000 0.42446  0.28777  0.21871  Biso   1.000  S
  S3       1.0000 0.92446  0.71223  0.71871  Biso   1.000  S
  S4       1.0000 0.57554  0.71223  0.78129  Biso   1.000  S
  S5       1.0000 0.06632  0.98194  0.23116  Biso   1.000  S
  S6       1.0000 0.43368  0.98194  0.26884  Biso   1.000  S
  S7       1.0000 0.93368  0.01806  0.76884  Biso   1.000  S
  S8       1.0000 0.56632  0.01806  0.73116  Biso   1.000  S
  P1       1.0000 0.99889  0.16694  0.05404  Biso   1.000  P
  P2       1.0000 0.50111  0.16694  0.44596  Biso   1.000  P
  P3       1.0000 0.00111  0.83306  0.94596  Biso   1.000  P
  P4       1.0000 0.49889  0.83306  0.55404  Biso   1.000  P
  C1       1.0000 0.02200  0.42480  0.24675  Biso   1.000  C
  C2       1.0000 0.47800  0.42480  0.25325  Biso   1.000  C
  C3       1.0000 0.97800  0.57520  0.75325  Biso   1.000  C
  C4       1.0000 0.52200  0.57520  0.74675  Biso   1.000  C
  C5       1.0000 0.05710  0.50490  0.31510  Biso   1.000  C
  C6       1.0000 0.44290  0.50490  0.18490  Biso   1.000  C
  C7       1.0000 0.94290  0.49510  0.68490  Biso   1.000  C
  C8       1.0000 0.55710  0.49510  0.81510  Biso   1.000  C
  H1       1.0000 0.03110  0.57630  0.29920  Biso   1.000  H
  H2       1.0000 0.46890  0.57630  0.20080  Biso   1.000  H
  H3       1.0000 0.96890  0.42370  0.70080  Biso   1.000  H
  H4       1.0000 0.53110  0.42370  0.79920  Biso   1.000  H
  H5       1.0000 0.13890  0.50520  0.32630  Biso   1.000  H
  H6       1.0000 0.36110  0.50520  0.17370  Biso   1.000  H
  H7       1.0000 0.86110  0.49480  0.67370  Biso   1.000  H
  H8       1.0000 0.63890  0.49480  0.82630  Biso   1.000  H
  H9       1.0000 0.02320  0.48350  0.36290  Biso   1.000  H
  H10      1.0000 0.47680  0.48350  0.13710  Biso   1.000  H
  H11      1.0000 0.97680  0.51650  0.63710  Biso   1.000  H
  H12      1.0000 0.52320  0.51650  0.86290  Biso   1.000  H
  C9       1.0000 0.89170  0.41840  0.23280  Biso   1.000  C
  C10      1.0000 0.60830  0.41840  0.26720  Biso   1.000  C
  C11      1.0000 0.10830  0.58160  0.76720  Biso   1.000  C
  C12      1.0000 0.39170  0.58160  0.73280  Biso   1.000  C
  H13      1.0000 0.86150  0.48760  0.21480  Biso   1.000  H
  H14      1.0000 0.63850  0.48760  0.28520  Biso   1.000  H
  H15      1.0000 0.13850  0.51240  0.78520  Biso   1.000  H
  H16      1.0000 0.36150  0.51240  0.71480  Biso   1.000  H
  H17      1.0000 0.86170  0.39900  0.28250  Biso   1.000  H
  H18      1.0000 0.63830  0.39900  0.21750  Biso   1.000  H
  H19      1.0000 0.13830  0.60100  0.71750  Biso   1.000  H
  H20      1.0000 0.36170  0.60100  0.78250  Biso   1.000  H
  H21      1.0000 0.86980  0.36450  0.19240  Biso   1.000  H
  H22      1.0000 0.63020  0.36450  0.30760  Biso   1.000  H
  H23      1.0000 0.13020  0.63550  0.80760  Biso   1.000  H
  H24      1.0000 0.36980  0.63550  0.69240  Biso   1.000  H
  C13      1.0000 0.07010  0.45980  0.17000  Biso   1.000  C
  C14      1.0000 0.42990  0.45980  0.33000  Biso   1.000  C
  C15      1.0000 0.92990  0.54020  0.83000  Biso   1.000  C
  C16      1.0000 0.57010  0.54020  0.67000  Biso   1.000  C
  H25      1.0000 0.04090  0.53020  0.15430  Biso   1.000  H
  H26      1.0000 0.45910  0.53020  0.34570  Biso   1.000  H
  H27      1.0000 0.95910  0.46980  0.84570  Biso   1.000  H
  H28      1.0000 0.54090  0.46980  0.65430  Biso   1.000  H
  H29      1.0000 0.04790  0.40860  0.12770  Biso   1.000  H
  H30      1.0000 0.45210  0.40860  0.37230  Biso   1.000  H
  H31      1.0000 0.95210  0.59140  0.87230  Biso   1.000  H
  H32      1.0000 0.54790  0.59140  0.62770  Biso   1.000  H
  H33      1.0000 0.15220  0.46270  0.17910  Biso   1.000  H
  H34      1.0000 0.34780  0.46270  0.32090  Biso   1.000  H
  H35      1.0000 0.84780  0.53730  0.82090  Biso   1.000  H
  H36      1.0000 0.65220  0.53730  0.67910  Biso   1.000  H
  C17      1.0000 0.02560  0.95880  0.33499  Biso   1.000  C
  C18      1.0000 0.47440  0.95880  0.16501  Biso   1.000  C
  C19      1.0000 0.97440  0.04120  0.66501  Biso   1.000  C
  C20      1.0000 0.52560  0.04120  0.83499  Biso   1.000  C
  C21      1.0000 0.04810  0.84040  0.35550  Biso   1.000  C
  C22      1.0000 0.45190  0.84040  0.14450  Biso   1.000  C
  C23      1.0000 0.95190  0.15960  0.64450  Biso   1.000  C
  C24      1.0000 0.54810  0.15960  0.85550  Biso   1.000  C
  H37      1.0000 0.02830  0.82600  0.40910  Biso   1.000  H
  H38      1.0000 0.47170  0.82600  0.09090  Biso   1.000  H
  H39      1.0000 0.97170  0.17400  0.59090  Biso   1.000  H
  H40      1.0000 0.52830  0.17400  0.90910  Biso   1.000  H
  H41      1.0000 0.12770  0.82470  0.35290  Biso   1.000  H
  H42      1.0000 0.37230  0.82470  0.14710  Biso   1.000  H
  H43      1.0000 0.87230  0.17530  0.64710  Biso   1.000  H
  H44      1.0000 0.62770  0.17530  0.85290  Biso   1.000  H
  H45      1.0000 0.00250  0.79560  0.31740  Biso   1.000  H
  H46      1.0000 0.49750  0.79560  0.18260  Biso   1.000  H
  H47      1.0000 0.99750  0.20440  0.68260  Biso   1.000  H
  H48      1.0000 0.50250  0.20440  0.81740  Biso   1.000  H
  C25      1.0000 0.09520  0.03080  0.39625  Biso   1.000  C
  C26      1.0000 0.40480  0.03080  0.10375  Biso   1.000  C
  C27      1.0000 0.90480  0.96920  0.60375  Biso   1.000  C
  C28      1.0000 0.59520  0.96920  0.89625  Biso   1.000  C
  H49      1.0000 0.07290  0.01720  0.44930  Biso   1.000  H
  H50      1.0000 0.42710  0.01720  0.05070  Biso   1.000  H
  H51      1.0000 0.92710  0.98280  0.55070  Biso   1.000  H
  H52      1.0000 0.57290  0.98280  0.94930  Biso   1.000  H
  H53      1.0000 0.08130  0.10570  0.38240  Biso   1.000  H
  H54      1.0000 0.41870  0.10570  0.11760  Biso   1.000  H
  H55      1.0000 0.91870  0.89430  0.61760  Biso   1.000  H
  H56      1.0000 0.58130  0.89430  0.88240  Biso   1.000  H
  H57      1.0000 0.17510  0.01510  0.39570  Biso   1.000  H
  H58      1.0000 0.32490  0.01510  0.10430  Biso   1.000  H
  H59      1.0000 0.82490  0.98490  0.60430  Biso   1.000  H
  H60      1.0000 0.67510  0.98490  0.89570  Biso   1.000  H
  C29      1.0000 0.89890  0.98400  0.33250  Biso   1.000  C
  C30      1.0000 0.60110  0.98400  0.16750  Biso   1.000  C
  C31      1.0000 0.10110  0.01600  0.66750  Biso   1.000  C
  C32      1.0000 0.39890  0.01600  0.83250  Biso   1.000  C
  H61      1.0000 0.87430  0.97320  0.38530  Biso   1.000  H
  H62      1.0000 0.62570  0.97320  0.11470  Biso   1.000  H
  H63      1.0000 0.12570  0.02680  0.61470  Biso   1.000  H
  H64      1.0000 0.37430  0.02680  0.88530  Biso   1.000  H
  H65      1.0000 0.85660  0.93670  0.29440  Biso   1.000  H
  H66      1.0000 0.64340  0.93670  0.20560  Biso   1.000  H
  H67      1.0000 0.14340  0.06330  0.70560  Biso   1.000  H
  H68      1.0000 0.35660  0.06330  0.79440  Biso   1.000  H
  H69      1.0000 0.88560  0.05810  0.31630  Biso   1.000  H
  H70      1.0000 0.61440  0.05810  0.18370  Biso   1.000  H
  H71      1.0000 0.11440  0.94190  0.68370  Biso   1.000  H
  H72      1.0000 0.38560  0.94190  0.81630  Biso   1.000  H
  C33      1.0000 0.10130  0.22223  0.98964  Biso   1.000  C
  C34      1.0000 0.39870  0.22223  0.51036  Biso   1.000  C
  C35      1.0000 0.89870  0.77777  0.01036  Biso   1.000  C
  C36      1.0000 0.60130  0.77777  0.48964  Biso   1.000  C
  C37      1.0000 0.20760  0.25410  0.02536  Biso   1.000  C
  C38      1.0000 0.29240  0.25410  0.47464  Biso   1.000  C
  C39      1.0000 0.79240  0.74590  0.97464  Biso   1.000  C
  C40      1.0000 0.70760  0.74590  0.52536  Biso   1.000  C
  H73      1.0000 0.22430  0.24830  0.08110  Biso   1.000  H
  H74      1.0000 0.27570  0.24830  0.41890  Biso   1.000  H
  H75      1.0000 0.77570  0.75170  0.91890  Biso   1.000  H
  H76      1.0000 0.72430  0.75170  0.58110  Biso   1.000  H
  C41      1.0000 0.28960  0.29460  0.97890  Biso   1.000  C
  C42      1.0000 0.21040  0.29460  0.52110  Biso   1.000  C
  C43      1.0000 0.71040  0.70540  0.02110  Biso   1.000  C
  C44      1.0000 0.78960  0.70540  0.47890  Biso   1.000  C
  H77      1.0000 0.36110  0.31520  0.00340  Biso   1.000  H
  H78      1.0000 0.13890  0.31520  0.49660  Biso   1.000  H
  H79      1.0000 0.63890  0.68480  0.99660  Biso   1.000  H
  H80      1.0000 0.86110  0.68480  0.50340  Biso   1.000  H
  C45      1.0000 0.26520  0.30420  0.89680  Biso   1.000  C
  C46      1.0000 0.23480  0.30420  0.60320  Biso   1.000  C
  C47      1.0000 0.73480  0.69580  0.10320  Biso   1.000  C
  C48      1.0000 0.76520  0.69580  0.39680  Biso   1.000  C
  H81      1.0000 0.31980  0.33240  0.86580  Biso   1.000  H
  H82      1.0000 0.18020  0.33240  0.63420  Biso   1.000  H
  H83      1.0000 0.68020  0.66760  0.13420  Biso   1.000  H
  H84      1.0000 0.81980  0.66760  0.36580  Biso   1.000  H
  C49      1.0000 0.16100  0.27260  0.86033  Biso   1.000  C
  C50      1.0000 0.33900  0.27260  0.63967  Biso   1.000  C
  C51      1.0000 0.83900  0.72740  0.13967  Biso   1.000  C
  C52      1.0000 0.66100  0.72740  0.36033  Biso   1.000  C
  H85      1.0000 0.14530  0.27860  0.80450  Biso   1.000  H
  H86      1.0000 0.35470  0.27860  0.69550  Biso   1.000  H
  H87      1.0000 0.85470  0.72140  0.19550  Biso   1.000  H
  H88      1.0000 0.64530  0.72140  0.30450  Biso   1.000  H
  C53      1.0000 0.07810  0.23140  0.90597  Biso   1.000  C
  C54      1.0000 0.42190  0.23140  0.59403  Biso   1.000  C
  C55      1.0000 0.92190  0.76860  0.09403  Biso   1.000  C
  C56      1.0000 0.57810  0.76860  0.40597  Biso   1.000  C
  H89      1.0000 0.00730  0.21010  0.88070  Biso   1.000  H
  H90      1.0000 0.49270  0.21010  0.61930  Biso   1.000  H
  H91      1.0000 0.99270  0.78990  0.11930  Biso   1.000  H
  H92      1.0000 0.50730  0.78990  0.38070  Biso   1.000  H
  C57      1.0000 0.87010  0.24980  0.03550  Biso   1.000  C
  C58      1.0000 0.62990  0.24980  0.46450  Biso   1.000  C
  C59      1.0000 0.12990  0.75020  0.96450  Biso   1.000  C
  C60      1.0000 0.37010  0.75020  0.53550  Biso   1.000  C
  C61      1.0000 0.86780  0.35040  0.99886  Biso   1.000  C
  C62      1.0000 0.63220  0.35040  0.50114  Biso   1.000  C
  C63      1.0000 0.13220  0.64960  0.00114  Biso   1.000  C
  C64      1.0000 0.36780  0.64960  0.49886  Biso   1.000  C
  H93      1.0000 0.93320  0.37650  0.97820  Biso   1.000  H
  H94      1.0000 0.56680  0.37650  0.52180  Biso   1.000  H
  H95      1.0000 0.06680  0.62350  0.02180  Biso   1.000  H
  H96      1.0000 0.43320  0.62350  0.47820  Biso   1.000  H
  C65      1.0000 0.76960  0.41290  0.99240  Biso   1.000  C
  C66      1.0000 0.73040  0.41290  0.50760  Biso   1.000  C
  C67      1.0000 0.23040  0.58710  0.00760  Biso   1.000  C
  C68      1.0000 0.26960  0.58710  0.49240  Biso   1.000  C
  H97      1.0000 0.76950  0.48040  0.96740  Biso   1.000  H
  H98      1.0000 0.73050  0.48040  0.53260  Biso   1.000  H
  H99      1.0000 0.23050  0.51960  0.03260  Biso   1.000  H
  H100     1.0000 0.26950  0.51960  0.46740  Biso   1.000  H
  C69      1.0000 0.67270  0.37630  0.02250  Biso   1.000  C
  C70      1.0000 0.82730  0.37630  0.47750  Biso   1.000  C
  C71      1.0000 0.32730  0.62370  0.97750  Biso   1.000  C
  C72      1.0000 0.17270  0.62370  0.52250  Biso   1.000  C
  H101     1.0000 0.60680  0.41870  0.01780  Biso   1.000  H
  H102     1.0000 0.89320  0.41870  0.48220  Biso   1.000  H
  H103     1.0000 0.39320  0.58130  0.98220  Biso   1.000  H
  H104     1.0000 0.10680  0.58130  0.51780  Biso   1.000  H
  C73      1.0000 0.67300  0.27720  0.05950  Biso   1.000  C
  C74      1.0000 0.82700  0.27720  0.44050  Biso   1.000  C
  C75      1.0000 0.32700  0.72280  0.94050  Biso   1.000  C
  C76      1.0000 0.17300  0.72280  0.55950  Biso   1.000  C
  H105     1.0000 0.60720  0.25210  0.08010  Biso   1.000  H
  H106     1.0000 0.89280  0.25210  0.41990  Biso   1.000  H
  H107     1.0000 0.39280  0.74790  0.91990  Biso   1.000  H
  H108     1.0000 0.10720  0.74790  0.58010  Biso   1.000  H
  C77      1.0000 0.77100  0.21420  0.06647  Biso   1.000  C
  C78      1.0000 0.72900  0.21420  0.43353  Biso   1.000  C
  C79      1.0000 0.22900  0.78580  0.93353  Biso   1.000  C
  C80      1.0000 0.27100  0.78580  0.56647  Biso   1.000  C
  H109     1.0000 0.77060  0.14710  0.09220  Biso   1.000  H
  H110     1.0000 0.72940  0.14710  0.40780  Biso   1.000  H
  H111     1.0000 0.22940  0.85290  0.90780  Biso   1.000  H
  H112     1.0000 0.27060  0.85290  0.59220  Biso   1.000  H
  C81      1.0000 0.95140  0.04020  0.00155  Biso   1.000  C
  C82      1.0000 0.54860  0.04020  0.49845  Biso   1.000  C
  C83      1.0000 0.04860  0.95980  0.99845  Biso   1.000  C
  C84      1.0000 0.45140  0.95980  0.50155  Biso   1.000  C
  H113     1.0000 0.89140  0.00730  0.02930  Biso   1.000  H
  H114     1.0000 0.60860  0.00730  0.47070  Biso   1.000  H
  H115     1.0000 0.10860  0.99270  0.97070  Biso   1.000  H
  H116     1.0000 0.39140  0.99270  0.52930  Biso   1.000  H
  H117     1.0000 0.91950  0.05730  0.94680  Biso   1.000  H
  H118     1.0000 0.58050  0.05730  0.55320  Biso   1.000  H
  H119     1.0000 0.08050  0.94270  0.05320  Biso   1.000  H
  H120     1.0000 0.41950  0.94270  0.44680  Biso   1.000  H
