data_image0
_cell_length_a       12.045
_cell_length_b       20.078
_cell_length_c       21.708
_cell_angle_alpha    90
_cell_angle_beta     104.947
_cell_angle_gamma    90

_symmetry_space_group_name_H-M    "P 1"
_symmetry_int_tables_number       1

loop_
  _symmetry_equiv_pos_as_xyz
  'x, y, z'

loop_
  _atom_site_label
  _atom_site_occupancy
  _atom_site_fract_x
  _atom_site_fract_y
  _atom_site_fract_z
  _atom_site_thermal_displace_type
  _atom_site_B_iso_or_equiv
  _atom_site_type_symbol
  Cu1      1.0000 0.01330  0.22348  0.48841  Biso   1.000  Cu
  Cu2      1.0000 0.98670  0.72348  0.01159  Biso   1.000  Cu
  Cu3      1.0000 0.98670  0.77652  0.51159  Biso   1.000  Cu
  Cu4      1.0000 0.01330  0.27652  0.98841  Biso   1.000  Cu
  Cu5      1.0000 0.21166  0.16430  0.45053  Biso   1.000  Cu
  Cu6      1.0000 0.78834  0.66430  0.04947  Biso   1.000  Cu
  Cu7      1.0000 0.78834  0.83570  0.54947  Biso   1.000  Cu
  Cu8      1.0000 0.21166  0.33570  0.95053  Biso   1.000  Cu
  Cu9      1.0000 0.42596  0.21106  0.50213  Biso   1.000  Cu
  Cu10     1.0000 0.57404  0.71106  0.99787  Biso   1.000  Cu
  Cu11     1.0000 0.57404  0.78894  0.49787  Biso   1.000  Cu
  Cu12     1.0000 0.42596  0.28894  0.00213  Biso   1.000  Cu
  Cu13     1.0000 0.30859  0.30668  0.41794  Biso   1.000  Cu
  Cu14     1.0000 0.69141  0.80668  0.08206  Biso   1.000  Cu
  Cu15     1.0000 0.69141  0.69332  0.58206  Biso   1.000  Cu
  Cu16     1.0000 0.30859  0.19332  0.91794  Biso   1.000  Cu
  Cu17     1.0000 0.27729  0.28415  0.55488  Biso   1.000  Cu
  Cu18     1.0000 0.72271  0.78415  0.94512  Biso   1.000  Cu
  Cu19     1.0000 0.72271  0.71585  0.44512  Biso   1.000  Cu
  Cu20     1.0000 0.27729  0.21585  0.05488  Biso   1.000  Cu
  Cu21     1.0000 0.16354  0.40331  0.49142  Biso   1.000  Cu
  Cu22     1.0000 0.83646  0.90331  0.00858  Biso   1.000  Cu
  Cu23     1.0000 0.83646  0.59669  0.50858  Biso   1.000  Cu
  Cu24     1.0000 0.16354  0.09669  0.99142  Biso   1.000  Cu
  S1       1.0000 0.04642  0.19982  0.39539  Biso   1.000  S
  S2       1.0000 0.95358  0.69982  0.10461  Biso   1.000  S
  S3       1.0000 0.95358  0.80018  0.60461  Biso   1.000  S
  S4       1.0000 0.04642  0.30018  0.89539  Biso   1.000  S
  S5       1.0000 0.36208  0.10470  0.49306  Biso   1.000  S
  S6       1.0000 0.63792  0.60470  0.00694  Biso   1.000  S
  S7       1.0000 0.63792  0.89530  0.50694  Biso   1.000  S
  S8       1.0000 0.36208  0.39530  0.99306  Biso   1.000  S
  S9       1.0000 0.47540  0.26338  0.42193  Biso   1.000  S
  S10      1.0000 0.52460  0.76338  0.07807  Biso   1.000  S
  S11      1.0000 0.52460  0.73662  0.57807  Biso   1.000  S
  S12      1.0000 0.47540  0.23662  0.92193  Biso   1.000  S
  S13      1.0000 0.45448  0.25747  0.59903  Biso   1.000  S
  S14      1.0000 0.54552  0.75747  0.90097  Biso   1.000  S
  S15      1.0000 0.54552  0.74253  0.40097  Biso   1.000  S
  S16      1.0000 0.45448  0.24253  0.09903  Biso   1.000  S
  S17      1.0000 0.15684  0.36817  0.39349  Biso   1.000  S
  S18      1.0000 0.84316  0.86817  0.10651  Biso   1.000  S
  S19      1.0000 0.84316  0.63183  0.60651  Biso   1.000  S
  S20      1.0000 0.15684  0.13183  0.89349  Biso   1.000  S
  S21      1.0000 0.09971  0.31495  0.53958  Biso   1.000  S
  S22      1.0000 0.90029  0.81495  0.96042  Biso   1.000  S
  S23      1.0000 0.90029  0.68505  0.46042  Biso   1.000  S
  S24      1.0000 0.09971  0.18505  0.03958  Biso   1.000  S
  N1       1.0000 0.79760  0.99330  0.97110  Biso   1.000  N
  N2       1.0000 0.20240  0.49330  0.52890  Biso   1.000  N
  N3       1.0000 0.20240  0.00670  0.02890  Biso   1.000  N
  N4       1.0000 0.79760  0.50670  0.47110  Biso   1.000  N
  N5       1.0000 0.79710  0.08950  0.92270  Biso   1.000  N
  N6       1.0000 0.20290  0.58950  0.57730  Biso   1.000  N
  N7       1.0000 0.20290  0.91050  0.07730  Biso   1.000  N
  N8       1.0000 0.79710  0.41050  0.42270  Biso   1.000  N
  N9       1.0000 0.80610  0.11530  0.57810  Biso   1.000  N
  N10      1.0000 0.19390  0.61530  0.92190  Biso   1.000  N
  N11      1.0000 0.19390  0.88470  0.42190  Biso   1.000  N
  N12      1.0000 0.80610  0.38470  0.07810  Biso   1.000  N
  N13      1.0000 0.89510  0.17930  0.52478  Biso   1.000  N
  N14      1.0000 0.10490  0.67930  0.97522  Biso   1.000  N
  N15      1.0000 0.10490  0.82070  0.47522  Biso   1.000  N
  N16      1.0000 0.89510  0.32070  0.02478  Biso   1.000  N
  C1       1.0000 0.97300  0.12200  0.36130  Biso   1.000  C
  C2       1.0000 0.02700  0.62200  0.13870  Biso   1.000  C
  C3       1.0000 0.02700  0.87800  0.63870  Biso   1.000  C
  C4       1.0000 0.97300  0.37800  0.86130  Biso   1.000  C
  C5       1.0000 0.84650  0.13920  0.33360  Biso   1.000  C
  C6       1.0000 0.15350  0.63920  0.16640  Biso   1.000  C
  C7       1.0000 0.15350  0.86080  0.66640  Biso   1.000  C
  C8       1.0000 0.84650  0.36080  0.83360  Biso   1.000  C
  H1       1.0000 0.80530  0.09990  0.31550  Biso   1.000  H
  H2       1.0000 0.19470  0.59990  0.18450  Biso   1.000  H
  H3       1.0000 0.19470  0.90010  0.68450  Biso   1.000  H
  H4       1.0000 0.80530  0.40010  0.81550  Biso   1.000  H
  H5       1.0000 0.83970  0.17240  0.30110  Biso   1.000  H
  H6       1.0000 0.16030  0.67240  0.19890  Biso   1.000  H
  H7       1.0000 0.16030  0.82760  0.69890  Biso   1.000  H
  H8       1.0000 0.83970  0.32760  0.80110  Biso   1.000  H
  H9       1.0000 0.81480  0.15600  0.36680  Biso   1.000  H
  H10      1.0000 0.18520  0.65600  0.13320  Biso   1.000  H
  H11      1.0000 0.18520  0.84400  0.63320  Biso   1.000  H
  H12      1.0000 0.81480  0.34400  0.86680  Biso   1.000  H
  C9       1.0000 0.03070  0.09880  0.31030  Biso   1.000  C
  C10      1.0000 0.96930  0.59880  0.18970  Biso   1.000  C
  C11      1.0000 0.96930  0.90120  0.68970  Biso   1.000  C
  C12      1.0000 0.03070  0.40120  0.81030  Biso   1.000  C
  H13      1.0000 0.99520  0.05840  0.29130  Biso   1.000  H
  H14      1.0000 0.00480  0.55840  0.20870  Biso   1.000  H
  H15      1.0000 0.00480  0.94160  0.70870  Biso   1.000  H
  H16      1.0000 0.99520  0.44160  0.79130  Biso   1.000  H
  H17      1.0000 0.11090  0.09100  0.32930  Biso   1.000  H
  H18      1.0000 0.88910  0.59100  0.17070  Biso   1.000  H
  H19      1.0000 0.88910  0.90900  0.67070  Biso   1.000  H
  H20      1.0000 0.11090  0.40900  0.82930  Biso   1.000  H
  H21      1.0000 0.02240  0.13250  0.27800  Biso   1.000  H
  H22      1.0000 0.97760  0.63250  0.22200  Biso   1.000  H
  H23      1.0000 0.97760  0.86750  0.72200  Biso   1.000  H
  H24      1.0000 0.02240  0.36750  0.77800  Biso   1.000  H
  C13      1.0000 0.98320  0.06760  0.41040  Biso   1.000  C
  C14      1.0000 0.01680  0.56760  0.08960  Biso   1.000  C
  C15      1.0000 0.01680  0.93240  0.58960  Biso   1.000  C
  C16      1.0000 0.98320  0.43240  0.91040  Biso   1.000  C
  H25      1.0000 0.94390  0.02860  0.39050  Biso   1.000  H
  H26      1.0000 0.05610  0.52860  0.10950  Biso   1.000  H
  H27      1.0000 0.05610  0.97140  0.60950  Biso   1.000  H
  H28      1.0000 0.94390  0.47140  0.89050  Biso   1.000  H
  H29      1.0000 0.94940  0.08240  0.44350  Biso   1.000  H
  H30      1.0000 0.05060  0.58240  0.05650  Biso   1.000  H
  H31      1.0000 0.05060  0.91760  0.55650  Biso   1.000  H
  H32      1.0000 0.94940  0.41760  0.94350  Biso   1.000  H
  H33      1.0000 0.06280  0.05740  0.42840  Biso   1.000  H
  H34      1.0000 0.93720  0.55740  0.07160  Biso   1.000  H
  H35      1.0000 0.93720  0.94260  0.57160  Biso   1.000  H
  H36      1.0000 0.06280  0.44260  0.92840  Biso   1.000  H
  C17      1.0000 0.34380  0.06650  0.56920  Biso   1.000  C
  C18      1.0000 0.65620  0.56650  0.93080  Biso   1.000  C
  C19      1.0000 0.65620  0.93350  0.43080  Biso   1.000  C
  C20      1.0000 0.34380  0.43350  0.06920  Biso   1.000  C
  C21      1.0000 0.26060  0.10510  0.59740  Biso   1.000  C
  C22      1.0000 0.73940  0.60510  0.90260  Biso   1.000  C
  C23      1.0000 0.73940  0.89490  0.40260  Biso   1.000  C
  C24      1.0000 0.26060  0.39490  0.09740  Biso   1.000  C
  H37      1.0000 0.25440  0.08380  0.63600  Biso   1.000  H
  H38      1.0000 0.74560  0.58380  0.86400  Biso   1.000  H
  H39      1.0000 0.74560  0.91620  0.36400  Biso   1.000  H
  H40      1.0000 0.25440  0.41620  0.13600  Biso   1.000  H
  H41      1.0000 0.18640  0.10610  0.56750  Biso   1.000  H
  H42      1.0000 0.81360  0.60610  0.93250  Biso   1.000  H
  H43      1.0000 0.81360  0.89390  0.43250  Biso   1.000  H
  H44      1.0000 0.18640  0.39390  0.06750  Biso   1.000  H
  H45      1.0000 0.28820  0.14970  0.60670  Biso   1.000  H
  H46      1.0000 0.71180  0.64970  0.89330  Biso   1.000  H
  H47      1.0000 0.71180  0.85030  0.39330  Biso   1.000  H
  H48      1.0000 0.28820  0.35030  0.10670  Biso   1.000  H
  C25      1.0000 0.29510  0.99580  0.55130  Biso   1.000  C
  C26      1.0000 0.70490  0.49580  0.94870  Biso   1.000  C
  C27      1.0000 0.70490  0.00420  0.44870  Biso   1.000  C
  C28      1.0000 0.29510  0.50420  0.05130  Biso   1.000  C
  H49      1.0000 0.28410  0.97390  0.58850  Biso   1.000  H
  H50      1.0000 0.71590  0.47390  0.91150  Biso   1.000  H
  H51      1.0000 0.71590  0.02610  0.41150  Biso   1.000  H
  H52      1.0000 0.28410  0.52610  0.08850  Biso   1.000  H
  H53      1.0000 0.34820  0.97060  0.53430  Biso   1.000  H
  H54      1.0000 0.65180  0.47060  0.96570  Biso   1.000  H
  H55      1.0000 0.65180  0.02940  0.46570  Biso   1.000  H
  H56      1.0000 0.34820  0.52940  0.03430  Biso   1.000  H
  H57      1.0000 0.22290  0.99900  0.51980  Biso   1.000  H
  H58      1.0000 0.77710  0.49900  0.98020  Biso   1.000  H
  H59      1.0000 0.77710  0.00100  0.48020  Biso   1.000  H
  H60      1.0000 0.22290  0.50100  0.01980  Biso   1.000  H
  C29      1.0000 0.46150  0.06160  0.61550  Biso   1.000  C
  C30      1.0000 0.53850  0.56160  0.88450  Biso   1.000  C
  C31      1.0000 0.53850  0.93840  0.38450  Biso   1.000  C
  C32      1.0000 0.46150  0.43840  0.11550  Biso   1.000  C
  H61      1.0000 0.45440  0.04230  0.65480  Biso   1.000  H
  H62      1.0000 0.54560  0.54230  0.84520  Biso   1.000  H
  H63      1.0000 0.54560  0.95770  0.34520  Biso   1.000  H
  H64      1.0000 0.45440  0.45770  0.15480  Biso   1.000  H
  H65      1.0000 0.49430  0.10530  0.62360  Biso   1.000  H
  H66      1.0000 0.50570  0.60530  0.87640  Biso   1.000  H
  H67      1.0000 0.50570  0.89470  0.37640  Biso   1.000  H
  H68      1.0000 0.49430  0.39470  0.12360  Biso   1.000  H
  H69      1.0000 0.51020  0.03410  0.59750  Biso   1.000  H
  H70      1.0000 0.48980  0.53410  0.90250  Biso   1.000  H
  H71      1.0000 0.48980  0.96590  0.40250  Biso   1.000  H
  H72      1.0000 0.51020  0.46590  0.09750  Biso   1.000  H
  C33      1.0000 0.45920  0.21500  0.34680  Biso   1.000  C
  C34      1.0000 0.54080  0.71500  0.15320  Biso   1.000  C
  C35      1.0000 0.54080  0.78500  0.65320  Biso   1.000  C
  C36      1.0000 0.45920  0.28500  0.84680  Biso   1.000  C
  C37      1.0000 0.47650  0.26380  0.29790  Biso   1.000  C
  C38      1.0000 0.52350  0.76380  0.20210  Biso   1.000  C
  C39      1.0000 0.52350  0.73620  0.70210  Biso   1.000  C
  C40      1.0000 0.47650  0.23620  0.79790  Biso   1.000  C
  H73      1.0000 0.46880  0.24130  0.25800  Biso   1.000  H
  H74      1.0000 0.53120  0.74130  0.24200  Biso   1.000  H
  H75      1.0000 0.53120  0.75870  0.74200  Biso   1.000  H
  H76      1.0000 0.46880  0.25870  0.75800  Biso   1.000  H
  H77      1.0000 0.55180  0.28290  0.31170  Biso   1.000  H
  H78      1.0000 0.44820  0.78290  0.18830  Biso   1.000  H
  H79      1.0000 0.44820  0.71710  0.68830  Biso   1.000  H
  H80      1.0000 0.55180  0.21710  0.81170  Biso   1.000  H
  H81      1.0000 0.41980  0.29840  0.29260  Biso   1.000  H
  H82      1.0000 0.58020  0.79840  0.20740  Biso   1.000  H
  H83      1.0000 0.58020  0.70160  0.70740  Biso   1.000  H
  H84      1.0000 0.41980  0.20160  0.79260  Biso   1.000  H
  C41      1.0000 0.55070  0.16490  0.35790  Biso   1.000  C
  C42      1.0000 0.44930  0.66490  0.14210  Biso   1.000  C
  C43      1.0000 0.44930  0.83510  0.64210  Biso   1.000  C
  C44      1.0000 0.55070  0.33510  0.85790  Biso   1.000  C
  H85      1.0000 0.54380  0.13910  0.31990  Biso   1.000  H
  H86      1.0000 0.45620  0.63910  0.18010  Biso   1.000  H
  H87      1.0000 0.45620  0.86090  0.68010  Biso   1.000  H
  H88      1.0000 0.54380  0.36090  0.81990  Biso   1.000  H
  H89      1.0000 0.54410  0.13600  0.39210  Biso   1.000  H
  H90      1.0000 0.45590  0.63600  0.10790  Biso   1.000  H
  H91      1.0000 0.45590  0.86400  0.60790  Biso   1.000  H
  H92      1.0000 0.54410  0.36400  0.89210  Biso   1.000  H
  H93      1.0000 0.62410  0.18670  0.36910  Biso   1.000  H
  H94      1.0000 0.37590  0.68670  0.13090  Biso   1.000  H
  H95      1.0000 0.37590  0.81330  0.63090  Biso   1.000  H
  H96      1.0000 0.62410  0.31330  0.86910  Biso   1.000  H
  C45      1.0000 0.34450  0.18490  0.32460  Biso   1.000  C
  C46      1.0000 0.65550  0.68490  0.17540  Biso   1.000  C
  C47      1.0000 0.65550  0.81510  0.67540  Biso   1.000  C
  C48      1.0000 0.34450  0.31510  0.82460  Biso   1.000  C
  H97      1.0000 0.33990  0.16070  0.28580  Biso   1.000  H
  H98      1.0000 0.66010  0.66070  0.21420  Biso   1.000  H
  H99      1.0000 0.66010  0.83930  0.71420  Biso   1.000  H
  H100     1.0000 0.33990  0.33930  0.78580  Biso   1.000  H
  H101     1.0000 0.28730  0.21930  0.31690  Biso   1.000  H
  H102     1.0000 0.71270  0.71930  0.18310  Biso   1.000  H
  H103     1.0000 0.71270  0.78070  0.68310  Biso   1.000  H
  H104     1.0000 0.28730  0.28070  0.81690  Biso   1.000  H
  H105     1.0000 0.33170  0.15500  0.35650  Biso   1.000  H
  H106     1.0000 0.66830  0.65500  0.14350  Biso   1.000  H
  H107     1.0000 0.66830  0.84500  0.64350  Biso   1.000  H
  H108     1.0000 0.33170  0.34500  0.85650  Biso   1.000  H
  C49      1.0000 0.53740  0.33600  0.61330  Biso   1.000  C
  C50      1.0000 0.46260  0.83600  0.88670  Biso   1.000  C
  C51      1.0000 0.46260  0.66400  0.38670  Biso   1.000  C
  C52      1.0000 0.53740  0.16400  0.11330  Biso   1.000  C
  C53      1.0000 0.49010  0.38010  0.65570  Biso   1.000  C
  C54      1.0000 0.50990  0.88010  0.84430  Biso   1.000  C
  C55      1.0000 0.50990  0.61990  0.34430  Biso   1.000  C
  C56      1.0000 0.49010  0.11990  0.15570  Biso   1.000  C
  H109     1.0000 0.53330  0.42080  0.66320  Biso   1.000  H
  H110     1.0000 0.46670  0.92080  0.83680  Biso   1.000  H
  H111     1.0000 0.46670  0.57920  0.33680  Biso   1.000  H
  H112     1.0000 0.53330  0.07920  0.16320  Biso   1.000  H
  H113     1.0000 0.49550  0.35800  0.69560  Biso   1.000  H
  H114     1.0000 0.50450  0.85800  0.80440  Biso   1.000  H
  H115     1.0000 0.50450  0.64200  0.30440  Biso   1.000  H
  H116     1.0000 0.49550  0.14200  0.19560  Biso   1.000  H
  H117     1.0000 0.41100  0.38990  0.63560  Biso   1.000  H
  H118     1.0000 0.58900  0.88990  0.86440  Biso   1.000  H
  H119     1.0000 0.58900  0.61010  0.36440  Biso   1.000  H
  H120     1.0000 0.41100  0.11010  0.13560  Biso   1.000  H
  C57      1.0000 0.65710  0.31480  0.65140  Biso   1.000  C
  C58      1.0000 0.34290  0.81480  0.84860  Biso   1.000  C
  C59      1.0000 0.34290  0.68520  0.34860  Biso   1.000  C
  C60      1.0000 0.65710  0.18520  0.15140  Biso   1.000  C
  H121     1.0000 0.70590  0.35330  0.66100  Biso   1.000  H
  H122     1.0000 0.29410  0.85330  0.83900  Biso   1.000  H
  H123     1.0000 0.29410  0.64670  0.33900  Biso   1.000  H
  H124     1.0000 0.70590  0.14670  0.16100  Biso   1.000  H
  H125     1.0000 0.68870  0.28380  0.62680  Biso   1.000  H
  H126     1.0000 0.31130  0.78380  0.87320  Biso   1.000  H
  H127     1.0000 0.31130  0.71620  0.37320  Biso   1.000  H
  H128     1.0000 0.68870  0.21620  0.12680  Biso   1.000  H
  H129     1.0000 0.65210  0.29400  0.69040  Biso   1.000  H
  H130     1.0000 0.34790  0.79400  0.80960  Biso   1.000  H
  H131     1.0000 0.34790  0.70600  0.30960  Biso   1.000  H
  H132     1.0000 0.65210  0.20600  0.19040  Biso   1.000  H
  C61      1.0000 0.54140  0.37030  0.55560  Biso   1.000  C
  C62      1.0000 0.45860  0.87030  0.94440  Biso   1.000  C
  C63      1.0000 0.45860  0.62970  0.44440  Biso   1.000  C
  C64      1.0000 0.54140  0.12970  0.05560  Biso   1.000  C
  H133     1.0000 0.58540  0.41050  0.56620  Biso   1.000  H
  H134     1.0000 0.41460  0.91050  0.93380  Biso   1.000  H
  H135     1.0000 0.41460  0.58950  0.43380  Biso   1.000  H
  H136     1.0000 0.58540  0.08950  0.06620  Biso   1.000  H
  H137     1.0000 0.46480  0.38120  0.53170  Biso   1.000  H
  H138     1.0000 0.53520  0.88120  0.96830  Biso   1.000  H
  H139     1.0000 0.53520  0.61880  0.46830  Biso   1.000  H
  H140     1.0000 0.46480  0.11880  0.03170  Biso   1.000  H
  H141     1.0000 0.57680  0.34210  0.53040  Biso   1.000  H
  H142     1.0000 0.42320  0.84210  0.96960  Biso   1.000  H
  H143     1.0000 0.42320  0.65790  0.46960  Biso   1.000  H
  H144     1.0000 0.57680  0.15790  0.03040  Biso   1.000  H
  C65      1.0000 0.19190  0.43380  0.34130  Biso   1.000  C
  C66      1.0000 0.80810  0.93380  0.15870  Biso   1.000  C
  C67      1.0000 0.80810  0.56620  0.65870  Biso   1.000  C
  C68      1.0000 0.19190  0.06620  0.84130  Biso   1.000  C
  C69      1.0000 0.11260  0.49190  0.34270  Biso   1.000  C
  C70      1.0000 0.88740  0.99190  0.15730  Biso   1.000  C
  C71      1.0000 0.88740  0.50810  0.65730  Biso   1.000  C
  C72      1.0000 0.11260  0.00810  0.84270  Biso   1.000  C
  H145     1.0000 0.12830  0.52710  0.31620  Biso   1.000  H
  H146     1.0000 0.87170  0.02710  0.18380  Biso   1.000  H
  H147     1.0000 0.87170  0.47290  0.68380  Biso   1.000  H
  H148     1.0000 0.12830  0.97290  0.81620  Biso   1.000  H
  H149     1.0000 0.12500  0.50770  0.38560  Biso   1.000  H
  H150     1.0000 0.87500  0.00770  0.11440  Biso   1.000  H
  H151     1.0000 0.87500  0.49230  0.61440  Biso   1.000  H
  H152     1.0000 0.12500  0.99230  0.88560  Biso   1.000  H
  H153     1.0000 0.03430  0.47780  0.32700  Biso   1.000  H
  H154     1.0000 0.96570  0.97780  0.17300  Biso   1.000  H
  H155     1.0000 0.96570  0.52220  0.67300  Biso   1.000  H
  H156     1.0000 0.03430  0.02220  0.82700  Biso   1.000  H
  C73      1.0000 0.31750  0.45470  0.36460  Biso   1.000  C
  C74      1.0000 0.68250  0.95470  0.13540  Biso   1.000  C
  C75      1.0000 0.68250  0.54530  0.63540  Biso   1.000  C
  C76      1.0000 0.31750  0.04530  0.86460  Biso   1.000  C
  H157     1.0000 0.33380  0.48860  0.33700  Biso   1.000  H
  H158     1.0000 0.66620  0.98860  0.16300  Biso   1.000  H
  H159     1.0000 0.66620  0.51140  0.66300  Biso   1.000  H
  H160     1.0000 0.33380  0.01140  0.83700  Biso   1.000  H
  H161     1.0000 0.36600  0.41690  0.36430  Biso   1.000  H
  H162     1.0000 0.63400  0.91690  0.13570  Biso   1.000  H
  H163     1.0000 0.63400  0.58310  0.63570  Biso   1.000  H
  H164     1.0000 0.36600  0.08310  0.86430  Biso   1.000  H
  H165     1.0000 0.33170  0.47190  0.40720  Biso   1.000  H
  H166     1.0000 0.66830  0.97190  0.09280  Biso   1.000  H
  H167     1.0000 0.66830  0.52810  0.59280  Biso   1.000  H
  H168     1.0000 0.33170  0.02810  0.90720  Biso   1.000  H
  C77      1.0000 0.16900  0.40590  0.27370  Biso   1.000  C
  C78      1.0000 0.83100  0.90590  0.22630  Biso   1.000  C
  C79      1.0000 0.83100  0.59410  0.72630  Biso   1.000  C
  C80      1.0000 0.16900  0.09410  0.77370  Biso   1.000  C
  H169     1.0000 0.18690  0.43910  0.24600  Biso   1.000  H
  H170     1.0000 0.81310  0.93910  0.25400  Biso   1.000  H
  H171     1.0000 0.81310  0.56090  0.75400  Biso   1.000  H
  H172     1.0000 0.18690  0.06090  0.74600  Biso   1.000  H
  H173     1.0000 0.08950  0.39370  0.25890  Biso   1.000  H
  H174     1.0000 0.91050  0.89370  0.24110  Biso   1.000  H
  H175     1.0000 0.91050  0.60630  0.74110  Biso   1.000  H
  H176     1.0000 0.08950  0.10630  0.75890  Biso   1.000  H
  H177     1.0000 0.21610  0.36730  0.27380  Biso   1.000  H
  H178     1.0000 0.78390  0.86730  0.22620  Biso   1.000  H
  H179     1.0000 0.78390  0.63270  0.72620  Biso   1.000  H
  H180     1.0000 0.21610  0.13270  0.77380  Biso   1.000  H
  C81      1.0000 0.07620  0.32640  0.62050  Biso   1.000  C
  C82      1.0000 0.92380  0.82640  0.87950  Biso   1.000  C
  C83      1.0000 0.92380  0.67360  0.37950  Biso   1.000  C
  C84      1.0000 0.07620  0.17360  0.12050  Biso   1.000  C
  C85      1.0000 0.11050  0.26290  0.65890  Biso   1.000  C
  C86      1.0000 0.88950  0.76290  0.84110  Biso   1.000  C
  C87      1.0000 0.88950  0.73710  0.34110  Biso   1.000  C
  C88      1.0000 0.11050  0.23710  0.15890  Biso   1.000  C
  H181     1.0000 0.09860  0.26850  0.70070  Biso   1.000  H
  H182     1.0000 0.90140  0.76850  0.79930  Biso   1.000  H
  H183     1.0000 0.90140  0.73150  0.29930  Biso   1.000  H
  H184     1.0000 0.09860  0.23150  0.20070  Biso   1.000  H
  H185     1.0000 0.19010  0.25350  0.66260  Biso   1.000  H
  H186     1.0000 0.80990  0.75350  0.83740  Biso   1.000  H
  H187     1.0000 0.80990  0.74650  0.33740  Biso   1.000  H
  H188     1.0000 0.19010  0.24650  0.16260  Biso   1.000  H
  H189     1.0000 0.06430  0.22650  0.63780  Biso   1.000  H
  H190     1.0000 0.93570  0.72650  0.86220  Biso   1.000  H
  H191     1.0000 0.93570  0.77350  0.36220  Biso   1.000  H
  H192     1.0000 0.06430  0.27350  0.13780  Biso   1.000  H
  C89      1.0000 0.94920  0.34050  0.61050  Biso   1.000  C
  C90      1.0000 0.05080  0.84050  0.88950  Biso   1.000  C
  C91      1.0000 0.05080  0.65950  0.38950  Biso   1.000  C
  C92      1.0000 0.94920  0.15950  0.11050  Biso   1.000  C
  H193     1.0000 0.93280  0.34690  0.65110  Biso   1.000  H
  H194     1.0000 0.06720  0.84690  0.84890  Biso   1.000  H
  H195     1.0000 0.06720  0.65310  0.34890  Biso   1.000  H
  H196     1.0000 0.93280  0.15310  0.15110  Biso   1.000  H
  H197     1.0000 0.90530  0.30360  0.58900  Biso   1.000  H
  H198     1.0000 0.09470  0.80360  0.91100  Biso   1.000  H
  H199     1.0000 0.09470  0.69640  0.41100  Biso   1.000  H
  H200     1.0000 0.90530  0.19640  0.08900  Biso   1.000  H
  H201     1.0000 0.92900  0.38000  0.58520  Biso   1.000  H
  H202     1.0000 0.07100  0.88000  0.91480  Biso   1.000  H
  H203     1.0000 0.07100  0.62000  0.41480  Biso   1.000  H
  H204     1.0000 0.92900  0.12000  0.08520  Biso   1.000  H
  C93      1.0000 0.14830  0.38350  0.65380  Biso   1.000  C
  C94      1.0000 0.85170  0.88350  0.84620  Biso   1.000  C
  C95      1.0000 0.85170  0.61650  0.34620  Biso   1.000  C
  C96      1.0000 0.14830  0.11650  0.15380  Biso   1.000  C
  H205     1.0000 0.13590  0.38930  0.69540  Biso   1.000  H
  H206     1.0000 0.86410  0.88930  0.80460  Biso   1.000  H
  H207     1.0000 0.86410  0.61070  0.30460  Biso   1.000  H
  H208     1.0000 0.13590  0.11070  0.19540  Biso   1.000  H
  H209     1.0000 0.12690  0.42350  0.62940  Biso   1.000  H
  H210     1.0000 0.87310  0.92350  0.87060  Biso   1.000  H
  H211     1.0000 0.87310  0.57650  0.37060  Biso   1.000  H
  H212     1.0000 0.12690  0.07650  0.12940  Biso   1.000  H
  H213     1.0000 0.22800  0.37410  0.65780  Biso   1.000  H
  H214     1.0000 0.77200  0.87410  0.84220  Biso   1.000  H
  H215     1.0000 0.77200  0.62590  0.34220  Biso   1.000  H
  H216     1.0000 0.22800  0.12590  0.15780  Biso   1.000  H
  C97      1.0000 0.85760  0.03490  0.94510  Biso   1.000  C
  C98      1.0000 0.14240  0.53490  0.55490  Biso   1.000  C
  C99      1.0000 0.14240  0.96510  0.05490  Biso   1.000  C
  C100     1.0000 0.85760  0.46510  0.44510  Biso   1.000  C
  H217     1.0000 0.93240  0.02710  0.94260  Biso   1.000  H
  H218     1.0000 0.06760  0.52710  0.55740  Biso   1.000  H
  H219     1.0000 0.06760  0.97290  0.05740  Biso   1.000  H
  H220     1.0000 0.93240  0.47290  0.44260  Biso   1.000  H
  C101     1.0000 0.69300  0.02370  0.96400  Biso   1.000  C
  C102     1.0000 0.30700  0.52370  0.53600  Biso   1.000  C
  C103     1.0000 0.30700  0.97630  0.03600  Biso   1.000  C
  C104     1.0000 0.69300  0.47630  0.46400  Biso   1.000  C
  H221     1.0000 0.63160  0.00640  0.97750  Biso   1.000  H
  H222     1.0000 0.36840  0.50640  0.52250  Biso   1.000  H
  H223     1.0000 0.36840  0.99360  0.02250  Biso   1.000  H
  H224     1.0000 0.63160  0.49360  0.47750  Biso   1.000  H
  C105     1.0000 0.69310  0.08280  0.93420  Biso   1.000  C
  C106     1.0000 0.30690  0.58280  0.56580  Biso   1.000  C
  C107     1.0000 0.30690  0.91720  0.06580  Biso   1.000  C
  C108     1.0000 0.69310  0.41720  0.43420  Biso   1.000  C
  H225     1.0000 0.63280  0.11310  0.92370  Biso   1.000  H
  H226     1.0000 0.36720  0.61310  0.57630  Biso   1.000  H
  H227     1.0000 0.36720  0.88690  0.07630  Biso   1.000  H
  H228     1.0000 0.63280  0.38690  0.42370  Biso   1.000  H
  C109     1.0000 0.83210  0.14100  0.88410  Biso   1.000  C
  C110     1.0000 0.16790  0.64100  0.61590  Biso   1.000  C
  C111     1.0000 0.16790  0.85900  0.11590  Biso   1.000  C
  C112     1.0000 0.83210  0.35900  0.38410  Biso   1.000  C
  H229     1.0000 0.91290  0.15080  0.90180  Biso   1.000  H
  H230     1.0000 0.08710  0.65080  0.59820  Biso   1.000  H
  H231     1.0000 0.08710  0.84920  0.09820  Biso   1.000  H
  H232     1.0000 0.91290  0.34920  0.40180  Biso   1.000  H
  H233     1.0000 0.78900  0.18130  0.88640  Biso   1.000  H
  H234     1.0000 0.21100  0.68130  0.61360  Biso   1.000  H
  H235     1.0000 0.21100  0.81870  0.11360  Biso   1.000  H
  H236     1.0000 0.78900  0.31870  0.38640  Biso   1.000  H
  C113     1.0000 0.81320  0.12130  0.81470  Biso   1.000  C
  C114     1.0000 0.18680  0.62130  0.68530  Biso   1.000  C
  C115     1.0000 0.18680  0.87870  0.18530  Biso   1.000  C
  C116     1.0000 0.81320  0.37870  0.31470  Biso   1.000  C
  C117     1.0000 0.85740  0.16190  0.77620  Biso   1.000  C
  C118     1.0000 0.14260  0.66190  0.72380  Biso   1.000  C
  C119     1.0000 0.14260  0.83810  0.22380  Biso   1.000  C
  C120     1.0000 0.85740  0.33810  0.27620  Biso   1.000  C
  H237     1.0000 0.89480  0.20100  0.79260  Biso   1.000  H
  H238     1.0000 0.10520  0.70100  0.70740  Biso   1.000  H
  H239     1.0000 0.10520  0.79900  0.20740  Biso   1.000  H
  H240     1.0000 0.89480  0.29900  0.29260  Biso   1.000  H
  C121     1.0000 0.84680  0.14490  0.71320  Biso   1.000  C
  C122     1.0000 0.15320  0.64490  0.78680  Biso   1.000  C
  C123     1.0000 0.15320  0.85510  0.28680  Biso   1.000  C
  C124     1.0000 0.84680  0.35510  0.21320  Biso   1.000  C
  H241     1.0000 0.87720  0.17310  0.68760  Biso   1.000  H
  H242     1.0000 0.12280  0.67310  0.81240  Biso   1.000  H
  H243     1.0000 0.12280  0.82690  0.31240  Biso   1.000  H
  H244     1.0000 0.87720  0.32690  0.18760  Biso   1.000  H
  C125     1.0000 0.79200  0.08710  0.68760  Biso   1.000  C
  C126     1.0000 0.20800  0.58710  0.81240  Biso   1.000  C
  C127     1.0000 0.20800  0.91290  0.31240  Biso   1.000  C
  C128     1.0000 0.79200  0.41290  0.18760  Biso   1.000  C
  C129     1.0000 0.74640  0.04700  0.72630  Biso   1.000  C
  C130     1.0000 0.25360  0.54700  0.77370  Biso   1.000  C
  C131     1.0000 0.25360  0.95300  0.27370  Biso   1.000  C
  C132     1.0000 0.74640  0.45300  0.22630  Biso   1.000  C
  H245     1.0000 0.70840  0.00800  0.71000  Biso   1.000  H
  H246     1.0000 0.29160  0.50800  0.79000  Biso   1.000  H
  H247     1.0000 0.29160  0.99200  0.29000  Biso   1.000  H
  H248     1.0000 0.70840  0.49200  0.21000  Biso   1.000  H
  C133     1.0000 0.75660  0.06420  0.78930  Biso   1.000  C
  C134     1.0000 0.24340  0.56420  0.71070  Biso   1.000  C
  C135     1.0000 0.24340  0.93580  0.21070  Biso   1.000  C
  C136     1.0000 0.75660  0.43580  0.28930  Biso   1.000  C
  H249     1.0000 0.72490  0.03670  0.81480  Biso   1.000  H
  H250     1.0000 0.27510  0.53670  0.68520  Biso   1.000  H
  H251     1.0000 0.27510  0.96330  0.18520  Biso   1.000  H
  H252     1.0000 0.72490  0.46330  0.31480  Biso   1.000  H
  C137     1.0000 0.78760  0.06340  0.62130  Biso   1.000  C
  C138     1.0000 0.21240  0.56340  0.87870  Biso   1.000  C
  C139     1.0000 0.21240  0.93660  0.37870  Biso   1.000  C
  C140     1.0000 0.78760  0.43660  0.12130  Biso   1.000  C
  H253     1.0000 0.84540  0.02910  0.62400  Biso   1.000  H
  H254     1.0000 0.15460  0.52910  0.87600  Biso   1.000  H
  H255     1.0000 0.15460  0.97090  0.37600  Biso   1.000  H
  H256     1.0000 0.84540  0.47090  0.12400  Biso   1.000  H
  H257     1.0000 0.71310  0.04320  0.60330  Biso   1.000  H
  H258     1.0000 0.28690  0.54320  0.89670  Biso   1.000  H
  H259     1.0000 0.28690  0.95680  0.39670  Biso   1.000  H
  H260     1.0000 0.71310  0.45680  0.10330  Biso   1.000  H
  C141     1.0000 0.90400  0.12900  0.56350  Biso   1.000  C
  C142     1.0000 0.09600  0.62900  0.93650  Biso   1.000  C
  C143     1.0000 0.09600  0.87100  0.43650  Biso   1.000  C
  C144     1.0000 0.90400  0.37100  0.06350  Biso   1.000  C
  H261     1.0000 0.97170  0.10530  0.57920  Biso   1.000  H
  H262     1.0000 0.02830  0.60530  0.92080  Biso   1.000  H
  H263     1.0000 0.02830  0.89470  0.42080  Biso   1.000  H
  H264     1.0000 0.97170  0.39470  0.07920  Biso   1.000  H
  C145     1.0000 0.72900  0.15960  0.54740  Biso   1.000  C
  C146     1.0000 0.27100  0.65960  0.95260  Biso   1.000  C
  C147     1.0000 0.27100  0.84040  0.45260  Biso   1.000  C
  C148     1.0000 0.72900  0.34040  0.04740  Biso   1.000  C
  H265     1.0000 0.65260  0.16270  0.54880  Biso   1.000  H
  H266     1.0000 0.34740  0.66270  0.95120  Biso   1.000  H
  H267     1.0000 0.34740  0.83730  0.45120  Biso   1.000  H
  H268     1.0000 0.65260  0.33730  0.04880  Biso   1.000  H
  C149     1.0000 0.78320  0.19920  0.51380  Biso   1.000  C
  C150     1.0000 0.21680  0.69920  0.98620  Biso   1.000  C
  C151     1.0000 0.21680  0.80080  0.48620  Biso   1.000  C
  C152     1.0000 0.78320  0.30080  0.01380  Biso   1.000  C
  H269     1.0000 0.74970  0.23430  0.48750  Biso   1.000  H
  H270     1.0000 0.25030  0.73430  0.01250  Biso   1.000  H
  H271     1.0000 0.25030  0.76570  0.51250  Biso   1.000  H
  H272     1.0000 0.74970  0.26570  0.98750  Biso   1.000  H
