data_image0
_cell_length_a       11.1129
_cell_length_b       21.52
_cell_length_c       12.8719
_cell_angle_alpha    90
_cell_angle_beta     98.46
_cell_angle_gamma    90

_symmetry_space_group_name_H-M    "P 1"
_symmetry_int_tables_number       1

loop_
  _symmetry_equiv_pos_as_xyz
  'x, y, z'

loop_
  _atom_site_label
  _atom_site_occupancy
  _atom_site_fract_x
  _atom_site_fract_y
  _atom_site_fract_z
  _atom_site_thermal_displace_type
  _atom_site_B_iso_or_equiv
  _atom_site_type_symbol
  Cl1      1.0000 0.54050  0.32010  0.48960  Biso   1.000  Cl
  Cl2      1.0000 0.95950  0.82010  0.01040  Biso   1.000  Cl
  Cl3      1.0000 0.45950  0.67990  0.51040  Biso   1.000  Cl
  Cl4      1.0000 0.04050  0.17990  0.98960  Biso   1.000  Cl
  Cl5      1.0000 0.44220  0.43410  0.39860  Biso   1.000  Cl
  Cl6      1.0000 0.05780  0.93410  0.10140  Biso   1.000  Cl
  Cl7      1.0000 0.55780  0.56590  0.60140  Biso   1.000  Cl
  Cl8      1.0000 0.94220  0.06590  0.89860  Biso   1.000  Cl
  C1       1.0000 0.57130  0.39570  0.44230  Biso   1.000  C
  C2       1.0000 0.92870  0.89570  0.05770  Biso   1.000  C
  C3       1.0000 0.42870  0.60430  0.55770  Biso   1.000  C
  C4       1.0000 0.07130  0.10430  0.94230  Biso   1.000  C
  H1       1.0000 0.61830  0.41930  0.49850  Biso   1.000  H
  H2       1.0000 0.88170  0.91930  0.00150  Biso   1.000  H
  H3       1.0000 0.38170  0.58070  0.50150  Biso   1.000  H
  H4       1.0000 0.11830  0.08070  0.99850  Biso   1.000  H
  H5       1.0000 0.61960  0.39180  0.38570  Biso   1.000  H
  H6       1.0000 0.88040  0.89180  0.11430  Biso   1.000  H
  H7       1.0000 0.38040  0.60820  0.61430  Biso   1.000  H
  H8       1.0000 0.11960  0.10820  0.88570  Biso   1.000  H
  P1       1.0000 0.64781  0.91899  0.60184  Biso   1.000  P
  P2       1.0000 0.85219  0.41899  0.89816  Biso   1.000  P
  P3       1.0000 0.35219  0.08101  0.39816  Biso   1.000  P
  P4       1.0000 0.14781  0.58101  0.10184  Biso   1.000  P
  Cu1      1.0000 0.68521  0.99888  0.50007  Biso   1.000  Cu
  Cu2      1.0000 0.81479  0.49888  0.99993  Biso   1.000  Cu
  Cu3      1.0000 0.31479  0.00112  0.49993  Biso   1.000  Cu
  Cu4      1.0000 0.18521  0.50112  0.00007  Biso   1.000  Cu
  P5       1.0000 0.63162  0.09603  0.45135  Biso   1.000  P
  P6       1.0000 0.86838  0.59603  0.04865  Biso   1.000  P
  P7       1.0000 0.36838  0.90397  0.54865  Biso   1.000  P
  P8       1.0000 0.13162  0.40397  0.95135  Biso   1.000  P
  C5       1.0000 0.66930  0.11790  0.32400  Biso   1.000  C
  C6       1.0000 0.83070  0.61790  0.17600  Biso   1.000  C
  C7       1.0000 0.33070  0.88210  0.67600  Biso   1.000  C
  C8       1.0000 0.16930  0.38210  0.82400  Biso   1.000  C
  C9       1.0000 0.77490  0.86450  0.62180  Biso   1.000  C
  C10      1.0000 0.72510  0.36450  0.87820  Biso   1.000  C
  C11      1.0000 0.22510  0.13550  0.37820  Biso   1.000  C
  C12      1.0000 0.27490  0.63550  0.12180  Biso   1.000  C
  C13      1.0000 0.62790  0.93410  0.73770  Biso   1.000  C
  C14      1.0000 0.87210  0.43410  0.76230  Biso   1.000  C
  C15      1.0000 0.37210  0.06590  0.26230  Biso   1.000  C
  C16      1.0000 0.12790  0.56590  0.23770  Biso   1.000  C
  C17      1.0000 0.72670  0.14480  0.54480  Biso   1.000  C
  C18      1.0000 0.77330  0.64480  0.95520  Biso   1.000  C
  C19      1.0000 0.27330  0.85520  0.45520  Biso   1.000  C
  C20      1.0000 0.22670  0.35520  0.04480  Biso   1.000  C
  C21      1.0000 0.84120  0.16220  0.52760  Biso   1.000  C
  C22      1.0000 0.65880  0.66220  0.97240  Biso   1.000  C
  C23      1.0000 0.15880  0.83780  0.47240  Biso   1.000  C
  C24      1.0000 0.34120  0.33780  0.02760  Biso   1.000  C
  H9       1.0000 0.86520  0.15380  0.46280  Biso   1.000  H
  H10      1.0000 0.63480  0.65380  0.03720  Biso   1.000  H
  H11      1.0000 0.13480  0.84620  0.53720  Biso   1.000  H
  H12      1.0000 0.36520  0.34620  0.96280  Biso   1.000  H
  C25      1.0000 0.69390  0.15760  0.64130  Biso   1.000  C
  C26      1.0000 0.80610  0.65760  0.85870  Biso   1.000  C
  C27      1.0000 0.30610  0.84240  0.35870  Biso   1.000  C
  C28      1.0000 0.19390  0.34240  0.14130  Biso   1.000  C
  H13      1.0000 0.61750  0.14570  0.65550  Biso   1.000  H
  H14      1.0000 0.88250  0.64570  0.84450  Biso   1.000  H
  H15      1.0000 0.38250  0.85430  0.34450  Biso   1.000  H
  H16      1.0000 0.11750  0.35430  0.15550  Biso   1.000  H
  C29      1.0000 0.67490  0.17920  0.29060  Biso   1.000  C
  C30      1.0000 0.82510  0.67920  0.20940  Biso   1.000  C
  C31      1.0000 0.32510  0.82080  0.70940  Biso   1.000  C
  C32      1.0000 0.17490  0.32080  0.79060  Biso   1.000  C
  H17      1.0000 0.65990  0.21130  0.33530  Biso   1.000  H
  H18      1.0000 0.84010  0.71130  0.16470  Biso   1.000  H
  H19      1.0000 0.34010  0.78870  0.66470  Biso   1.000  H
  H20      1.0000 0.15990  0.28870  0.83530  Biso   1.000  H
  C33      1.0000 0.70240  0.19280  0.19260  Biso   1.000  C
  C34      1.0000 0.79760  0.69280  0.30740  Biso   1.000  C
  C35      1.0000 0.29760  0.80720  0.80740  Biso   1.000  C
  C36      1.0000 0.20240  0.30720  0.69260  Biso   1.000  C
  H21      1.0000 0.70530  0.23400  0.17130  Biso   1.000  H
  H22      1.0000 0.79470  0.73400  0.32870  Biso   1.000  H
  H23      1.0000 0.29470  0.76600  0.82870  Biso   1.000  H
  H24      1.0000 0.20530  0.26600  0.67130  Biso   1.000  H
  C37      1.0000 0.62290  0.99400  0.77120  Biso   1.000  C
  C38      1.0000 0.87710  0.49400  0.72880  Biso   1.000  C
  C39      1.0000 0.37710  0.00600  0.22880  Biso   1.000  C
  C40      1.0000 0.12290  0.50600  0.27120  Biso   1.000  C
  H25      1.0000 0.62510  0.02660  0.72410  Biso   1.000  H
  H26      1.0000 0.87490  0.52660  0.77590  Biso   1.000  H
  H27      1.0000 0.37490  0.97340  0.27590  Biso   1.000  H
  H28      1.0000 0.12510  0.47340  0.22410  Biso   1.000  H
  C41      1.0000 0.69310  0.07120  0.25630  Biso   1.000  C
  C42      1.0000 0.80690  0.57120  0.24370  Biso   1.000  C
  C43      1.0000 0.30690  0.92880  0.74370  Biso   1.000  C
  C44      1.0000 0.19310  0.42880  0.75630  Biso   1.000  C
  H29      1.0000 0.69030  0.02980  0.27700  Biso   1.000  H
  H30      1.0000 0.80970  0.52980  0.22300  Biso   1.000  H
  H31      1.0000 0.30970  0.97020  0.72300  Biso   1.000  H
  H32      1.0000 0.19030  0.47020  0.77700  Biso   1.000  H
  C45      1.0000 0.87380  0.87940  0.69540  Biso   1.000  C
  C46      1.0000 0.62620  0.37940  0.80460  Biso   1.000  C
  C47      1.0000 0.12620  0.12060  0.30460  Biso   1.000  C
  C48      1.0000 0.37380  0.62060  0.19540  Biso   1.000  C
  H33      1.0000 0.87330  0.91630  0.73300  Biso   1.000  H
  H34      1.0000 0.62670  0.41630  0.76700  Biso   1.000  H
  H35      1.0000 0.12670  0.08370  0.26700  Biso   1.000  H
  H36      1.0000 0.37330  0.58370  0.23300  Biso   1.000  H
  C49      1.0000 0.97300  0.84070  0.71430  Biso   1.000  C
  C50      1.0000 0.52700  0.34070  0.78570  Biso   1.000  C
  C51      1.0000 0.02700  0.15930  0.28570  Biso   1.000  C
  C52      1.0000 0.47300  0.65930  0.21430  Biso   1.000  C
  H37      1.0000 0.03910  0.85150  0.76400  Biso   1.000  H
  H38      1.0000 0.46090  0.35150  0.73600  Biso   1.000  H
  H39      1.0000 0.96090  0.14850  0.23600  Biso   1.000  H
  H40      1.0000 0.53910  0.64850  0.26400  Biso   1.000  H
  C53      1.0000 0.72130  0.08560  0.15770  Biso   1.000  C
  C54      1.0000 0.77870  0.58560  0.34230  Biso   1.000  C
  C55      1.0000 0.27870  0.91440  0.84230  Biso   1.000  C
  C56      1.0000 0.22130  0.41440  0.65770  Biso   1.000  C
  H41      1.0000 0.73740  0.05390  0.11250  Biso   1.000  H
  H42      1.0000 0.76260  0.55390  0.38750  Biso   1.000  H
  H43      1.0000 0.26260  0.94610  0.88750  Biso   1.000  H
  H44      1.0000 0.23740  0.44610  0.61250  Biso   1.000  H
  C57      1.0000 0.87880  0.77140  0.58560  Biso   1.000  C
  C58      1.0000 0.62120  0.27140  0.91440  Biso   1.000  C
  C59      1.0000 0.12120  0.22860  0.41440  Biso   1.000  C
  C60      1.0000 0.37880  0.72860  0.08560  Biso   1.000  C
  H45      1.0000 0.88000  0.73460  0.54800  Biso   1.000  H
  H46      1.0000 0.62000  0.23460  0.95200  Biso   1.000  H
  H47      1.0000 0.12000  0.26540  0.45200  Biso   1.000  H
  H48      1.0000 0.38000  0.76540  0.04800  Biso   1.000  H
  C61      1.0000 0.77930  0.81060  0.56550  Biso   1.000  C
  C62      1.0000 0.72070  0.31060  0.93450  Biso   1.000  C
  C63      1.0000 0.22070  0.18940  0.43450  Biso   1.000  C
  C64      1.0000 0.27930  0.68940  0.06550  Biso   1.000  C
  H49      1.0000 0.71510  0.80040  0.51350  Biso   1.000  H
  H50      1.0000 0.78490  0.30040  0.98650  Biso   1.000  H
  H51      1.0000 0.28490  0.19960  0.48650  Biso   1.000  H
  H52      1.0000 0.21510  0.69960  0.01350  Biso   1.000  H
  C65      1.0000 0.97420  0.78610  0.65970  Biso   1.000  C
  C66      1.0000 0.52580  0.28610  0.84030  Biso   1.000  C
  C67      1.0000 0.02580  0.21390  0.34030  Biso   1.000  C
  C68      1.0000 0.47420  0.71390  0.15970  Biso   1.000  C
  H53      1.0000 0.04020  0.75920  0.67330  Biso   1.000  H
  H54      1.0000 0.45980  0.25920  0.82670  Biso   1.000  H
  H55      1.0000 0.95980  0.24080  0.32670  Biso   1.000  H
  H56      1.0000 0.54020  0.74080  0.17330  Biso   1.000  H
  C69      1.0000 0.72530  0.14640  0.12650  Biso   1.000  C
  C70      1.0000 0.77470  0.64640  0.37350  Biso   1.000  C
  C71      1.0000 0.27470  0.85360  0.87350  Biso   1.000  C
  C72      1.0000 0.22530  0.35360  0.62650  Biso   1.000  C
  H57      1.0000 0.74370  0.15590  0.06010  Biso   1.000  H
  H58      1.0000 0.75630  0.65590  0.43990  Biso   1.000  H
  H59      1.0000 0.25630  0.84410  0.93990  Biso   1.000  H
  H60      1.0000 0.24370  0.34410  0.56010  Biso   1.000  H
  C73      1.0000 0.88630  0.20520  0.69640  Biso   1.000  C
  C74      1.0000 0.61370  0.70520  0.80360  Biso   1.000  C
  C75      1.0000 0.11370  0.79480  0.30360  Biso   1.000  C
  C76      1.0000 0.38630  0.29480  0.19640  Biso   1.000  C
  H61      1.0000 0.93910  0.22640  0.74700  Biso   1.000  H
  H62      1.0000 0.56090  0.72640  0.75300  Biso   1.000  H
  H63      1.0000 0.06090  0.77360  0.25300  Biso   1.000  H
  H64      1.0000 0.43910  0.27360  0.24700  Biso   1.000  H
  C77      1.0000 0.61480  0.89830  0.90890  Biso   1.000  C
  C78      1.0000 0.88520  0.39830  0.59110  Biso   1.000  C
  C79      1.0000 0.38520  0.10170  0.09110  Biso   1.000  C
  C80      1.0000 0.11480  0.60170  0.40890  Biso   1.000  C
  H65      1.0000 0.61250  0.86520  0.95500  Biso   1.000  H
  H66      1.0000 0.88750  0.36520  0.54500  Biso   1.000  H
  H67      1.0000 0.38750  0.13480  0.04500  Biso   1.000  H
  H68      1.0000 0.11250  0.63480  0.45500  Biso   1.000  H
  C81      1.0000 0.62310  0.88640  0.80730  Biso   1.000  C
  C82      1.0000 0.87690  0.38640  0.69270  Biso   1.000  C
  C83      1.0000 0.37690  0.11360  0.19270  Biso   1.000  C
  C84      1.0000 0.12310  0.61360  0.30730  Biso   1.000  C
  H69      1.0000 0.62560  0.84550  0.78440  Biso   1.000  H
  H70      1.0000 0.87440  0.34550  0.71560  Biso   1.000  H
  H71      1.0000 0.37440  0.15450  0.21560  Biso   1.000  H
  H72      1.0000 0.12560  0.65450  0.28440  Biso   1.000  H
  C85      1.0000 0.92110  0.19170  0.60320  Biso   1.000  C
  C86      1.0000 0.57890  0.69170  0.89680  Biso   1.000  C
  C87      1.0000 0.07890  0.80830  0.39680  Biso   1.000  C
  C88      1.0000 0.42110  0.30830  0.10320  Biso   1.000  C
  H73      1.0000 0.99860  0.20240  0.59010  Biso   1.000  H
  H74      1.0000 0.50140  0.70240  0.90990  Biso   1.000  H
  H75      1.0000 0.00140  0.79760  0.40990  Biso   1.000  H
  H76      1.0000 0.49860  0.29760  0.09010  Biso   1.000  H
  C89      1.0000 0.60980  0.95710  0.94530  Biso   1.000  C
  C90      1.0000 0.89020  0.45710  0.55470  Biso   1.000  C
  C91      1.0000 0.39020  0.04290  0.05470  Biso   1.000  C
  C92      1.0000 0.10980  0.54290  0.44530  Biso   1.000  C
  H77      1.0000 0.60340  0.96460  0.01540  Biso   1.000  H
  H78      1.0000 0.89660  0.46460  0.48460  Biso   1.000  H
  H79      1.0000 0.39660  0.03540  0.98460  Biso   1.000  H
  H80      1.0000 0.10340  0.53540  0.51540  Biso   1.000  H
  C93      1.0000 0.77320  0.18790  0.71750  Biso   1.000  C
  C94      1.0000 0.72680  0.68790  0.78250  Biso   1.000  C
  C95      1.0000 0.22680  0.81210  0.28250  Biso   1.000  C
  C96      1.0000 0.27320  0.31210  0.21750  Biso   1.000  C
  H81      1.0000 0.75030  0.19650  0.78260  Biso   1.000  H
  H82      1.0000 0.74970  0.69650  0.71740  Biso   1.000  H
  H83      1.0000 0.24970  0.80350  0.21740  Biso   1.000  H
  H84      1.0000 0.25030  0.30350  0.28260  Biso   1.000  H
  C97      1.0000 0.61430  0.00610  0.87580  Biso   1.000  C
  C98      1.0000 0.88570  0.50610  0.62420  Biso   1.000  C
  C99      1.0000 0.38570  0.99390  0.12420  Biso   1.000  C
  C100     1.0000 0.11430  0.49390  0.37580  Biso   1.000  C
  H85      1.0000 0.61170  0.04690  0.89930  Biso   1.000  H
  H86      1.0000 0.88830  0.54690  0.60070  Biso   1.000  H
  H87      1.0000 0.38830  0.95310  0.10070  Biso   1.000  H
  H88      1.0000 0.11170  0.45310  0.39930  Biso   1.000  H
  N1       1.0000 0.12570  0.00150  0.50330  Biso   1.000  N
  N2       1.0000 0.37430  0.50150  0.99670  Biso   1.000  N
  N3       1.0000 0.87430  0.99850  0.49670  Biso   1.000  N
  N4       1.0000 0.62570  0.49850  0.00330  Biso   1.000  N
  C101     1.0000 0.52050  0.86940  0.54830  Biso   1.000  C
  C102     1.0000 0.97950  0.36940  0.95170  Biso   1.000  C
  C103     1.0000 0.47950  0.13060  0.45170  Biso   1.000  C
  C104     1.0000 0.02050  0.63060  0.04830  Biso   1.000  C
  H89      1.0000 0.52510  0.83110  0.58840  Biso   1.000  H
  H90      1.0000 0.97490  0.33110  0.91160  Biso   1.000  H
  H91      1.0000 0.47490  0.16890  0.41160  Biso   1.000  H
  H92      1.0000 0.02510  0.66890  0.08840  Biso   1.000  H
  H93      1.0000 0.52920  0.85880  0.47660  Biso   1.000  H
  H94      1.0000 0.97080  0.35880  0.02340  Biso   1.000  H
  H95      1.0000 0.47080  0.14120  0.52340  Biso   1.000  H
  H96      1.0000 0.02920  0.64120  0.97660  Biso   1.000  H
  C105     1.0000 0.07170  0.02360  0.57970  Biso   1.000  C
  C106     1.0000 0.42830  0.52360  0.92030  Biso   1.000  C
  C107     1.0000 0.92830  0.97640  0.42030  Biso   1.000  C
  C108     1.0000 0.57170  0.47640  0.07970  Biso   1.000  C
  H97      1.0000 0.11930  0.04120  0.63780  Biso   1.000  H
  H98      1.0000 0.38070  0.54120  0.86220  Biso   1.000  H
  H99      1.0000 0.88070  0.95880  0.36220  Biso   1.000  H
  H100     1.0000 0.61930  0.45880  0.13780  Biso   1.000  H
  C109     1.0000 0.94810  0.02170  0.57720  Biso   1.000  C
  C110     1.0000 0.55190  0.52170  0.92280  Biso   1.000  C
  C111     1.0000 0.05190  0.97830  0.42280  Biso   1.000  C
  C112     1.0000 0.44810  0.47830  0.07720  Biso   1.000  C
  H101     1.0000 0.08510  0.96260  0.36590  Biso   1.000  H
  H102     1.0000 0.41490  0.46260  0.13410  Biso   1.000  H
  H103     1.0000 0.91490  0.03740  0.63410  Biso   1.000  H
  H104     1.0000 0.58510  0.53740  0.86590  Biso   1.000  H
  Cl9      1.0000 0.66200  0.88015  0.26799  Biso   1.000  Cl
  Cl10     1.0000 0.83800  0.38015  0.23201  Biso   1.000  Cl
  Cl11     1.0000 0.33800  0.11985  0.73201  Biso   1.000  Cl
  Cl12     1.0000 0.16200  0.61985  0.76799  Biso   1.000  Cl
  O1       1.0000 0.61470  0.82340  0.31780  Biso   1.000  O
  O2       1.0000 0.88530  0.32340  0.18220  Biso   1.000  O
  O3       1.0000 0.38530  0.17660  0.68220  Biso   1.000  O
  O4       1.0000 0.11470  0.67660  0.81780  Biso   1.000  O
  O5       1.0000 0.78560  0.86340  0.28200  Biso   1.000  O
  O6       1.0000 0.71440  0.36340  0.21800  Biso   1.000  O
  O7       1.0000 0.21440  0.13660  0.71800  Biso   1.000  O
  O8       1.0000 0.28560  0.63660  0.78200  Biso   1.000  O
  O9       1.0000 0.59900  0.87810  0.16820  Biso   1.000  O
  O10      1.0000 0.90100  0.37810  0.33180  Biso   1.000  O
  O11      1.0000 0.40100  0.12190  0.83180  Biso   1.000  O
  O12      1.0000 0.09900  0.62190  0.66820  Biso   1.000  O
  O13      1.0000 0.63910  0.92410  0.34500  Biso   1.000  O
  O14      1.0000 0.86090  0.42410  0.15500  Biso   1.000  O
  O15      1.0000 0.36090  0.07590  0.65500  Biso   1.000  O
  O16      1.0000 0.13910  0.57590  0.84500  Biso   1.000  O
  O17      1.0000 0.28040  0.07660  0.80380  Biso   1.000  O
  O18      1.0000 0.21960  0.57660  0.69620  Biso   1.000  O
  O19      1.0000 0.71960  0.92340  0.19620  Biso   1.000  O
  O20      1.0000 0.78040  0.42340  0.30380  Biso   1.000  O
  O21      1.0000 0.45110  0.13310  0.79340  Biso   1.000  O
  O22      1.0000 0.04890  0.63310  0.70660  Biso   1.000  O
  O23      1.0000 0.54890  0.86690  0.20660  Biso   1.000  O
  O24      1.0000 0.95110  0.36690  0.29340  Biso   1.000  O
  O25      1.0000 0.25400  0.16630  0.70800  Biso   1.000  O
  O26      1.0000 0.24600  0.66630  0.79200  Biso   1.000  O
  O27      1.0000 0.74600  0.83370  0.29200  Biso   1.000  O
  O28      1.0000 0.75400  0.33370  0.20800  Biso   1.000  O
