data_image0
_cell_length_a       17.174
_cell_length_b       24.252
_cell_length_c       13.223
_cell_angle_alpha    92.9
_cell_angle_beta     95
_cell_angle_gamma    91.86

_symmetry_space_group_name_H-M    "P 1"
_symmetry_int_tables_number       1

loop_
  _symmetry_equiv_pos_as_xyz
  'x, y, z'

loop_
  _atom_site_label
  _atom_site_occupancy
  _atom_site_fract_x
  _atom_site_fract_y
  _atom_site_fract_z
  _atom_site_thermal_displace_type
  _atom_site_B_iso_or_equiv
  _atom_site_type_symbol
  Ru1      1.0000 0.73374  0.05763  0.35244  Biso   1.000  Ru
  Ru2      1.0000 0.26626  0.94237  0.64756  Biso   1.000  Ru
  Cu1      1.0000 0.76369  0.48555  0.46600  Biso   1.000  Cu
  Cu2      1.0000 0.23631  0.51445  0.53400  Biso   1.000  Cu
  C1       1.0000 0.57870  0.91180  0.58800  Biso   1.000  C
  C2       1.0000 0.42130  0.08820  0.41200  Biso   1.000  C
  C3       1.0000 0.57650  0.94240  0.49130  Biso   1.000  C
  C4       1.0000 0.42350  0.05760  0.50870  Biso   1.000  C
  C5       1.0000 0.64180  0.97540  0.47090  Biso   1.000  C
  C6       1.0000 0.35820  0.02460  0.52910  Biso   1.000  C
  N1       1.0000 0.64460  0.00440  0.38960  Biso   1.000  N
  N2       1.0000 0.35540  0.99560  0.61040  Biso   1.000  N
  C7       1.0000 0.58060  0.00300  0.31930  Biso   1.000  C
  C8       1.0000 0.41940  0.99700  0.68070  Biso   1.000  C
  C9       1.0000 0.51460  0.97010  0.33600  Biso   1.000  C
  C10      1.0000 0.48540  0.02990  0.66400  Biso   1.000  C
  C11      1.0000 0.51380  0.94070  0.42180  Biso   1.000  C
  C12      1.0000 0.48620  0.05930  0.57820  Biso   1.000  C
  C13      1.0000 0.58650  0.03790  0.23290  Biso   1.000  C
  C14      1.0000 0.41350  0.96210  0.76710  Biso   1.000  C
  N3       1.0000 0.65530  0.06740  0.23850  Biso   1.000  N
  N4       1.0000 0.34470  0.93260  0.76150  Biso   1.000  N
  C15      1.0000 0.67180  0.10230  0.16480  Biso   1.000  C
  C16      1.0000 0.32820  0.89770  0.83520  Biso   1.000  C
  C17      1.0000 0.61830  0.10830  0.08200  Biso   1.000  C
  C18      1.0000 0.38170  0.89170  0.91800  Biso   1.000  C
  C19      1.0000 0.54820  0.07910  0.07700  Biso   1.000  C
  C20      1.0000 0.45180  0.92090  0.92300  Biso   1.000  C
  C21      1.0000 0.53030  0.04350  0.15300  Biso   1.000  C
  C22      1.0000 0.46970  0.95650  0.84700  Biso   1.000  C
  C23      1.0000 0.75060  0.12760  0.18340  Biso   1.000  C
  C24      1.0000 0.24940  0.87240  0.81660  Biso   1.000  C
  N5       1.0000 0.79140  0.11360  0.27030  Biso   1.000  N
  N6       1.0000 0.20860  0.88640  0.72970  Biso   1.000  N
  C25      1.0000 0.86430  0.13560  0.29010  Biso   1.000  C
  C26      1.0000 0.13570  0.86440  0.70990  Biso   1.000  C
  C27      1.0000 0.90260  0.16880  0.22600  Biso   1.000  C
  C28      1.0000 0.09740  0.83120  0.77400  Biso   1.000  C
  C29      1.0000 0.85930  0.18150  0.13800  Biso   1.000  C
  C30      1.0000 0.14070  0.81850  0.86200  Biso   1.000  C
  C31      1.0000 0.78280  0.16130  0.11700  Biso   1.000  C
  C32      1.0000 0.21720  0.83870  0.88300  Biso   1.000  C
  C33      1.0000 0.98810  0.18580  0.25100  Biso   1.000  C
  C34      1.0000 0.01190  0.81420  0.74900  Biso   1.000  C
  C35      1.0000 0.01350  0.24310  0.21900  Biso   1.000  C
  C36      1.0000 0.98650  0.75690  0.78100  Biso   1.000  C
  C37      1.0000 0.98190  0.28890  0.28400  Biso   1.000  C
  C38      1.0000 0.01810  0.71110  0.71600  Biso   1.000  C
  O1       1.0000 0.99380  0.33920  0.23200  Biso   1.000  O
  O2       1.0000 0.00620  0.66080  0.76800  Biso   1.000  O
  C39      1.0000 0.97120  0.38750  0.27600  Biso   1.000  C
  C40      1.0000 0.02880  0.61250  0.72400  Biso   1.000  C
  C41      1.0000 0.95100  0.39420  0.37480  Biso   1.000  C
  C42      1.0000 0.04900  0.60580  0.62520  Biso   1.000  C
  C43      1.0000 0.93030  0.44520  0.41180  Biso   1.000  C
  C44      1.0000 0.06970  0.55480  0.58820  Biso   1.000  C
  C45      1.0000 0.93050  0.49070  0.35090  Biso   1.000  C
  C46      1.0000 0.06950  0.50930  0.64910  Biso   1.000  C
  C47      1.0000 0.95250  0.48420  0.25410  Biso   1.000  C
  C48      1.0000 0.04750  0.51580  0.74590  Biso   1.000  C
  C49      1.0000 0.97340  0.43360  0.21600  Biso   1.000  C
  C50      1.0000 0.02660  0.56640  0.78400  Biso   1.000  C
  C51      1.0000 0.90630  0.54520  0.38780  Biso   1.000  C
  C52      1.0000 0.09370  0.45480  0.61220  Biso   1.000  C
  C53      1.0000 0.94680  0.59480  0.36700  Biso   1.000  C
  C54      1.0000 0.05320  0.40520  0.63300  Biso   1.000  C
  C55      1.0000 0.92580  0.64400  0.40900  Biso   1.000  C
  C56      1.0000 0.07420  0.35600  0.59100  Biso   1.000  C
  C57      1.0000 0.86230  0.64710  0.46820  Biso   1.000  C
  C58      1.0000 0.13770  0.35290  0.53180  Biso   1.000  C
  C59      1.0000 0.81910  0.59640  0.47960  Biso   1.000  C
  C60      1.0000 0.18090  0.40360  0.52040  Biso   1.000  C
  N7       1.0000 0.84210  0.54700  0.44290  Biso   1.000  N
  N8       1.0000 0.15790  0.45300  0.55710  Biso   1.000  N
  C61      1.0000 0.83760  0.69610  0.51700  Biso   1.000  C
  C62      1.0000 0.16240  0.30390  0.48300  Biso   1.000  C
  C63      1.0000 0.77540  0.69600  0.57200  Biso   1.000  C
  C64      1.0000 0.22460  0.30400  0.42800  Biso   1.000  C
  C65      1.0000 0.73110  0.64700  0.58180  Biso   1.000  C
  C66      1.0000 0.26890  0.35300  0.41820  Biso   1.000  C
  C67      1.0000 0.66400  0.64500  0.63500  Biso   1.000  C
  C68      1.0000 0.33600  0.35500  0.36500  Biso   1.000  C
  C69      1.0000 0.62250  0.59660  0.63700  Biso   1.000  C
  C70      1.0000 0.37750  0.40340  0.36300  Biso   1.000  C
  C71      1.0000 0.64410  0.54800  0.58480  Biso   1.000  C
  C72      1.0000 0.35590  0.45200  0.41520  Biso   1.000  C
  N9       1.0000 0.70740  0.54870  0.53330  Biso   1.000  N
  N10      1.0000 0.29260  0.45130  0.46670  Biso   1.000  N
  C73      1.0000 0.75130  0.59750  0.53190  Biso   1.000  C
  C74      1.0000 0.24870  0.40250  0.46810  Biso   1.000  C
  C75      1.0000 0.59810  0.49640  0.58900  Biso   1.000  C
  C76      1.0000 0.40190  0.50360  0.41100  Biso   1.000  C
  C77      1.0000 0.59240  0.45550  0.51060  Biso   1.000  C
  C78      1.0000 0.40760  0.54450  0.48940  Biso   1.000  C
  C79      1.0000 0.55270  0.40550  0.51680  Biso   1.000  C
  C80      1.0000 0.44730  0.59450  0.48320  Biso   1.000  C
  C81      1.0000 0.51580  0.39570  0.60320  Biso   1.000  C
  C82      1.0000 0.48420  0.60430  0.39680  Biso   1.000  C
  C83      1.0000 0.51980  0.43590  0.68300  Biso   1.000  C
  C84      1.0000 0.48020  0.56410  0.31700  Biso   1.000  C
  C85      1.0000 0.55880  0.48480  0.67400  Biso   1.000  C
  C86      1.0000 0.44120  0.51520  0.32600  Biso   1.000  C
  O3       1.0000 0.47280  0.34980  0.61970  Biso   1.000  O
  O4       1.0000 0.52720  0.65020  0.38030  Biso   1.000  O
  C87      1.0000 0.47690  0.30190  0.55100  Biso   1.000  C
  C88      1.0000 0.52310  0.69810  0.44900  Biso   1.000  C
  C89      1.0000 0.55140  0.27210  0.57500  Biso   1.000  C
  C90      1.0000 0.44860  0.72790  0.42500  Biso   1.000  C
  C91      1.0000 0.54850  0.21670  0.51600  Biso   1.000  C
  C92      1.0000 0.45150  0.78330  0.48400  Biso   1.000  C
  C93      1.0000 0.61830  0.18090  0.53210  Biso   1.000  C
  C94      1.0000 0.38170  0.81910  0.46790  Biso   1.000  C
  C95      1.0000 0.65990  0.17780  0.62490  Biso   1.000  C
  C96      1.0000 0.34010  0.82220  0.37510  Biso   1.000  C
  C97      1.0000 0.72050  0.14160  0.63580  Biso   1.000  C
  C98      1.0000 0.27950  0.85840  0.36420  Biso   1.000  C
  C99      1.0000 0.74080  0.10990  0.55550  Biso   1.000  C
  C100     1.0000 0.25920  0.89010  0.44450  Biso   1.000  C
  N11      1.0000 0.69990  0.11410  0.46160  Biso   1.000  N
  N12      1.0000 0.30010  0.88590  0.53840  Biso   1.000  N
  C101     1.0000 0.64250  0.14960  0.45270  Biso   1.000  C
  C102     1.0000 0.35750  0.85040  0.54730  Biso   1.000  C
  C103     1.0000 0.80220  0.06990  0.55990  Biso   1.000  C
  C104     1.0000 0.19780  0.93010  0.44010  Biso   1.000  C
  C105     1.0000 0.84870  0.05570  0.64360  Biso   1.000  C
  C106     1.0000 0.15130  0.94430  0.35640  Biso   1.000  C
  C107     1.0000 0.90230  0.01420  0.63260  Biso   1.000  C
  C108     1.0000 0.09770  0.98580  0.36740  Biso   1.000  C
  C109     1.0000 0.90850  0.98750  0.54030  Biso   1.000  C
  C110     1.0000 0.09150  0.01250  0.45970  Biso   1.000  C
  C111     1.0000 0.86100  0.00280  0.45720  Biso   1.000  C
  C112     1.0000 0.13900  0.99720  0.54280  Biso   1.000  C
  N13      1.0000 0.80960  0.04380  0.46790  Biso   1.000  N
  N14      1.0000 0.19040  0.95620  0.53210  Biso   1.000  N
  C113     1.0000 0.85500  0.97720  0.35210  Biso   1.000  C
  C114     1.0000 0.14500  0.02280  0.64790  Biso   1.000  C
  C115     1.0000 0.90300  0.93630  0.32140  Biso   1.000  C
  C116     1.0000 0.09700  0.06370  0.67860  Biso   1.000  C
  C117     1.0000 0.89040  0.91360  0.22400  Biso   1.000  C
  C118     1.0000 0.10960  0.08640  0.77600  Biso   1.000  C
  C119     1.0000 0.83190  0.93140  0.15780  Biso   1.000  C
  C120     1.0000 0.16810  0.06860  0.84220  Biso   1.000  C
  C121     1.0000 0.78600  0.97250  0.19390  Biso   1.000  C
  C122     1.0000 0.21400  0.02750  0.80610  Biso   1.000  C
  N15      1.0000 0.79610  0.99600  0.28850  Biso   1.000  N
  N16      1.0000 0.20390  0.00400  0.71150  Biso   1.000  N
  C123     1.0000 0.81600  0.90740  0.05000  Biso   1.000  C
  C124     1.0000 0.18400  0.09260  0.95000  Biso   1.000  C
  C125     1.0000 0.78190  0.55600  0.82200  Biso   1.000  C
  C126     1.0000 0.21810  0.44400  0.17800  Biso   1.000  C
  C127     1.0000 0.73460  0.51050  0.84200  Biso   1.000  C
  C128     1.0000 0.26540  0.48950  0.15800  Biso   1.000  C
  C129     1.0000 0.73550  0.46100  0.78800  Biso   1.000  C
  C130     1.0000 0.26450  0.53900  0.21200  Biso   1.000  C
  C131     1.0000 0.78380  0.45550  0.70890  Biso   1.000  C
  C132     1.0000 0.21620  0.54450  0.29110  Biso   1.000  C
  C133     1.0000 0.83300  0.50020  0.69210  Biso   1.000  C
  C134     1.0000 0.16700  0.49980  0.30790  Biso   1.000  C
  C135     1.0000 0.83330  0.55020  0.74880  Biso   1.000  C
  C136     1.0000 0.16670  0.44980  0.25120  Biso   1.000  C
  C137     1.0000 0.77900  0.40610  0.63900  Biso   1.000  C
  C138     1.0000 0.22100  0.59390  0.36100  Biso   1.000  C
  C139     1.0000 0.78130  0.35300  0.67600  Biso   1.000  C
  C140     1.0000 0.21870  0.64700  0.32400  Biso   1.000  C
  C141     1.0000 0.78000  0.30940  0.61000  Biso   1.000  C
  C142     1.0000 0.22000  0.69060  0.39000  Biso   1.000  C
  C143     1.0000 0.77100  0.31470  0.50400  Biso   1.000  C
  C144     1.0000 0.22900  0.68530  0.49600  Biso   1.000  C
  C145     1.0000 0.76590  0.36980  0.47100  Biso   1.000  C
  C146     1.0000 0.23410  0.63020  0.52900  Biso   1.000  C
  N17      1.0000 0.77200  0.41370  0.53790  Biso   1.000  N
  N18      1.0000 0.22800  0.58630  0.46210  Biso   1.000  N
  C147     1.0000 0.76720  0.27110  0.42600  Biso   1.000  C
  C148     1.0000 0.23280  0.72890  0.57400  Biso   1.000  C
  C149     1.0000 0.75980  0.27980  0.32900  Biso   1.000  C
  C150     1.0000 0.24020  0.72020  0.67100  Biso   1.000  C
  C151     1.0000 0.75150  0.33490  0.29500  Biso   1.000  C
  C152     1.0000 0.24850  0.66510  0.70500  Biso   1.000  C
  C153     1.0000 0.75310  0.37900  0.36600  Biso   1.000  C
  C154     1.0000 0.24690  0.62100  0.63400  Biso   1.000  C
  N19      1.0000 0.74350  0.43250  0.34170  Biso   1.000  N
  N20      1.0000 0.25650  0.56750  0.65830  Biso   1.000  N
  C155     1.0000 0.73650  0.44390  0.24200  Biso   1.000  C
  C156     1.0000 0.26350  0.55610  0.75800  Biso   1.000  C
  C157     1.0000 0.73900  0.40110  0.16400  Biso   1.000  C
  C158     1.0000 0.26100  0.59890  0.83600  Biso   1.000  C
  C159     1.0000 0.74640  0.34820  0.19300  Biso   1.000  C
  C160     1.0000 0.25360  0.65180  0.80700  Biso   1.000  C
  C161     1.0000 0.72880  0.50340  0.22040  Biso   1.000  C
  C162     1.0000 0.27120  0.49660  0.77960  Biso   1.000  C
  C163     1.0000 0.68250  0.53620  0.27310  Biso   1.000  C
  C164     1.0000 0.31750  0.46380  0.72690  Biso   1.000  C
  C165     1.0000 0.67960  0.59180  0.26390  Biso   1.000  C
  C166     1.0000 0.32040  0.40820  0.73610  Biso   1.000  C
  C167     1.0000 0.72720  0.61640  0.19700  Biso   1.000  C
  C168     1.0000 0.27280  0.38360  0.80300  Biso   1.000  C
  C169     1.0000 0.77250  0.58410  0.14000  Biso   1.000  C
  C170     1.0000 0.22750  0.41590  0.86000  Biso   1.000  C
  C171     1.0000 0.77430  0.52750  0.15040  Biso   1.000  C
  C172     1.0000 0.22570  0.47250  0.84960  Biso   1.000  C
  O5       1.0000 0.73260  0.67220  0.18890  Biso   1.000  O
  O6       1.0000 0.26740  0.32780  0.81110  Biso   1.000  O
  C173     1.0000 0.69200  0.70730  0.25800  Biso   1.000  C
  C174     1.0000 0.30800  0.29270  0.74200  Biso   1.000  C
  C175     1.0000 0.72300  0.76360  0.26600  Biso   1.000  C
  C176     1.0000 0.27700  0.23640  0.73400  Biso   1.000  C
  O7       1.0000 0.67650  0.79340  0.33100  Biso   1.000  O
  O8       1.0000 0.32350  0.20660  0.66900  Biso   1.000  O
  C177     1.0000 0.71400  0.84740  0.36300  Biso   1.000  C
  C178     1.0000 0.28600  0.15260  0.63700  Biso   1.000  C
  C179     1.0000 0.76700  0.84800  0.44800  Biso   1.000  C
  C180     1.0000 0.23300  0.15200  0.55200  Biso   1.000  C
  O9       1.0000 0.74720  0.85460  0.53200  Biso   1.000  O
  O10      1.0000 0.25280  0.14540  0.46800  Biso   1.000  O
  C181     1.0000 0.80900  0.85860  0.61600  Biso   1.000  C
  C182     1.0000 0.19100  0.14140  0.38400  Biso   1.000  C
  C183     1.0000 0.77400  0.85850  0.71400  Biso   1.000  C
  C184     1.0000 0.22600  0.14150  0.28600  Biso   1.000  C
  O11      1.0000 0.73100  0.81310  0.71600  Biso   1.000  O
  O12      1.0000 0.26900  0.18690  0.28400  Biso   1.000  O
  C185     1.0000 0.67900  0.80500  0.80200  Biso   1.000  C
  C186     1.0000 0.32100  0.19500  0.19800  Biso   1.000  C
  C187     1.0000 0.72900  0.78500  0.87400  Biso   1.000  C
  C188     1.0000 0.27100  0.21500  0.12600  Biso   1.000  C
  O13      1.0000 0.74500  0.72630  0.84600  Biso   1.000  O
  O14      1.0000 0.25500  0.27370  0.15400  Biso   1.000  O
  C189     1.0000 0.79100  0.70140  0.90900  Biso   1.000  C
  C190     1.0000 0.20900  0.29860  0.09100  Biso   1.000  C
  C191     1.0000 0.82100  0.65040  0.86300  Biso   1.000  C
  C192     1.0000 0.17900  0.34960  0.13700  Biso   1.000  C
  O15      1.0000 0.77200  0.60490  0.87830  Biso   1.000  O
  O16      1.0000 0.22800  0.39510  0.12170  Biso   1.000  O
  H1       1.0000 0.53070  0.89160  0.59020  Biso   1.000  H
  H2       1.0000 0.46930  0.10840  0.40980  Biso   1.000  H
  H3       1.0000 0.62050  0.88700  0.58930  Biso   1.000  H
  H4       1.0000 0.37950  0.11300  0.41070  Biso   1.000  H
  H5       1.0000 0.58650  0.93740  0.64470  Biso   1.000  H
  H6       1.0000 0.41350  0.06260  0.35530  Biso   1.000  H
  H7       1.0000 0.68650  0.97680  0.51870  Biso   1.000  H
  H8       1.0000 0.31350  0.02320  0.48130  Biso   1.000  H
  H9       1.0000 0.47040  0.96810  0.28730  Biso   1.000  H
  H10      1.0000 0.52960  0.03190  0.71270  Biso   1.000  H
  H11      1.0000 0.46850  0.91890  0.43250  Biso   1.000  H
  H12      1.0000 0.53150  0.08110  0.56750  Biso   1.000  H
  H13      1.0000 0.62990  0.13200  0.02980  Biso   1.000  H
  H14      1.0000 0.37010  0.86800  0.97020  Biso   1.000  H
  H15      1.0000 0.51100  0.08290  0.02020  Biso   1.000  H
  H16      1.0000 0.48900  0.91710  0.97980  Biso   1.000  H
  H17      1.0000 0.48110  0.02410  0.15010  Biso   1.000  H
  H18      1.0000 0.51890  0.97590  0.84990  Biso   1.000  H
  H19      1.0000 0.75290  0.17080  0.05700  Biso   1.000  H
  H20      1.0000 0.24710  0.82920  0.94300  Biso   1.000  H
  H21      1.0000 0.88210  0.20430  0.09090  Biso   1.000  H
  H22      1.0000 0.11790  0.79570  0.90910  Biso   1.000  H
  H23      1.0000 0.89190  0.12790  0.35290  Biso   1.000  H
  H24      1.0000 0.10810  0.87210  0.64710  Biso   1.000  H
  H25      1.0000 0.01820  0.15950  0.21720  Biso   1.000  H
  H26      1.0000 0.98180  0.84050  0.78280  Biso   1.000  H
  H27      1.0000 0.99950  0.18480  0.32200  Biso   1.000  H
  H28      1.0000 0.00050  0.81520  0.67800  Biso   1.000  H
  H29      1.0000 0.99500  0.24690  0.15040  Biso   1.000  H
  H30      1.0000 0.00500  0.75310  0.84960  Biso   1.000  H
  H31      1.0000 0.06900  0.24630  0.22650  Biso   1.000  H
  H32      1.0000 0.93100  0.75370  0.77350  Biso   1.000  H
  H33      1.0000 0.00930  0.29170  0.34950  Biso   1.000  H
  H34      1.0000 0.99070  0.70830  0.65050  Biso   1.000  H
  H35      1.0000 0.92770  0.28210  0.28980  Biso   1.000  H
  H36      1.0000 0.07230  0.71790  0.71020  Biso   1.000  H
  H37      1.0000 0.95150  0.36370  0.41710  Biso   1.000  H
  H38      1.0000 0.04850  0.63630  0.58290  Biso   1.000  H
  H39      1.0000 0.91560  0.44950  0.47930  Biso   1.000  H
  H40      1.0000 0.08440  0.55050  0.52070  Biso   1.000  H
  H41      1.0000 0.95340  0.51520  0.21290  Biso   1.000  H
  H42      1.0000 0.04660  0.48480  0.78710  Biso   1.000  H
  H43      1.0000 0.98920  0.42970  0.14850  Biso   1.000  H
  H44      1.0000 0.01080  0.57030  0.85150  Biso   1.000  H
  H45      1.0000 0.98840  0.59360  0.32400  Biso   1.000  H
  H46      1.0000 0.01160  0.40640  0.67600  Biso   1.000  H
  H47      1.0000 0.95480  0.67680  0.39740  Biso   1.000  H
  H48      1.0000 0.04520  0.32320  0.60260  Biso   1.000  H
  H49      1.0000 0.86580  0.72990  0.51070  Biso   1.000  H
  H50      1.0000 0.13420  0.27010  0.48930  Biso   1.000  H
  H51      1.0000 0.76130  0.72950  0.60550  Biso   1.000  H
  H52      1.0000 0.23870  0.27050  0.39450  Biso   1.000  H
  H53      1.0000 0.64760  0.67740  0.66860  Biso   1.000  H
  H54      1.0000 0.35240  0.32260  0.33140  Biso   1.000  H
  H55      1.0000 0.57790  0.59530  0.67450  Biso   1.000  H
  H56      1.0000 0.42210  0.40470  0.32550  Biso   1.000  H
  H57      1.0000 0.61670  0.46240  0.45040  Biso   1.000  H
  H58      1.0000 0.38330  0.53760  0.54960  Biso   1.000  H
  H59      1.0000 0.55090  0.37820  0.46230  Biso   1.000  H
  H60      1.0000 0.44910  0.62180  0.53770  Biso   1.000  H
  H61      1.0000 0.49540  0.42910  0.74270  Biso   1.000  H
  H62      1.0000 0.50460  0.57090  0.25730  Biso   1.000  H
  H63      1.0000 0.55940  0.51230  0.72800  Biso   1.000  H
  H64      1.0000 0.44060  0.48770  0.27200  Biso   1.000  H
  H65      1.0000 0.47530  0.31330  0.48330  Biso   1.000  H
  H66      1.0000 0.52470  0.68670  0.51670  Biso   1.000  H
  H67      1.0000 0.43340  0.27750  0.55750  Biso   1.000  H
  H68      1.0000 0.56660  0.72250  0.44250  Biso   1.000  H
  H69      1.0000 0.55760  0.26640  0.64610  Biso   1.000  H
  H70      1.0000 0.44240  0.73360  0.35390  Biso   1.000  H
  H71      1.0000 0.59450  0.29390  0.55740  Biso   1.000  H
  H72      1.0000 0.40550  0.70610  0.44260  Biso   1.000  H
  H73      1.0000 0.54200  0.22370  0.44600  Biso   1.000  H
  H74      1.0000 0.45800  0.77630  0.55400  Biso   1.000  H
  H75      1.0000 0.50420  0.19620  0.53410  Biso   1.000  H
  H76      1.0000 0.49580  0.80380  0.46590  Biso   1.000  H
  H77      1.0000 0.64720  0.20040  0.68150  Biso   1.000  H
  H78      1.0000 0.35280  0.79960  0.31850  Biso   1.000  H
  H79      1.0000 0.74820  0.13900  0.70070  Biso   1.000  H
  H80      1.0000 0.25180  0.86100  0.29930  Biso   1.000  H
  H81      1.0000 0.61680  0.15350  0.38700  Biso   1.000  H
  H82      1.0000 0.38320  0.84650  0.61300  Biso   1.000  H
  H83      1.0000 0.84460  0.07390  0.70810  Biso   1.000  H
  H84      1.0000 0.15540  0.92610  0.29190  Biso   1.000  H
  H85      1.0000 0.93490  0.00430  0.69020  Biso   1.000  H
  H86      1.0000 0.06510  0.99570  0.30980  Biso   1.000  H
  H87      1.0000 0.94460  0.95900  0.53320  Biso   1.000  H
  H88      1.0000 0.05540  0.04100  0.46680  Biso   1.000  H
  H89      1.0000 0.94390  0.92390  0.36680  Biso   1.000  H
  H90      1.0000 0.05610  0.07610  0.63320  Biso   1.000  H
  H91      1.0000 0.92280  0.88520  0.20180  Biso   1.000  H
  H92      1.0000 0.07720  0.11480  0.79820  Biso   1.000  H
  H93      1.0000 0.74480  0.98490  0.14910  Biso   1.000  H
  H94      1.0000 0.25520  0.01510  0.85090  Biso   1.000  H
  H95      1.0000 0.85230  0.87980  0.03770  Biso   1.000  H
  H96      1.0000 0.14770  0.12020  0.96230  Biso   1.000  H
  H97      1.0000 0.76430  0.89130  0.04130  Biso   1.000  H
  H98      1.0000 0.23570  0.10870  0.95870  Biso   1.000  H
  H99      1.0000 0.82050  0.93580  0.00410  Biso   1.000  H
  H100     1.0000 0.17950  0.06420  0.99590  Biso   1.000  H
  H101     1.0000 0.70070  0.51400  0.89480  Biso   1.000  H
  H102     1.0000 0.29930  0.48600  0.10520  Biso   1.000  H
  H103     1.0000 0.70330  0.43060  0.80370  Biso   1.000  H
  H104     1.0000 0.29670  0.56940  0.19630  Biso   1.000  H
  H105     1.0000 0.86760  0.49640  0.64010  Biso   1.000  H
  H106     1.0000 0.13240  0.50360  0.35990  Biso   1.000  H
  H107     1.0000 0.86840  0.57980  0.73680  Biso   1.000  H
  H108     1.0000 0.13160  0.42020  0.26320  Biso   1.000  H
  H109     1.0000 0.78370  0.34810  0.74710  Biso   1.000  H
  H110     1.0000 0.21630  0.65190  0.25290  Biso   1.000  H
  H111     1.0000 0.78540  0.27360  0.63530  Biso   1.000  H
  H112     1.0000 0.21460  0.72640  0.36470  Biso   1.000  H
  H113     1.0000 0.77020  0.23410  0.44630  Biso   1.000  H
  H114     1.0000 0.22980  0.76590  0.55370  Biso   1.000  H
  H115     1.0000 0.76000  0.24950  0.28070  Biso   1.000  H
  H116     1.0000 0.24000  0.75050  0.71930  Biso   1.000  H
  H117     1.0000 0.73570  0.40930  0.09470  Biso   1.000  H
  H118     1.0000 0.26430  0.59070  0.90530  Biso   1.000  H
  H119     1.0000 0.74810  0.31930  0.14190  Biso   1.000  H
  H120     1.0000 0.25190  0.68070  0.85810  Biso   1.000  H
  H121     1.0000 0.65040  0.51960  0.31900  Biso   1.000  H
  H122     1.0000 0.34960  0.48040  0.68100  Biso   1.000  H
  H123     1.0000 0.64600  0.61340  0.30190  Biso   1.000  H
  H124     1.0000 0.35400  0.38660  0.69810  Biso   1.000  H
  H125     1.0000 0.80330  0.60070  0.09280  Biso   1.000  H
  H126     1.0000 0.19670  0.39930  0.90720  Biso   1.000  H
  H127     1.0000 0.80600  0.50550  0.11040  Biso   1.000  H
  H128     1.0000 0.19400  0.49450  0.88960  Biso   1.000  H
  H129     1.0000 0.69770  0.69280  0.32360  Biso   1.000  H
  H130     1.0000 0.30230  0.30720  0.67640  Biso   1.000  H
  H131     1.0000 0.63840  0.70700  0.23420  Biso   1.000  H
  H132     1.0000 0.36160  0.29300  0.76580  Biso   1.000  H
  H133     1.0000 0.71910  0.77860  0.20060  Biso   1.000  H
  H134     1.0000 0.28090  0.22140  0.79940  Biso   1.000  H
  H135     1.0000 0.77580  0.76510  0.29310  Biso   1.000  H
  H136     1.0000 0.22420  0.23490  0.70690  Biso   1.000  H
  H137     1.0000 0.67360  0.87200  0.37800  Biso   1.000  H
  H138     1.0000 0.32640  0.12800  0.62200  Biso   1.000  H
  H139     1.0000 0.73970  0.86030  0.30800  Biso   1.000  H
  H140     1.0000 0.26030  0.13970  0.69200  Biso   1.000  H
  H141     1.0000 0.80540  0.87610  0.44010  Biso   1.000  H
  H142     1.0000 0.19460  0.12390  0.55990  Biso   1.000  H
  H143     1.0000 0.79130  0.81280  0.44550  Biso   1.000  H
  H144     1.0000 0.20870  0.18720  0.55450  Biso   1.000  H
  H145     1.0000 0.83960  0.89190  0.61330  Biso   1.000  H
  H146     1.0000 0.16040  0.10810  0.38670  Biso   1.000  H
  H147     1.0000 0.84220  0.82800  0.61090  Biso   1.000  H
  H148     1.0000 0.15780  0.17200  0.38910  Biso   1.000  H
  H149     1.0000 0.74210  0.88960  0.72040  Biso   1.000  H
  H150     1.0000 0.25790  0.11040  0.27960  Biso   1.000  H
  H151     1.0000 0.81380  0.86000  0.76860  Biso   1.000  H
  H152     1.0000 0.18620  0.14000  0.23140  Biso   1.000  H
  H153     1.0000 0.63750  0.77890  0.78200  Biso   1.000  H
  H154     1.0000 0.36250  0.22110  0.21800  Biso   1.000  H
  H155     1.0000 0.65910  0.83860  0.82490  Biso   1.000  H
  H156     1.0000 0.34090  0.16140  0.17510  Biso   1.000  H
  H157     1.0000 0.70730  0.78710  0.93730  Biso   1.000  H
  H158     1.0000 0.29270  0.21290  0.06270  Biso   1.000  H
  H159     1.0000 0.77710  0.80640  0.87930  Biso   1.000  H
  H160     1.0000 0.22290  0.19360  0.12070  Biso   1.000  H
  H161     1.0000 0.76240  0.69190  0.96500  Biso   1.000  H
  H162     1.0000 0.23760  0.30810  0.03500  Biso   1.000  H
  H163     1.0000 0.83350  0.72580  0.93300  Biso   1.000  H
  H164     1.0000 0.16650  0.27420  0.06700  Biso   1.000  H
  H165     1.0000 0.87220  0.64470  0.89380  Biso   1.000  H
  H166     1.0000 0.12780  0.35530  0.10620  Biso   1.000  H
  H167     1.0000 0.82330  0.65420  0.79220  Biso   1.000  H
  H168     1.0000 0.17670  0.34580  0.20780  Biso   1.000  H
  P1       1.0000 0.70410  0.02260  0.85150  Biso   1.000  P
  P2       1.0000 0.29590  0.97740  0.14850  Biso   1.000  P
  F1       1.0000 0.72090  0.02240  0.97150  Biso   1.000  F
  F2       1.0000 0.27910  0.97760  0.02850  Biso   1.000  F
  F3       1.0000 0.62350  0.05240  0.86510  Biso   1.000  F
  F4       1.0000 0.37650  0.94760  0.13490  Biso   1.000  F
  F5       1.0000 0.74930  0.08110  0.85160  Biso   1.000  F
  F6       1.0000 0.25070  0.91890  0.14840  Biso   1.000  F
  F7       1.0000 0.78390  0.99240  0.83650  Biso   1.000  F
  F8       1.0000 0.21610  0.00760  0.16350  Biso   1.000  F
  F9       1.0000 0.65820  0.96440  0.84980  Biso   1.000  F
  F10      1.0000 0.34180  0.03560  0.15020  Biso   1.000  F
  F11      1.0000 0.68670  0.02320  0.73020  Biso   1.000  F
  F12      1.0000 0.31330  0.97680  0.26980  Biso   1.000  F
  P3       1.0000 0.96980  0.19450  0.58590  Biso   1.000  P
  P4       1.0000 0.03020  0.80550  0.41410  Biso   1.000  P
  F13      1.0000 0.96270  0.15800  0.68040  Biso   1.000  F
  F14      1.0000 0.03730  0.84200  0.31960  Biso   1.000  F
  F15      1.0000 0.95230  0.24850  0.65090  Biso   1.000  F
  F16      1.0000 0.04770  0.75150  0.34910  Biso   1.000  F
  F17      1.0000 0.05940  0.20440  0.61980  Biso   1.000  F
  F18      1.0000 0.94060  0.79560  0.38020  Biso   1.000  F
  F19      1.0000 0.98720  0.14000  0.52070  Biso   1.000  F
  F20      1.0000 0.01280  0.86000  0.47930  Biso   1.000  F
  F21      1.0000 0.88030  0.18380  0.55290  Biso   1.000  F
  F22      1.0000 0.11970  0.81620  0.44710  Biso   1.000  F
  F23      1.0000 0.97960  0.23080  0.49140  Biso   1.000  F
  F24      1.0000 0.02040  0.76920  0.50860  Biso   1.000  F
  P5       1.0000 0.31470  0.72980  0.08820  Biso   1.000  P
  P6       1.0000 0.68530  0.27020  0.91180  Biso   1.000  P
  F25      1.0000 0.26000  0.73630  0.18000  Biso   1.000  F
  F26      1.0000 0.74000  0.26370  0.82000  Biso   1.000  F
  F27      1.0000 0.38570  0.72160  0.16000  Biso   1.000  F
  F28      1.0000 0.61430  0.27840  0.84000  Biso   1.000  F
  F29      1.0000 0.32670  0.79610  0.10100  Biso   1.000  F
  F30      1.0000 0.67330  0.20390  0.89900  Biso   1.000  F
  F31      1.0000 0.23700  0.73830  0.01700  Biso   1.000  F
  F32      1.0000 0.76300  0.26170  0.98300  Biso   1.000  F
  F33      1.0000 0.29040  0.66580  0.07800  Biso   1.000  F
  F34      1.0000 0.70960  0.33420  0.92200  Biso   1.000  F
  F35      1.0000 0.36000  0.72950  0.99500  Biso   1.000  F
  F36      1.0000 0.64000  0.27050  0.00500  Biso   1.000  F
  N21      1.0000 0.38500  0.10800  0.87300  Biso   1.000  N
  N22      1.0000 0.61500  0.89200  0.12700  Biso   1.000  N
  C193     1.0000 0.43400  0.13900  0.84600  Biso   1.000  C
  C194     1.0000 0.56600  0.86100  0.15400  Biso   1.000  C
  C195     1.0000 0.49100  0.16700  0.80100  Biso   1.000  C
  C196     1.0000 0.50900  0.83300  0.19900  Biso   1.000  C
  N23      1.0000 0.02300  0.19200  0.96100  Biso   1.000  N
  N24      1.0000 0.97700  0.80800  0.03900  Biso   1.000  N
  C197     1.0000 0.04800  0.22800  0.91300  Biso   1.000  C
  C198     1.0000 0.95200  0.77200  0.08700  Biso   1.000  C
  C199     1.0000 0.07900  0.28000  0.85200  Biso   1.000  C
  C200     1.0000 0.92100  0.72000  0.14800  Biso   1.000  C
  O17      1.0000 0.45900  0.75200  0.78800  Biso   1.000  O
  O18      1.0000 0.54100  0.24800  0.21200  Biso   1.000  O
  C201     1.0000 0.46700  0.69600  0.73800  Biso   1.000  C
  C202     1.0000 0.53300  0.30400  0.26200  Biso   1.000  C
  O19      1.0000 0.98600  0.58300  0.06000  Biso   1.000  O
  O20      1.0000 0.01400  0.41700  0.94000  Biso   1.000  O
  C203     1.0000 0.08200  0.57700  0.05800  Biso   1.000  C
  C204     1.0000 0.91800  0.42300  0.94200  Biso   1.000  C
  O21      1.0000 0.92400  0.06640  0.97800  Biso   1.000  O
  O22      1.0000 0.07600  0.93360  0.02200  Biso   1.000  O
  O23      1.0000 0.03920  0.94900  0.90800  Biso   1.000  O
  O24      1.0000 0.96080  0.05100  0.09200  Biso   1.000  O
  C205     1.0000 0.01600  0.95790  0.83100  Biso   1.000  C
  C206     1.0000 0.98400  0.04210  0.16900  Biso   1.000  C
