data_image0
_cell_length_a       9.4944
_cell_length_b       12.9445
_cell_length_c       16.9514
_cell_angle_alpha    90
_cell_angle_beta     90.924
_cell_angle_gamma    90

_symmetry_space_group_name_H-M    "P 1"
_symmetry_int_tables_number       1

loop_
  _symmetry_equiv_pos_as_xyz
  'x, y, z'

loop_
  _atom_site_label
  _atom_site_occupancy
  _atom_site_fract_x
  _atom_site_fract_y
  _atom_site_fract_z
  _atom_site_thermal_displace_type
  _atom_site_B_iso_or_equiv
  _atom_site_type_symbol
  Cu1      1.0000 0.25159  0.24438  0.19109  Biso   1.000  Cu
  Cu2      1.0000 0.75159  0.25562  0.69109  Biso   1.000  Cu
  Cu3      1.0000 0.74841  0.75562  0.80891  Biso   1.000  Cu
  Cu4      1.0000 0.24841  0.74438  0.30891  Biso   1.000  Cu
  Cu5      1.0000 0.44587  0.20036  0.07333  Biso   1.000  Cu
  Cu6      1.0000 0.94587  0.29964  0.57333  Biso   1.000  Cu
  Cu7      1.0000 0.55413  0.79964  0.92667  Biso   1.000  Cu
  Cu8      1.0000 0.05413  0.70036  0.42667  Biso   1.000  Cu
  Br1      1.0000 0.25947  0.07340  0.11413  Biso   1.000  Br
  Br2      1.0000 0.75947  0.42660  0.61413  Biso   1.000  Br
  Br3      1.0000 0.74053  0.92660  0.88587  Biso   1.000  Br
  Br4      1.0000 0.24053  0.57340  0.38587  Biso   1.000  Br
  Br5      1.0000 0.43126  0.37660  0.14735  Biso   1.000  Br
  Br6      1.0000 0.93126  0.12340  0.64735  Biso   1.000  Br
  Br7      1.0000 0.56874  0.62340  0.85265  Biso   1.000  Br
  Br8      1.0000 0.06874  0.87660  0.35265  Biso   1.000  Br
  N1       1.0000 0.30350  0.21115  0.30249  Biso   1.000  N
  N2       1.0000 0.80350  0.28885  0.80249  Biso   1.000  N
  N3       1.0000 0.69650  0.78885  0.69751  Biso   1.000  N
  N4       1.0000 0.19650  0.71115  0.19751  Biso   1.000  N
  N5       1.0000 0.57420  0.18433  0.65353  Biso   1.000  N
  N6       1.0000 0.07420  0.31567  0.15353  Biso   1.000  N
  N7       1.0000 0.42580  0.81567  0.34647  Biso   1.000  N
  N8       1.0000 0.92580  0.68433  0.84647  Biso   1.000  N
  N9       1.0000 0.63070  0.14990  0.11836  Biso   1.000  N
  N10      1.0000 0.13070  0.35010  0.61836  Biso   1.000  N
  N11      1.0000 0.36930  0.85010  0.88164  Biso   1.000  N
  N12      1.0000 0.86930  0.64990  0.38164  Biso   1.000  N
  N13      1.0000 0.89990  0.25600  0.46283  Biso   1.000  N
  N14      1.0000 0.39990  0.24400  0.96283  Biso   1.000  N
  N15      1.0000 0.10010  0.74400  0.53717  Biso   1.000  N
  N16      1.0000 0.60010  0.75600  0.03717  Biso   1.000  N
  C1       1.0000 0.29020  0.11670  0.33367  Biso   1.000  C
  C2       1.0000 0.79020  0.38330  0.83367  Biso   1.000  C
  C3       1.0000 0.70980  0.88330  0.66633  Biso   1.000  C
  C4       1.0000 0.20980  0.61670  0.16633  Biso   1.000  C
  C5       1.0000 0.32490  0.09350  0.41133  Biso   1.000  C
  C6       1.0000 0.82490  0.40650  0.91133  Biso   1.000  C
  C7       1.0000 0.67510  0.90650  0.58867  Biso   1.000  C
  C8       1.0000 0.17510  0.59350  0.08867  Biso   1.000  C
  C9       1.0000 0.37660  0.17060  0.46085  Biso   1.000  C
  C10      1.0000 0.87660  0.32940  0.96085  Biso   1.000  C
  C11      1.0000 0.62340  0.82940  0.53915  Biso   1.000  C
  C12      1.0000 0.12340  0.67060  0.03915  Biso   1.000  C
  C13      1.0000 0.39050  0.26800  0.42865  Biso   1.000  C
  C14      1.0000 0.89050  0.23200  0.92865  Biso   1.000  C
  C15      1.0000 0.60950  0.73200  0.57135  Biso   1.000  C
  C16      1.0000 0.10950  0.76800  0.07135  Biso   1.000  C
  C17      1.0000 0.35320  0.28610  0.35097  Biso   1.000  C
  C18      1.0000 0.85320  0.21390  0.85097  Biso   1.000  C
  C19      1.0000 0.64680  0.71390  0.64903  Biso   1.000  C
  C20      1.0000 0.14680  0.78610  0.14903  Biso   1.000  C
  C21      1.0000 0.41590  0.14890  0.54403  Biso   1.000  C
  C22      1.0000 0.91590  0.35110  0.04403  Biso   1.000  C
  C23      1.0000 0.58410  0.85110  0.45597  Biso   1.000  C
  C24      1.0000 0.08410  0.64890  0.95597  Biso   1.000  C
  C25      1.0000 0.34280  0.08030  0.59060  Biso   1.000  C
  C26      1.0000 0.84280  0.41970  0.09060  Biso   1.000  C
  C27      1.0000 0.65720  0.91970  0.40940  Biso   1.000  C
  C28      1.0000 0.15720  0.58030  0.90940  Biso   1.000  C
  C29      1.0000 0.38730  0.06430  0.66740  Biso   1.000  C
  C30      1.0000 0.88730  0.43570  0.16740  Biso   1.000  C
  C31      1.0000 0.61270  0.93570  0.33260  Biso   1.000  C
  C32      1.0000 0.11270  0.56430  0.83260  Biso   1.000  C
  H1       1.0000 0.33940  0.01810  0.69930  Biso   1.000  H
  H2       1.0000 0.83940  0.48190  0.19930  Biso   1.000  H
  H3       1.0000 0.66060  0.98190  0.30070  Biso   1.000  H
  H4       1.0000 0.16060  0.51810  0.80070  Biso   1.000  H
  C33      1.0000 0.50230  0.11660  0.69666  Biso   1.000  C
  C34      1.0000 0.00230  0.38340  0.19666  Biso   1.000  C
  C35      1.0000 0.49770  0.88340  0.30334  Biso   1.000  C
  C36      1.0000 0.99770  0.61660  0.80334  Biso   1.000  C
  C37      1.0000 0.53010  0.19900  0.57865  Biso   1.000  C
  C38      1.0000 0.03010  0.30100  0.07865  Biso   1.000  C
  C39      1.0000 0.46990  0.80100  0.42135  Biso   1.000  C
  C40      1.0000 0.96990  0.69900  0.92135  Biso   1.000  C
  C41      1.0000 0.66990  0.17930  0.19181  Biso   1.000  C
  C42      1.0000 0.16990  0.32070  0.69181  Biso   1.000  C
  C43      1.0000 0.33010  0.82070  0.80819  Biso   1.000  C
  C44      1.0000 0.83010  0.67930  0.30819  Biso   1.000  C
  C45      1.0000 0.79610  0.15260  0.22799  Biso   1.000  C
  C46      1.0000 0.29610  0.34740  0.72799  Biso   1.000  C
  C47      1.0000 0.20390  0.84740  0.77201  Biso   1.000  C
  C48      1.0000 0.70390  0.65260  0.27201  Biso   1.000  C
  C49      1.0000 0.88780  0.09160  0.18543  Biso   1.000  C
  C50      1.0000 0.38780  0.40840  0.68543  Biso   1.000  C
  C51      1.0000 0.11220  0.90840  0.81457  Biso   1.000  C
  C52      1.0000 0.61220  0.59160  0.31457  Biso   1.000  C
  C53      1.0000 0.84820  0.06030  0.11031  Biso   1.000  C
  C54      1.0000 0.34820  0.43970  0.61031  Biso   1.000  C
  C55      1.0000 0.15180  0.93970  0.88969  Biso   1.000  C
  C56      1.0000 0.65180  0.56030  0.38969  Biso   1.000  C
  C57      1.0000 0.72080  0.09060  0.07924  Biso   1.000  C
  C58      1.0000 0.22080  0.40940  0.57924  Biso   1.000  C
  C59      1.0000 0.27920  0.90940  0.92076  Biso   1.000  C
  C60      1.0000 0.77920  0.59060  0.42076  Biso   1.000  C
  C61      1.0000 0.83080  0.18930  0.30898  Biso   1.000  C
  C62      1.0000 0.33080  0.31070  0.80898  Biso   1.000  C
  C63      1.0000 0.16920  0.81070  0.69102  Biso   1.000  C
  C64      1.0000 0.66920  0.68930  0.19102  Biso   1.000  C
  C65      1.0000 0.77350  0.27810  0.34026  Biso   1.000  C
  C66      1.0000 0.27350  0.22190  0.84026  Biso   1.000  C
  C67      1.0000 0.22650  0.72190  0.65974  Biso   1.000  C
  C68      1.0000 0.72650  0.77810  0.15974  Biso   1.000  C
  C69      1.0000 0.81020  0.30840  0.41605  Biso   1.000  C
  C70      1.0000 0.31020  0.19160  0.91605  Biso   1.000  C
  C71      1.0000 0.18980  0.69160  0.58395  Biso   1.000  C
  C72      1.0000 0.68980  0.80840  0.08395  Biso   1.000  C
  C73      1.0000 0.95220  0.16940  0.43297  Biso   1.000  C
  C74      1.0000 0.45220  0.33060  0.93297  Biso   1.000  C
  C75      1.0000 0.04780  0.83060  0.56703  Biso   1.000  C
  C76      1.0000 0.54780  0.66940  0.06703  Biso   1.000  C
  C77      1.0000 0.92150  0.13430  0.35763  Biso   1.000  C
  C78      1.0000 0.42150  0.36570  0.85763  Biso   1.000  C
  C79      1.0000 0.07850  0.86570  0.64237  Biso   1.000  C
  C80      1.0000 0.57850  0.63430  0.14237  Biso   1.000  C
  H5       1.0000 0.26300  0.06400  0.29900  Biso   1.000  H
  H6       1.0000 0.76300  0.43600  0.79900  Biso   1.000  H
  H7       1.0000 0.73700  0.93600  0.70100  Biso   1.000  H
  H8       1.0000 0.23700  0.56400  0.20100  Biso   1.000  H
  H9       1.0000 0.31600  0.02500  0.42700  Biso   1.000  H
  H10      1.0000 0.81600  0.47500  0.92700  Biso   1.000  H
  H11      1.0000 0.68400  0.97500  0.57300  Biso   1.000  H
  H12      1.0000 0.18400  0.52500  0.07300  Biso   1.000  H
  H13      1.0000 0.41900  0.33200  0.46000  Biso   1.000  H
  H14      1.0000 0.91900  0.16800  0.96000  Biso   1.000  H
  H15      1.0000 0.58100  0.66800  0.54000  Biso   1.000  H
  H16      1.0000 0.08100  0.83200  0.04000  Biso   1.000  H
  H17      1.0000 0.36400  0.35400  0.32500  Biso   1.000  H
  H18      1.0000 0.86400  0.14600  0.82500  Biso   1.000  H
  H19      1.0000 0.63600  0.64600  0.67500  Biso   1.000  H
  H20      1.0000 0.13600  0.85400  0.17500  Biso   1.000  H
  H21      1.0000 0.26700  0.04700  0.56800  Biso   1.000  H
  H22      1.0000 0.76700  0.45300  0.06800  Biso   1.000  H
  H23      1.0000 0.73300  0.95300  0.43200  Biso   1.000  H
  H24      1.0000 0.23300  0.54700  0.93200  Biso   1.000  H
  H25      1.0000 0.53800  0.11000  0.75100  Biso   1.000  H
  H26      1.0000 0.03800  0.39000  0.25100  Biso   1.000  H
  H27      1.0000 0.46200  0.89000  0.24900  Biso   1.000  H
  H28      1.0000 0.96200  0.61000  0.74900  Biso   1.000  H
  H29      1.0000 0.58500  0.24800  0.55000  Biso   1.000  H
  H30      1.0000 0.08500  0.25200  0.05000  Biso   1.000  H
  H31      1.0000 0.41500  0.75200  0.45000  Biso   1.000  H
  H32      1.0000 0.91500  0.74800  0.95000  Biso   1.000  H
  H33      1.0000 0.60200  0.22500  0.21910  Biso   1.000  H
  H34      1.0000 0.10200  0.27500  0.71910  Biso   1.000  H
  H35      1.0000 0.39800  0.77500  0.78090  Biso   1.000  H
  H36      1.0000 0.89800  0.72500  0.28090  Biso   1.000  H
  H37      1.0000 0.96500  0.07200  0.20600  Biso   1.000  H
  H38      1.0000 0.46500  0.42800  0.70600  Biso   1.000  H
  H39      1.0000 0.03500  0.92800  0.79400  Biso   1.000  H
  H40      1.0000 0.53500  0.57200  0.29400  Biso   1.000  H
  H41      1.0000 0.91300  0.01800  0.07900  Biso   1.000  H
  H42      1.0000 0.41300  0.48200  0.57900  Biso   1.000  H
  H43      1.0000 0.08700  0.98200  0.92100  Biso   1.000  H
  H44      1.0000 0.58700  0.51800  0.42100  Biso   1.000  H
  H45      1.0000 0.68900  0.07000  0.02950  Biso   1.000  H
  H46      1.0000 0.18900  0.43000  0.52950  Biso   1.000  H
  H47      1.0000 0.31100  0.93000  0.97050  Biso   1.000  H
  H48      1.0000 0.81100  0.57000  0.47050  Biso   1.000  H
  H49      1.0000 0.71200  0.32100  0.31000  Biso   1.000  H
  H50      1.0000 0.21200  0.17900  0.81000  Biso   1.000  H
  H51      1.0000 0.28800  0.67900  0.69000  Biso   1.000  H
  H52      1.0000 0.78800  0.82100  0.19000  Biso   1.000  H
  H53      1.0000 0.77100  0.37000  0.43730  Biso   1.000  H
  H54      1.0000 0.27100  0.13000  0.93730  Biso   1.000  H
  H55      1.0000 0.22900  0.63000  0.56270  Biso   1.000  H
  H56      1.0000 0.72900  0.87000  0.06270  Biso   1.000  H
  H57      1.0000 0.01200  0.13700  0.46700  Biso   1.000  H
  H58      1.0000 0.51200  0.36300  0.96700  Biso   1.000  H
  H59      1.0000 0.98800  0.86300  0.53300  Biso   1.000  H
  H60      1.0000 0.48800  0.63700  0.03300  Biso   1.000  H
  H61      1.0000 0.96000  0.07000  0.33800  Biso   1.000  H
  H62      1.0000 0.46000  0.43000  0.83800  Biso   1.000  H
  H63      1.0000 0.04000  0.93000  0.66200  Biso   1.000  H
  H64      1.0000 0.54000  0.57000  0.16200  Biso   1.000  H
