data_image0
_cell_length_a       5.904
_cell_length_b       11.593
_cell_length_c       9.038
_cell_angle_alpha    90
_cell_angle_beta     90
_cell_angle_gamma    90

_symmetry_space_group_name_H-M    "P 1"
_symmetry_int_tables_number       1

loop_
  _symmetry_equiv_pos_as_xyz
  'x, y, z'

loop_
  _atom_site_label
  _atom_site_occupancy
  _atom_site_fract_x
  _atom_site_fract_y
  _atom_site_fract_z
  _atom_site_thermal_displace_type
  _atom_site_B_iso_or_equiv
  _atom_site_type_symbol
  Cu1      1.0000 0.19250  0.25000  0.66435  Biso   1.000  Cu
  Cu2      1.0000 0.69250  0.25000  0.83565  Biso   1.000  Cu
  Cu3      1.0000 0.30750  0.75000  0.16435  Biso   1.000  Cu
  Cu4      1.0000 0.80750  0.75000  0.33565  Biso   1.000  Cu
  N1       1.0000 0.54490  0.25000  0.63220  Biso   1.000  N
  N2       1.0000 0.04490  0.25000  0.86780  Biso   1.000  N
  N3       1.0000 0.95510  0.75000  0.13220  Biso   1.000  N
  N4       1.0000 0.45510  0.75000  0.36780  Biso   1.000  N
  C1       1.0000 0.60370  0.25000  0.50970  Biso   1.000  C
  C2       1.0000 0.10370  0.25000  0.99030  Biso   1.000  C
  C3       1.0000 0.89630  0.75000  0.00970  Biso   1.000  C
  C4       1.0000 0.39630  0.75000  0.49030  Biso   1.000  C
  O1       1.0000 0.66160  0.25000  0.38370  Biso   1.000  O
  O2       1.0000 0.16160  0.25000  0.11630  Biso   1.000  O
  O3       1.0000 0.83840  0.75000  0.88370  Biso   1.000  O
  O4       1.0000 0.33840  0.75000  0.61630  Biso   1.000  O
  N5       1.0000 0.08050  0.39910  0.56510  Biso   1.000  N
  N6       1.0000 0.58050  0.39910  0.93490  Biso   1.000  N
  N7       1.0000 0.08050  0.10090  0.56510  Biso   1.000  N
  N8       1.0000 0.41950  0.89910  0.06510  Biso   1.000  N
  N9       1.0000 0.91950  0.60090  0.43490  Biso   1.000  N
  N10      1.0000 0.41950  0.60090  0.06510  Biso   1.000  N
  N11      1.0000 0.91950  0.89910  0.43490  Biso   1.000  N
  N12      1.0000 0.58050  0.10090  0.93490  Biso   1.000  N
  C5       1.0000 0.97050  0.47860  0.64200  Biso   1.000  C
  C6       1.0000 0.47050  0.47860  0.85800  Biso   1.000  C
  C7       1.0000 0.97050  0.02140  0.64200  Biso   1.000  C
  C8       1.0000 0.52950  0.97860  0.14200  Biso   1.000  C
  C9       1.0000 0.02950  0.52140  0.35800  Biso   1.000  C
  C10      1.0000 0.52950  0.52140  0.14200  Biso   1.000  C
  C11      1.0000 0.02950  0.97860  0.35800  Biso   1.000  C
  C12      1.0000 0.47050  0.02140  0.85800  Biso   1.000  C
  H1       1.0000 0.94710  0.46660  0.74260  Biso   1.000  H
  H2       1.0000 0.44710  0.46660  0.75740  Biso   1.000  H
  H3       1.0000 0.94710  0.03340  0.74260  Biso   1.000  H
  H4       1.0000 0.55290  0.96660  0.24260  Biso   1.000  H
  H5       1.0000 0.05290  0.53340  0.25740  Biso   1.000  H
  H6       1.0000 0.55290  0.53340  0.24260  Biso   1.000  H
  H7       1.0000 0.05290  0.96660  0.25740  Biso   1.000  H
  H8       1.0000 0.44710  0.03340  0.75740  Biso   1.000  H
  C13      1.0000 0.11030  0.42200  0.42140  Biso   1.000  C
  C14      1.0000 0.61030  0.42200  0.07860  Biso   1.000  C
  C15      1.0000 0.11030  0.07800  0.42140  Biso   1.000  C
  C16      1.0000 0.38970  0.92200  0.92140  Biso   1.000  C
  C17      1.0000 0.88970  0.57800  0.57860  Biso   1.000  C
  C18      1.0000 0.38970  0.57800  0.92140  Biso   1.000  C
  C19      1.0000 0.88970  0.92200  0.57860  Biso   1.000  C
  C20      1.0000 0.61030  0.07800  0.07860  Biso   1.000  C
  H9       1.0000 0.18770  0.36920  0.36290  Biso   1.000  H
  H10      1.0000 0.68770  0.36920  0.13710  Biso   1.000  H
  H11      1.0000 0.18770  0.13080  0.36290  Biso   1.000  H
  H12      1.0000 0.31230  0.86920  0.86290  Biso   1.000  H
  H13      1.0000 0.81230  0.63080  0.63710  Biso   1.000  H
  H14      1.0000 0.31230  0.63080  0.86290  Biso   1.000  H
  H15      1.0000 0.81230  0.86920  0.63710  Biso   1.000  H
  H16      1.0000 0.68770  0.13080  0.13710  Biso   1.000  H
