data_image0
_cell_length_a       11.4972
_cell_length_b       22.8702
_cell_length_c       11.4218
_cell_angle_alpha    90
_cell_angle_beta     111.243
_cell_angle_gamma    90

_symmetry_space_group_name_H-M    "P 1"
_symmetry_int_tables_number       1

loop_
  _symmetry_equiv_pos_as_xyz
  'x, y, z'

loop_
  _atom_site_label
  _atom_site_occupancy
  _atom_site_fract_x
  _atom_site_fract_y
  _atom_site_fract_z
  _atom_site_thermal_displace_type
  _atom_site_B_iso_or_equiv
  _atom_site_type_symbol
  W1       1.0000 0.17199  0.52583  0.38187  Biso   1.000  W
  W2       1.0000 0.82801  0.02583  0.11813  Biso   1.000  W
  W3       1.0000 0.82801  0.47417  0.61813  Biso   1.000  W
  W4       1.0000 0.17199  0.97417  0.88187  Biso   1.000  W
  W5       1.0000 0.30829  0.43256  0.64568  Biso   1.000  W
  W6       1.0000 0.69171  0.93256  0.85432  Biso   1.000  W
  W7       1.0000 0.69171  0.56744  0.35432  Biso   1.000  W
  W8       1.0000 0.30829  0.06744  0.14568  Biso   1.000  W
  W9       1.0000 0.29013  0.38625  0.34115  Biso   1.000  W
  W10      1.0000 0.70987  0.88625  0.15885  Biso   1.000  W
  W11      1.0000 0.70987  0.61375  0.65885  Biso   1.000  W
  W12      1.0000 0.29013  0.11375  0.84115  Biso   1.000  W
  W13      1.0000 0.36447  0.59468  0.23896  Biso   1.000  W
  W14      1.0000 0.63553  0.09468  0.26104  Biso   1.000  W
  W15      1.0000 0.63553  0.40532  0.76104  Biso   1.000  W
  W16      1.0000 0.36447  0.90532  0.73896  Biso   1.000  W
  W17      1.0000 0.38112  0.63839  0.54263  Biso   1.000  W
  W18      1.0000 0.61888  0.13839  0.95737  Biso   1.000  W
  W19      1.0000 0.61888  0.36161  0.45737  Biso   1.000  W
  W20      1.0000 0.38112  0.86161  0.04263  Biso   1.000  W
  W21      1.0000 0.47766  0.45576  0.19291  Biso   1.000  W
  W22      1.0000 0.52234  0.95576  0.30709  Biso   1.000  W
  W23      1.0000 0.52234  0.54424  0.80709  Biso   1.000  W
  W24      1.0000 0.47766  0.04424  0.69291  Biso   1.000  W
  P1       1.0000 0.50000  0.50000  0.50000  Biso   1.000  P
  P2       1.0000 0.50000  0.00000  0.00000  Biso   1.000  P
  O1       1.0000 0.18380  0.45230  0.31120  Biso   1.000  O
  O2       1.0000 0.81620  0.95230  0.18880  Biso   1.000  O
  O3       1.0000 0.81620  0.54770  0.68880  Biso   1.000  O
  O4       1.0000 0.18380  0.04770  0.81120  Biso   1.000  O
  O5       1.0000 0.23220  0.59370  0.47960  Biso   1.000  O
  O6       1.0000 0.76780  0.09370  0.02040  Biso   1.000  O
  O7       1.0000 0.76780  0.40630  0.52040  Biso   1.000  O
  O8       1.0000 0.23220  0.90630  0.97960  Biso   1.000  O
  O9       1.0000 0.21810  0.56190  0.25580  Biso   1.000  O
  O10      1.0000 0.78190  0.06190  0.24420  Biso   1.000  O
  O11      1.0000 0.78190  0.43810  0.74420  Biso   1.000  O
  O12      1.0000 0.21810  0.93810  0.75580  Biso   1.000  O
  O13      1.0000 0.19800  0.48530  0.53610  Biso   1.000  O
  O14      1.0000 0.80200  0.98530  0.96390  Biso   1.000  O
  O15      1.0000 0.80200  0.51470  0.46390  Biso   1.000  O
  O16      1.0000 0.19800  0.01470  0.03610  Biso   1.000  O
  O17      1.0000 0.22010  0.39880  0.71410  Biso   1.000  O
  O18      1.0000 0.77990  0.89880  0.78590  Biso   1.000  O
  O19      1.0000 0.77990  0.60120  0.28590  Biso   1.000  O
  O20      1.0000 0.22010  0.10120  0.21410  Biso   1.000  O
  O21      1.0000 0.46340  0.39320  0.72230  Biso   1.000  O
  O22      1.0000 0.53660  0.89320  0.77770  Biso   1.000  O
  O23      1.0000 0.53660  0.60680  0.27770  Biso   1.000  O
  O24      1.0000 0.46340  0.10680  0.22230  Biso   1.000  O
  O25      1.0000 0.28320  0.38390  0.50380  Biso   1.000  O
  O26      1.0000 0.71680  0.88390  0.99620  Biso   1.000  O
  O27      1.0000 0.71680  0.61610  0.49620  Biso   1.000  O
  O28      1.0000 0.28320  0.11610  0.00380  Biso   1.000  O
  O29      1.0000 0.19130  0.33350  0.26750  Biso   1.000  O
  O30      1.0000 0.80870  0.83350  0.23250  Biso   1.000  O
  O31      1.0000 0.80870  0.66650  0.73250  Biso   1.000  O
  O32      1.0000 0.19130  0.16650  0.76750  Biso   1.000  O
  O33      1.0000 0.37300  0.64390  0.37480  Biso   1.000  O
  O34      1.0000 0.62700  0.14390  0.12520  Biso   1.000  O
  O35      1.0000 0.62700  0.35610  0.62520  Biso   1.000  O
  O36      1.0000 0.37300  0.85610  0.87480  Biso   1.000  O
  O37      1.0000 0.32510  0.70410  0.56280  Biso   1.000  O
  O38      1.0000 0.67490  0.20410  0.93720  Biso   1.000  O
  O39      1.0000 0.67490  0.29590  0.43720  Biso   1.000  O
  O40      1.0000 0.32510  0.79590  0.06280  Biso   1.000  O
  O41      1.0000 0.38010  0.52380  0.16000  Biso   1.000  O
  O42      1.0000 0.61990  0.02380  0.34000  Biso   1.000  O
  O43      1.0000 0.61990  0.47620  0.84000  Biso   1.000  O
  O44      1.0000 0.38010  0.97620  0.66000  Biso   1.000  O
  O45      1.0000 0.30390  0.64020  0.11790  Biso   1.000  O
  O46      1.0000 0.69610  0.14020  0.38210  Biso   1.000  O
  O47      1.0000 0.69610  0.35980  0.88210  Biso   1.000  O
  O48      1.0000 0.30390  0.85980  0.61790  Biso   1.000  O
  O49      1.0000 0.46840  0.43500  0.04990  Biso   1.000  O
  O50      1.0000 0.53160  0.93500  0.45010  Biso   1.000  O
  O51      1.0000 0.53160  0.56500  0.95010  Biso   1.000  O
  O52      1.0000 0.46840  0.06500  0.54990  Biso   1.000  O
  O53      1.0000 0.34410  0.41530  0.21310  Biso   1.000  O
  O54      1.0000 0.65590  0.91530  0.28690  Biso   1.000  O
  O55      1.0000 0.65590  0.58470  0.78690  Biso   1.000  O
  O56      1.0000 0.34410  0.08470  0.71310  Biso   1.000  O
  O57      1.0000 0.37840  0.49570  0.75520  Biso   1.000  O
  O58      1.0000 0.62160  0.99570  0.74480  Biso   1.000  O
  O59      1.0000 0.62160  0.50430  0.24480  Biso   1.000  O
  O60      1.0000 0.37840  0.00430  0.25520  Biso   1.000  O
  O61      1.0000 0.01870  0.53770  0.32480  Biso   1.000  O
  O62      1.0000 0.98130  0.03770  0.17520  Biso   1.000  O
  O63      1.0000 0.98130  0.46230  0.67520  Biso   1.000  O
  O64      1.0000 0.01870  0.96230  0.82480  Biso   1.000  O
  O65      1.0000 0.41630  0.60280  0.70160  Biso   1.000  O
  O66      1.0000 0.58370  0.10280  0.79840  Biso   1.000  O
  O67      1.0000 0.58370  0.39720  0.29840  Biso   1.000  O
  O68      1.0000 0.41630  0.89720  0.20160  Biso   1.000  O
  O69      1.0000 0.44520  0.34650  0.40660  Biso   1.000  O
  O70      1.0000 0.55480  0.84650  0.09340  Biso   1.000  O
  O71      1.0000 0.55480  0.65350  0.59340  Biso   1.000  O
  O72      1.0000 0.44520  0.15350  0.90660  Biso   1.000  O
  O73      1.0000 0.47540  0.44530  0.41340  Biso   1.000  O
  O74      1.0000 0.52460  0.94530  0.08660  Biso   1.000  O
  O75      1.0000 0.52460  0.55470  0.58660  Biso   1.000  O
  O76      1.0000 0.47540  0.05470  0.91340  Biso   1.000  O
  O77      1.0000 0.50960  0.52390  0.37150  Biso   1.000  O
  O78      1.0000 0.49040  0.02390  0.12850  Biso   1.000  O
  O79      1.0000 0.49040  0.47610  0.62850  Biso   1.000  O
  O80      1.0000 0.50960  0.97610  0.87150  Biso   1.000  O
  O81      1.0000 0.39360  0.54340  0.44340  Biso   1.000  O
  O82      1.0000 0.60640  0.04340  0.05660  Biso   1.000  O
  O83      1.0000 0.60640  0.45660  0.55660  Biso   1.000  O
  O84      1.0000 0.39360  0.95660  0.94340  Biso   1.000  O
  O85      1.0000 0.37570  0.47550  0.47410  Biso   1.000  O
  O86      1.0000 0.62430  0.97550  0.02590  Biso   1.000  O
  O87      1.0000 0.62430  0.52450  0.52590  Biso   1.000  O
  O88      1.0000 0.37570  0.02450  0.97410  Biso   1.000  O
  H1       1.0000 0.94400  0.53700  0.32100  Biso   1.000  H
  H2       1.0000 0.05600  0.03700  0.17900  Biso   1.000  H
  H3       1.0000 0.05600  0.46300  0.67900  Biso   1.000  H
  H4       1.0000 0.94400  0.96300  0.82100  Biso   1.000  H
  Cu1      1.0000 0.71636  0.26595  0.21343  Biso   1.000  Cu
  Cu2      1.0000 0.28364  0.76595  0.28657  Biso   1.000  Cu
  Cu3      1.0000 0.28364  0.73405  0.78657  Biso   1.000  Cu
  Cu4      1.0000 0.71636  0.23405  0.71343  Biso   1.000  Cu
  N1       1.0000 0.53920  0.27270  0.12950  Biso   1.000  N
  N2       1.0000 0.46080  0.77270  0.37050  Biso   1.000  N
  N3       1.0000 0.46080  0.72730  0.87050  Biso   1.000  N
  N4       1.0000 0.53920  0.22730  0.62950  Biso   1.000  N
  C1       1.0000 0.48480  0.29940  0.01900  Biso   1.000  C
  C2       1.0000 0.51520  0.79940  0.48100  Biso   1.000  C
  C3       1.0000 0.51520  0.70060  0.98100  Biso   1.000  C
  C4       1.0000 0.48480  0.20060  0.51900  Biso   1.000  C
  H5       1.0000 0.53530  0.31760  0.98220  Biso   1.000  H
  H6       1.0000 0.46470  0.81760  0.51780  Biso   1.000  H
  H7       1.0000 0.46470  0.68240  0.01780  Biso   1.000  H
  H8       1.0000 0.53530  0.18240  0.48220  Biso   1.000  H
  C5       1.0000 0.35680  0.30120  0.95700  Biso   1.000  C
  C6       1.0000 0.64320  0.80120  0.54300  Biso   1.000  C
  C7       1.0000 0.64320  0.69880  0.04300  Biso   1.000  C
  C8       1.0000 0.35680  0.19880  0.45700  Biso   1.000  C
  H9       1.0000 0.32260  0.32040  0.88020  Biso   1.000  H
  H10      1.0000 0.67740  0.82040  0.61980  Biso   1.000  H
  H11      1.0000 0.67740  0.67960  0.11980  Biso   1.000  H
  H12      1.0000 0.32260  0.17960  0.38020  Biso   1.000  H
  C9       1.0000 0.27980  0.27410  0.01060  Biso   1.000  C
  C10      1.0000 0.72020  0.77410  0.48940  Biso   1.000  C
  C11      1.0000 0.72020  0.72590  0.98940  Biso   1.000  C
  C12      1.0000 0.27980  0.22590  0.51060  Biso   1.000  C
  C13      1.0000 0.33610  0.24760  0.12570  Biso   1.000  C
  C14      1.0000 0.66390  0.74760  0.37430  Biso   1.000  C
  C15      1.0000 0.66390  0.75240  0.87430  Biso   1.000  C
  C16      1.0000 0.33610  0.25240  0.62570  Biso   1.000  C
  H13      1.0000 0.28800  0.22930  0.16510  Biso   1.000  H
  H14      1.0000 0.71200  0.72930  0.33490  Biso   1.000  H
  H15      1.0000 0.71200  0.77070  0.83490  Biso   1.000  H
  H16      1.0000 0.28800  0.27070  0.66510  Biso   1.000  H
  C17      1.0000 0.46400  0.24840  0.18180  Biso   1.000  C
  C18      1.0000 0.53600  0.74840  0.31820  Biso   1.000  C
  C19      1.0000 0.53600  0.75160  0.81820  Biso   1.000  C
  C20      1.0000 0.46400  0.25160  0.68180  Biso   1.000  C
  H17      1.0000 0.50020  0.23110  0.26040  Biso   1.000  H
  H18      1.0000 0.49980  0.73110  0.23960  Biso   1.000  H
  H19      1.0000 0.49980  0.76890  0.73960  Biso   1.000  H
  H20      1.0000 0.50020  0.26890  0.76040  Biso   1.000  H
  N5       1.0000 0.88340  0.25770  0.81330  Biso   1.000  N
  N6       1.0000 0.11660  0.75770  0.68670  Biso   1.000  N
  N7       1.0000 0.11660  0.74230  0.18670  Biso   1.000  N
  N8       1.0000 0.88340  0.24230  0.31330  Biso   1.000  N
  C21      1.0000 0.94620  0.22200  0.90890  Biso   1.000  C
  C22      1.0000 0.05380  0.72200  0.59110  Biso   1.000  C
  C23      1.0000 0.05380  0.77800  0.09110  Biso   1.000  C
  C24      1.0000 0.94620  0.27800  0.40890  Biso   1.000  C
  H21      1.0000 0.90250  0.19210  0.92980  Biso   1.000  H
  H22      1.0000 0.09750  0.69210  0.57020  Biso   1.000  H
  H23      1.0000 0.09750  0.80790  0.07020  Biso   1.000  H
  H24      1.0000 0.90250  0.30790  0.42980  Biso   1.000  H
  C25      1.0000 0.07230  0.22740  0.97750  Biso   1.000  C
  C26      1.0000 0.92770  0.72740  0.52250  Biso   1.000  C
  C27      1.0000 0.92770  0.77260  0.02250  Biso   1.000  C
  C28      1.0000 0.07230  0.27260  0.47750  Biso   1.000  C
  H25      1.0000 0.11090  0.20290  0.04550  Biso   1.000  H
  H26      1.0000 0.88910  0.70290  0.45450  Biso   1.000  H
  H27      1.0000 0.88910  0.79710  0.95450  Biso   1.000  H
  H28      1.0000 0.11090  0.29710  0.54550  Biso   1.000  H
  C29      1.0000 0.14100  0.26990  0.94370  Biso   1.000  C
  C30      1.0000 0.85900  0.76990  0.55630  Biso   1.000  C
  C31      1.0000 0.85900  0.73010  0.05630  Biso   1.000  C
  C32      1.0000 0.14100  0.23010  0.44370  Biso   1.000  C
  C33      1.0000 0.07660  0.30640  0.84340  Biso   1.000  C
  C34      1.0000 0.92340  0.80640  0.65660  Biso   1.000  C
  C35      1.0000 0.92340  0.69360  0.15660  Biso   1.000  C
  C36      1.0000 0.07660  0.19360  0.34340  Biso   1.000  C
  H29      1.0000 0.11840  0.33560  0.81770  Biso   1.000  H
  H30      1.0000 0.88160  0.83560  0.68230  Biso   1.000  H
  H31      1.0000 0.88160  0.66440  0.18230  Biso   1.000  H
  H32      1.0000 0.11840  0.16440  0.31770  Biso   1.000  H
  C37      1.0000 0.94810  0.29840  0.78200  Biso   1.000  C
  C38      1.0000 0.05190  0.79840  0.71800  Biso   1.000  C
  C39      1.0000 0.05190  0.70160  0.21800  Biso   1.000  C
  C40      1.0000 0.94810  0.20160  0.28200  Biso   1.000  C
  H33      1.0000 0.90600  0.32320  0.71550  Biso   1.000  H
  H34      1.0000 0.09400  0.82320  0.78450  Biso   1.000  H
  H35      1.0000 0.09400  0.67680  0.28450  Biso   1.000  H
  H36      1.0000 0.90600  0.17680  0.21550  Biso   1.000  H
  N9       1.0000 0.81170  0.34480  0.16470  Biso   1.000  N
  N10      1.0000 0.18830  0.84480  0.33530  Biso   1.000  N
  N11      1.0000 0.18830  0.65520  0.83530  Biso   1.000  N
  N12      1.0000 0.81170  0.15520  0.66470  Biso   1.000  N
  C41      1.0000 0.89560  0.32850  0.10840  Biso   1.000  C
  C42      1.0000 0.10440  0.82850  0.39160  Biso   1.000  C
  C43      1.0000 0.10440  0.67150  0.89160  Biso   1.000  C
  C44      1.0000 0.89560  0.17150  0.60840  Biso   1.000  C
  H37      1.0000 0.91260  0.28920  0.10160  Biso   1.000  H
  H38      1.0000 0.08740  0.78920  0.39840  Biso   1.000  H
  H39      1.0000 0.08740  0.71080  0.89840  Biso   1.000  H
  H40      1.0000 0.91260  0.21080  0.60160  Biso   1.000  H
  C45      1.0000 0.95420  0.37100  0.06230  Biso   1.000  C
  C46      1.0000 0.04580  0.87100  0.43770  Biso   1.000  C
  C47      1.0000 0.04580  0.62900  0.93770  Biso   1.000  C
  C48      1.0000 0.95420  0.12900  0.56230  Biso   1.000  C
  H41      1.0000 0.01030  0.36010  0.02470  Biso   1.000  H
  H42      1.0000 0.98970  0.86010  0.47530  Biso   1.000  H
  H43      1.0000 0.98970  0.63990  0.97530  Biso   1.000  H
  H44      1.0000 0.01030  0.13990  0.52470  Biso   1.000  H
  C49      1.0000 0.92890  0.42980  0.07250  Biso   1.000  C
  C50      1.0000 0.07110  0.92980  0.42750  Biso   1.000  C
  C51      1.0000 0.07110  0.57020  0.92750  Biso   1.000  C
  C52      1.0000 0.92890  0.07020  0.57250  Biso   1.000  C
  C53      1.0000 0.84500  0.44610  0.12880  Biso   1.000  C
  C54      1.0000 0.15500  0.94610  0.37120  Biso   1.000  C
  C55      1.0000 0.15500  0.55390  0.87120  Biso   1.000  C
  C56      1.0000 0.84500  0.05390  0.62880  Biso   1.000  C
  H45      1.0000 0.82800  0.48550  0.13560  Biso   1.000  H
  H46      1.0000 0.17200  0.98550  0.36440  Biso   1.000  H
  H47      1.0000 0.17200  0.51450  0.86440  Biso   1.000  H
  H48      1.0000 0.82800  0.01450  0.63560  Biso   1.000  H
  C57      1.0000 0.78640  0.40360  0.17490  Biso   1.000  C
  C58      1.0000 0.21360  0.90360  0.32510  Biso   1.000  C
  C59      1.0000 0.21360  0.59640  0.82510  Biso   1.000  C
  C60      1.0000 0.78640  0.09640  0.67490  Biso   1.000  C
  H49      1.0000 0.73030  0.41450  0.21260  Biso   1.000  H
  H50      1.0000 0.26970  0.91450  0.28740  Biso   1.000  H
  H51      1.0000 0.26970  0.58550  0.78740  Biso   1.000  H
  H52      1.0000 0.73030  0.08550  0.71260  Biso   1.000  H
  N13      1.0000 0.89580  0.44440  0.08640  Biso   1.000  N
  N14      1.0000 0.10420  0.94440  0.41360  Biso   1.000  N
  N15      1.0000 0.10420  0.55560  0.91360  Biso   1.000  N
  N16      1.0000 0.89580  0.05560  0.58640  Biso   1.000  N
  C61      1.0000 0.85330  0.50180  0.06850  Biso   1.000  C
  C62      1.0000 0.14670  0.00180  0.43150  Biso   1.000  C
  C63      1.0000 0.14670  0.49820  0.93150  Biso   1.000  C
  C64      1.0000 0.85330  0.99820  0.56850  Biso   1.000  C
  H53      1.0000 0.78730  0.51310  0.09210  Biso   1.000  H
  H54      1.0000 0.21270  0.01310  0.40790  Biso   1.000  H
  H55      1.0000 0.21270  0.48690  0.90790  Biso   1.000  H
  H56      1.0000 0.78730  0.98690  0.59210  Biso   1.000  H
  C65      1.0000 0.90950  0.54230  0.01510  Biso   1.000  C
  C66      1.0000 0.09050  0.04230  0.48490  Biso   1.000  C
  C67      1.0000 0.09050  0.45770  0.98490  Biso   1.000  C
  C68      1.0000 0.90950  0.95770  0.51510  Biso   1.000  C
  H57      1.0000 0.88110  0.58070  0.00310  Biso   1.000  H
  H58      1.0000 0.11890  0.08070  0.49690  Biso   1.000  H
  H59      1.0000 0.11890  0.41930  0.99690  Biso   1.000  H
  H60      1.0000 0.88110  0.91930  0.50310  Biso   1.000  H
  C69      1.0000 0.99180  0.47460  0.02030  Biso   1.000  C
  C70      1.0000 0.00820  0.97460  0.47970  Biso   1.000  C
  C71      1.0000 0.00820  0.52540  0.97970  Biso   1.000  C
  C72      1.0000 0.99180  0.02540  0.52030  Biso   1.000  C
  C73      1.0000 0.94940  0.53200  0.00230  Biso   1.000  C
  C74      1.0000 0.05060  0.03200  0.49770  Biso   1.000  C
  C75      1.0000 0.05060  0.46800  0.99770  Biso   1.000  C
  C76      1.0000 0.94940  0.96800  0.50230  Biso   1.000  C
  H61      1.0000 0.88330  0.54330  0.02600  Biso   1.000  H
  H62      1.0000 0.11670  0.04330  0.47400  Biso   1.000  H
  H63      1.0000 0.11670  0.45670  0.97400  Biso   1.000  H
  H64      1.0000 0.88330  0.95670  0.52600  Biso   1.000  H
  C77      1.0000 0.99450  0.42750  0.05100  Biso   1.000  C
  C78      1.0000 0.00550  0.92750  0.44900  Biso   1.000  C
  C79      1.0000 0.00550  0.57250  0.94900  Biso   1.000  C
  C80      1.0000 0.99450  0.07250  0.55100  Biso   1.000  C
  H65      1.0000 0.02290  0.38910  0.06300  Biso   1.000  H
  H66      1.0000 0.97710  0.88910  0.43700  Biso   1.000  H
  H67      1.0000 0.97710  0.61090  0.93700  Biso   1.000  H
  H68      1.0000 0.02290  0.11090  0.56300  Biso   1.000  H
