data_image0
_cell_length_a       22.194
_cell_length_b       9.5006
_cell_length_c       13.38
_cell_angle_alpha    90
_cell_angle_beta     121.435
_cell_angle_gamma    90

_symmetry_space_group_name_H-M    "P 1"
_symmetry_int_tables_number       1

loop_
  _symmetry_equiv_pos_as_xyz
  'x, y, z'

loop_
  _atom_site_label
  _atom_site_occupancy
  _atom_site_fract_x
  _atom_site_fract_y
  _atom_site_fract_z
  _atom_site_thermal_displace_type
  _atom_site_B_iso_or_equiv
  _atom_site_type_symbol
  Br1      1.0000 0.31367  0.73342  0.91823  Biso   1.000  Br
  Br2      1.0000 0.68633  0.73342  0.58177  Biso   1.000  Br
  Br3      1.0000 0.81367  0.23342  0.91823  Biso   1.000  Br
  Br4      1.0000 0.18633  0.23342  0.58177  Biso   1.000  Br
  Br5      1.0000 0.68633  0.26658  0.08177  Biso   1.000  Br
  Br6      1.0000 0.31367  0.26658  0.41823  Biso   1.000  Br
  Br7      1.0000 0.18633  0.76658  0.08177  Biso   1.000  Br
  Br8      1.0000 0.81367  0.76658  0.41823  Biso   1.000  Br
  Br9      1.0000 0.16502  0.03595  0.84010  Biso   1.000  Br
  Br10     1.0000 0.83498  0.03595  0.65990  Biso   1.000  Br
  Br11     1.0000 0.66502  0.53595  0.84010  Biso   1.000  Br
  Br12     1.0000 0.33498  0.53595  0.65990  Biso   1.000  Br
  Br13     1.0000 0.83498  0.96405  0.15990  Biso   1.000  Br
  Br14     1.0000 0.16502  0.96405  0.34010  Biso   1.000  Br
  Br15     1.0000 0.33498  0.46405  0.15990  Biso   1.000  Br
  Br16     1.0000 0.66502  0.46405  0.34010  Biso   1.000  Br
  Cu1      1.0000 0.19061  0.78974  0.89486  Biso   1.000  Cu
  Cu2      1.0000 0.80939  0.78974  0.60514  Biso   1.000  Cu
  Cu3      1.0000 0.69061  0.28974  0.89486  Biso   1.000  Cu
  Cu4      1.0000 0.30939  0.28974  0.60514  Biso   1.000  Cu
  Cu5      1.0000 0.80939  0.21026  0.10514  Biso   1.000  Cu
  Cu6      1.0000 0.19061  0.21026  0.39486  Biso   1.000  Cu
  Cu7      1.0000 0.30939  0.71026  0.10514  Biso   1.000  Cu
  Cu8      1.0000 0.69061  0.71026  0.39486  Biso   1.000  Cu
  Cu9      1.0000 0.27325  0.48367  0.94791  Biso   1.000  Cu
  Cu10     1.0000 0.72675  0.48367  0.55209  Biso   1.000  Cu
  Cu11     1.0000 0.77325  0.98367  0.94791  Biso   1.000  Cu
  Cu12     1.0000 0.22675  0.98367  0.55209  Biso   1.000  Cu
  Cu13     1.0000 0.72675  0.51633  0.05209  Biso   1.000  Cu
  Cu14     1.0000 0.27325  0.51633  0.44791  Biso   1.000  Cu
  Cu15     1.0000 0.22675  0.01633  0.05209  Biso   1.000  Cu
  Cu16     1.0000 0.77325  0.01633  0.44791  Biso   1.000  Cu
  O1       1.0000 0.50000  0.62710  0.25000  Biso   1.000  O
  O2       1.0000 0.00000  0.12710  0.25000  Biso   1.000  O
  O3       1.0000 0.50000  0.37290  0.75000  Biso   1.000  O
  O4       1.0000 0.00000  0.87290  0.75000  Biso   1.000  O
  N1       1.0000 0.17024  0.49660  0.82880  Biso   1.000  N
  N2       1.0000 0.82976  0.49660  0.67120  Biso   1.000  N
  N3       1.0000 0.67024  0.99660  0.82880  Biso   1.000  N
  N4       1.0000 0.32976  0.99660  0.67120  Biso   1.000  N
  N5       1.0000 0.82976  0.50340  0.17120  Biso   1.000  N
  N6       1.0000 0.17024  0.50340  0.32880  Biso   1.000  N
  N7       1.0000 0.32976  0.00340  0.17120  Biso   1.000  N
  N8       1.0000 0.67024  0.00340  0.32880  Biso   1.000  N
  N9       1.0000 0.13416  0.62380  0.79670  Biso   1.000  N
  N10      1.0000 0.86584  0.62380  0.70330  Biso   1.000  N
  N11      1.0000 0.63416  0.12380  0.79670  Biso   1.000  N
  N12      1.0000 0.36584  0.12380  0.70330  Biso   1.000  N
  N13      1.0000 0.86584  0.37620  0.20330  Biso   1.000  N
  N14      1.0000 0.13416  0.37620  0.29670  Biso   1.000  N
  N15      1.0000 0.36584  0.87620  0.20330  Biso   1.000  N
  N16      1.0000 0.63416  0.87620  0.29670  Biso   1.000  N
  N17      1.0000 0.06060  0.45720  0.69010  Biso   1.000  N
  N18      1.0000 0.93940  0.45720  0.80990  Biso   1.000  N
  N19      1.0000 0.56060  0.95720  0.69010  Biso   1.000  N
  N20      1.0000 0.43940  0.95720  0.80990  Biso   1.000  N
  N21      1.0000 0.93940  0.54280  0.30990  Biso   1.000  N
  N22      1.0000 0.06060  0.54280  0.19010  Biso   1.000  N
  N23      1.0000 0.43940  0.04280  0.30990  Biso   1.000  N
  N24      1.0000 0.56060  0.04280  0.19010  Biso   1.000  N
  N25      1.0000 0.81396  0.15860  0.37280  Biso   1.000  N
  N26      1.0000 0.18604  0.15860  0.12720  Biso   1.000  N
  N27      1.0000 0.31396  0.65860  0.37280  Biso   1.000  N
  N28      1.0000 0.68604  0.65860  0.12720  Biso   1.000  N
  N29      1.0000 0.18604  0.84140  0.62720  Biso   1.000  N
  N30      1.0000 0.81396  0.84140  0.87280  Biso   1.000  N
  N31      1.0000 0.68604  0.34140  0.62720  Biso   1.000  N
  N32      1.0000 0.31396  0.34140  0.87280  Biso   1.000  N
  H1       1.0000 0.77360  0.19990  0.33670  Biso   1.000  H
  H2       1.0000 0.22640  0.19990  0.16330  Biso   1.000  H
  H3       1.0000 0.27360  0.69990  0.33670  Biso   1.000  H
  H4       1.0000 0.72640  0.69990  0.16330  Biso   1.000  H
  H5       1.0000 0.22640  0.80010  0.66330  Biso   1.000  H
  H6       1.0000 0.77360  0.80010  0.83670  Biso   1.000  H
  H7       1.0000 0.72640  0.30010  0.66330  Biso   1.000  H
  H8       1.0000 0.27360  0.30010  0.83670  Biso   1.000  H
  H9       1.0000 0.81700  0.07040  0.36130  Biso   1.000  H
  H10      1.0000 0.18300  0.07040  0.13870  Biso   1.000  H
  H11      1.0000 0.31700  0.57040  0.36130  Biso   1.000  H
  H12      1.0000 0.68300  0.57040  0.13870  Biso   1.000  H
  H13      1.0000 0.18300  0.92960  0.63870  Biso   1.000  H
  H14      1.0000 0.81700  0.92960  0.86130  Biso   1.000  H
  H15      1.0000 0.68300  0.42960  0.63870  Biso   1.000  H
  H16      1.0000 0.31700  0.42960  0.86130  Biso   1.000  H
  C1       1.0000 0.99740  0.38280  0.60700  Biso   1.000  C
  C2       1.0000 0.00260  0.38280  0.89300  Biso   1.000  C
  C3       1.0000 0.49740  0.88280  0.60700  Biso   1.000  C
  C4       1.0000 0.50260  0.88280  0.89300  Biso   1.000  C
  C5       1.0000 0.00260  0.61720  0.39300  Biso   1.000  C
  C6       1.0000 0.99740  0.61720  0.10700  Biso   1.000  C
  C7       1.0000 0.50260  0.11720  0.39300  Biso   1.000  C
  C8       1.0000 0.49740  0.11720  0.10700  Biso   1.000  C
  C9       1.0000 0.00160  0.24100  0.58670  Biso   1.000  C
  C10      1.0000 0.99840  0.24100  0.91330  Biso   1.000  C
  C11      1.0000 0.50160  0.74100  0.58670  Biso   1.000  C
  C12      1.0000 0.49840  0.74100  0.91330  Biso   1.000  C
  C13      1.0000 0.99840  0.75900  0.41330  Biso   1.000  C
  C14      1.0000 0.00160  0.75900  0.08670  Biso   1.000  C
  C15      1.0000 0.49840  0.25900  0.41330  Biso   1.000  C
  C16      1.0000 0.50160  0.25900  0.08670  Biso   1.000  C
  H17      1.0000 0.04500  0.19520  0.62440  Biso   1.000  H
  H18      1.0000 0.95500  0.19520  0.87560  Biso   1.000  H
  H19      1.0000 0.54500  0.69520  0.62440  Biso   1.000  H
  H20      1.0000 0.45500  0.69520  0.87560  Biso   1.000  H
  H21      1.0000 0.95500  0.80480  0.37560  Biso   1.000  H
  H22      1.0000 0.04500  0.80480  0.12440  Biso   1.000  H
  H23      1.0000 0.45500  0.30480  0.37560  Biso   1.000  H
  H24      1.0000 0.54500  0.30480  0.12440  Biso   1.000  H
  C17      1.0000 0.94070  0.16820  0.50990  Biso   1.000  C
  C18      1.0000 0.05930  0.16820  0.99010  Biso   1.000  C
  C19      1.0000 0.44070  0.66820  0.50990  Biso   1.000  C
  C20      1.0000 0.55930  0.66820  0.99010  Biso   1.000  C
  C21      1.0000 0.05930  0.83180  0.49010  Biso   1.000  C
  C22      1.0000 0.94070  0.83180  0.00990  Biso   1.000  C
  C23      1.0000 0.55930  0.33180  0.49010  Biso   1.000  C
  C24      1.0000 0.44070  0.33180  0.00990  Biso   1.000  C
  H25      1.0000 0.94340  0.07270  0.49740  Biso   1.000  H
  H26      1.0000 0.05660  0.07270  0.00260  Biso   1.000  H
  H27      1.0000 0.44340  0.57270  0.49740  Biso   1.000  H
  H28      1.0000 0.55660  0.57270  0.00260  Biso   1.000  H
  H29      1.0000 0.05660  0.92730  0.50260  Biso   1.000  H
  H30      1.0000 0.94340  0.92730  0.99740  Biso   1.000  H
  H31      1.0000 0.55660  0.42730  0.50260  Biso   1.000  H
  H32      1.0000 0.44340  0.42730  0.99740  Biso   1.000  H
  C25      1.0000 0.87560  0.23570  0.45110  Biso   1.000  C
  C26      1.0000 0.12440  0.23570  0.04890  Biso   1.000  C
  C27      1.0000 0.37560  0.73570  0.45110  Biso   1.000  C
  C28      1.0000 0.62440  0.73570  0.04890  Biso   1.000  C
  C29      1.0000 0.12440  0.76430  0.54890  Biso   1.000  C
  C30      1.0000 0.87560  0.76430  0.95110  Biso   1.000  C
  C31      1.0000 0.62440  0.26430  0.54890  Biso   1.000  C
  C32      1.0000 0.37560  0.26430  0.95110  Biso   1.000  C
  C33      1.0000 0.87250  0.37780  0.47140  Biso   1.000  C
  C34      1.0000 0.12750  0.37780  0.02860  Biso   1.000  C
  C35      1.0000 0.37250  0.87780  0.47140  Biso   1.000  C
  C36      1.0000 0.62750  0.87780  0.02860  Biso   1.000  C
  C37      1.0000 0.12750  0.62220  0.52860  Biso   1.000  C
  C38      1.0000 0.87250  0.62220  0.97140  Biso   1.000  C
  C39      1.0000 0.62750  0.12220  0.52860  Biso   1.000  C
  C40      1.0000 0.37250  0.12220  0.97140  Biso   1.000  C
  H33      1.0000 0.82920  0.42410  0.43270  Biso   1.000  H
  H34      1.0000 0.17080  0.42410  0.06730  Biso   1.000  H
  H35      1.0000 0.32920  0.92410  0.43270  Biso   1.000  H
  H36      1.0000 0.67080  0.92410  0.06730  Biso   1.000  H
  H37      1.0000 0.17080  0.57590  0.56730  Biso   1.000  H
  H38      1.0000 0.82920  0.57590  0.93270  Biso   1.000  H
  H39      1.0000 0.67080  0.07590  0.56730  Biso   1.000  H
  H40      1.0000 0.32920  0.07590  0.93270  Biso   1.000  H
  C41      1.0000 0.93290  0.45150  0.54850  Biso   1.000  C
  C42      1.0000 0.06710  0.45150  0.95150  Biso   1.000  C
  C43      1.0000 0.43290  0.95150  0.54850  Biso   1.000  C
  C44      1.0000 0.56710  0.95150  0.95150  Biso   1.000  C
  C45      1.0000 0.06710  0.54850  0.45150  Biso   1.000  C
  C46      1.0000 0.93290  0.54850  0.04850  Biso   1.000  C
  C47      1.0000 0.56710  0.04850  0.45150  Biso   1.000  C
  C48      1.0000 0.43290  0.04850  0.04850  Biso   1.000  C
  H41      1.0000 0.93020  0.54690  0.56110  Biso   1.000  H
  H42      1.0000 0.06980  0.54690  0.93890  Biso   1.000  H
  H43      1.0000 0.43020  0.04690  0.56110  Biso   1.000  H
  H44      1.0000 0.56980  0.04690  0.93890  Biso   1.000  H
  H45      1.0000 0.06980  0.45310  0.43890  Biso   1.000  H
  H46      1.0000 0.93020  0.45310  0.06110  Biso   1.000  H
  H47      1.0000 0.56980  0.95310  0.43890  Biso   1.000  H
  H48      1.0000 0.43020  0.95310  0.06110  Biso   1.000  H
  C49      1.0000 0.12480  0.39990  0.76290  Biso   1.000  C
  C50      1.0000 0.87520  0.39990  0.73710  Biso   1.000  C
  C51      1.0000 0.62480  0.89990  0.76290  Biso   1.000  C
  C52      1.0000 0.37520  0.89990  0.73710  Biso   1.000  C
  C53      1.0000 0.87520  0.60010  0.23710  Biso   1.000  C
  C54      1.0000 0.12480  0.60010  0.26290  Biso   1.000  C
  C55      1.0000 0.37520  0.10010  0.23710  Biso   1.000  C
  C56      1.0000 0.62480  0.10010  0.26290  Biso   1.000  C
  H49      1.0000 0.13500  0.30500  0.76400  Biso   1.000  H
  H50      1.0000 0.86500  0.30500  0.73600  Biso   1.000  H
  H51      1.0000 0.63500  0.80500  0.76400  Biso   1.000  H
  H52      1.0000 0.36500  0.80500  0.73600  Biso   1.000  H
  H53      1.0000 0.86500  0.69500  0.23600  Biso   1.000  H
  H54      1.0000 0.13500  0.69500  0.26400  Biso   1.000  H
  H55      1.0000 0.36500  0.19500  0.23600  Biso   1.000  H
  H56      1.0000 0.63500  0.19500  0.26400  Biso   1.000  H
  C57      1.0000 0.06970  0.59800  0.71510  Biso   1.000  C
  C58      1.0000 0.93030  0.59800  0.78490  Biso   1.000  C
  C59      1.0000 0.56970  0.09800  0.71510  Biso   1.000  C
  C60      1.0000 0.43030  0.09800  0.78490  Biso   1.000  C
  C61      1.0000 0.93030  0.40200  0.28490  Biso   1.000  C
  C62      1.0000 0.06970  0.40200  0.21510  Biso   1.000  C
  C63      1.0000 0.43030  0.90200  0.28490  Biso   1.000  C
  C64      1.0000 0.56970  0.90200  0.21510  Biso   1.000  C
  H57      1.0000 0.03900  0.66000  0.68200  Biso   1.000  H
  H58      1.0000 0.96100  0.66000  0.81800  Biso   1.000  H
  H59      1.0000 0.53900  0.16000  0.68200  Biso   1.000  H
  H60      1.0000 0.46100  0.16000  0.81800  Biso   1.000  H
  H61      1.0000 0.96100  0.34000  0.31800  Biso   1.000  H
  H62      1.0000 0.03900  0.34000  0.18200  Biso   1.000  H
  H63      1.0000 0.46100  0.84000  0.31800  Biso   1.000  H
  H64      1.0000 0.53900  0.84000  0.18200  Biso   1.000  H
  C65      1.0000 0.49080  0.61200  0.16700  Biso   1.000  C
  C66      1.0000 0.50920  0.61200  0.33300  Biso   1.000  C
  C67      1.0000 0.99080  0.11200  0.16700  Biso   1.000  C
  C68      1.0000 0.00920  0.11200  0.33300  Biso   1.000  C
  C69      1.0000 0.50920  0.38800  0.83300  Biso   1.000  C
  C70      1.0000 0.49080  0.38800  0.66700  Biso   1.000  C
  C71      1.0000 0.00920  0.88800  0.83300  Biso   1.000  C
  C72      1.0000 0.99080  0.88800  0.66700  Biso   1.000  C
