data_image0
_cell_length_a       9.7569
_cell_length_b       12.5112
_cell_length_c       14.8622
_cell_angle_alpha    107.918
_cell_angle_beta     103.421
_cell_angle_gamma    96.912

_symmetry_space_group_name_H-M    "P 1"
_symmetry_int_tables_number       1

loop_
  _symmetry_equiv_pos_as_xyz
  'x, y, z'

loop_
  _atom_site_label
  _atom_site_occupancy
  _atom_site_fract_x
  _atom_site_fract_y
  _atom_site_fract_z
  _atom_site_thermal_displace_type
  _atom_site_B_iso_or_equiv
  _atom_site_type_symbol
  C1       1.0000 0.89200  0.90186  0.43608  Biso   1.000  C
  C2       1.0000 0.10800  0.09814  0.56392  Biso   1.000  C
  C3       1.0000 0.97000  0.97081  0.39927  Biso   1.000  C
  C4       1.0000 0.03000  0.02919  0.60073  Biso   1.000  C
  H1       1.0000 0.95060  0.95080  0.32980  Biso   1.000  H
  H2       1.0000 0.04940  0.04920  0.67020  Biso   1.000  H
  C5       1.0000 0.92430  0.93171  0.53920  Biso   1.000  C
  C6       1.0000 0.07570  0.06829  0.46080  Biso   1.000  C
  C7       1.0000 0.85130  0.86140  0.58795  Biso   1.000  C
  C8       1.0000 0.14870  0.13860  0.41205  Biso   1.000  C
  C9       1.0000 0.99610  0.60102  0.07440  Biso   1.000  C
  C10      1.0000 0.00390  0.39898  0.92560  Biso   1.000  C
  C11      1.0000 0.91800  0.57583  0.97649  Biso   1.000  C
  C12      1.0000 0.08200  0.42417  0.02351  Biso   1.000  C
  H3       1.0000 0.86160  0.62750  0.95980  Biso   1.000  H
  H4       1.0000 0.13840  0.37250  0.04020  Biso   1.000  H
  C13      1.0000 0.07880  0.52364  0.09744  Biso   1.000  C
  C14      1.0000 0.92120  0.47636  0.90256  Biso   1.000  C
  C15      1.0000 0.16390  0.54431  0.20273  Biso   1.000  C
  C16      1.0000 0.83610  0.45569  0.79727  Biso   1.000  C
  C17      1.0000 0.60550  0.97576  0.07180  Biso   1.000  C
  C18      1.0000 0.39450  0.02424  0.92820  Biso   1.000  C
  C19      1.0000 0.51410  0.05081  0.09786  Biso   1.000  C
  C20      1.0000 0.48590  0.94919  0.90214  Biso   1.000  C
  H5       1.0000 0.52400  0.08710  0.16600  Biso   1.000  H
  H6       1.0000 0.47600  0.91290  0.83400  Biso   1.000  H
  C21      1.0000 0.59080  0.92432  0.97044  Biso   1.000  C
  C22      1.0000 0.40920  0.07568  0.02956  Biso   1.000  C
  C23      1.0000 0.68340  0.84579  0.92611  Biso   1.000  C
  C24      1.0000 0.31660  0.15421  0.07389  Biso   1.000  C
  C25      1.0000 0.34230  0.78780  0.10545  Biso   1.000  C
  C26      1.0000 0.65770  0.21220  0.89455  Biso   1.000  C
  H7       1.0000 0.24610  0.73760  0.06960  Biso   1.000  H
  H8       1.0000 0.75390  0.26240  0.93040  Biso   1.000  H
  H9       1.0000 0.37160  0.82780  0.06270  Biso   1.000  H
  H10      1.0000 0.62840  0.17220  0.93730  Biso   1.000  H
  C27      1.0000 0.33680  0.87440  0.20058  Biso   1.000  C
  C28      1.0000 0.66320  0.12560  0.79942  Biso   1.000  C
  H11      1.0000 0.30750  0.83360  0.24270  Biso   1.000  H
  H12      1.0000 0.69250  0.16640  0.75730  Biso   1.000  H
  H13      1.0000 0.43390  0.92300  0.23660  Biso   1.000  H
  H14      1.0000 0.56610  0.07700  0.76340  Biso   1.000  H
  C29      1.0000 0.67790  0.43040  0.21180  Biso   1.000  C
  C30      1.0000 0.32210  0.56960  0.78820  Biso   1.000  C
  H15      1.0000 0.70730  0.44990  0.28430  Biso   1.000  H
  H16      1.0000 0.29270  0.55010  0.71570  Biso   1.000  H
  H17      1.0000 0.67390  0.34740  0.18060  Biso   1.000  H
  H18      1.0000 0.32610  0.65260  0.81940  Biso   1.000  H
  C31      1.0000 0.53160  0.45750  0.17880  Biso   1.000  C
  C32      1.0000 0.46840  0.54250  0.82120  Biso   1.000  C
  H19      1.0000 0.46120  0.41630  0.20150  Biso   1.000  H
  H20      1.0000 0.53880  0.58370  0.79850  Biso   1.000  H
  H21      1.0000 0.53700  0.54090  0.20870  Biso   1.000  H
  H22      1.0000 0.46300  0.45910  0.79130  Biso   1.000  H
  C33      1.0000 0.66110  0.15000  0.53410  Biso   1.000  C
  C34      1.0000 0.33890  0.85000  0.46590  Biso   1.000  C
  H23      1.0000 0.57330  0.12260  0.54990  Biso   1.000  H
  H24      1.0000 0.42670  0.87740  0.45010  Biso   1.000  H
  H25      1.0000 0.74240  0.12450  0.56970  Biso   1.000  H
  H26      1.0000 0.25760  0.87550  0.43030  Biso   1.000  H
  C35      1.0000 0.64000  0.09900  0.42460  Biso   1.000  C
  C36      1.0000 0.36000  0.90100  0.57540  Biso   1.000  C
  H27      1.0000 0.73370  0.11810  0.41200  Biso   1.000  H
  H28      1.0000 0.26630  0.88190  0.58800  Biso   1.000  H
  H29      1.0000 0.61490  0.01450  0.40530  Biso   1.000  H
  H30      1.0000 0.38510  0.98550  0.59470  Biso   1.000  H
  C37      1.0000 0.96640  0.22630  0.21962  Biso   1.000  C
  C38      1.0000 0.03360  0.77370  0.78038  Biso   1.000  C
  H31      1.0000 0.91640  0.27590  0.26110  Biso   1.000  H
  H32      1.0000 0.08360  0.72410  0.73890  Biso   1.000  H
  H33      1.0000 0.95050  0.15020  0.22700  Biso   1.000  H
  H34      1.0000 0.04950  0.84980  0.77300  Biso   1.000  H
  C39      1.0000 0.90000  0.21240  0.11271  Biso   1.000  C
  C40      1.0000 0.10000  0.78760  0.88729  Biso   1.000  C
  H35      1.0000 0.79400  0.19210  0.09790  Biso   1.000  H
  H36      1.0000 0.20600  0.80790  0.90210  Biso   1.000  H
  H37      1.0000 0.92410  0.28750  0.10480  Biso   1.000  H
  H38      1.0000 0.07590  0.71250  0.89520  Biso   1.000  H
  C41      1.0000 0.06630  0.54060  0.50340  Biso   1.000  C
  C42      1.0000 0.93370  0.45940  0.49660  Biso   1.000  C
  H39      1.0000 0.11530  0.58460  0.57400  Biso   1.000  H
  H40      1.0000 0.88470  0.41540  0.42600  Biso   1.000  H
  H41      1.0000 0.13290  0.49440  0.47690  Biso   1.000  H
  H42      1.0000 0.86710  0.50560  0.52310  Biso   1.000  H
  Cu1      1.0000 0.82812  0.67464  0.24092  Biso   1.000  Cu
  Cu2      1.0000 0.17188  0.32536  0.75908  Biso   1.000  Cu
  Cu3      1.0000 0.83288  0.81745  0.11677  Biso   1.000  Cu
  Cu4      1.0000 0.16712  0.18255  0.88323  Biso   1.000  Cu
  Cu5      1.0000 0.64528  0.81484  0.21964  Biso   1.000  Cu
  Cu6      1.0000 0.35472  0.18516  0.78036  Biso   1.000  Cu
  N1       1.0000 0.44760  0.71873  0.13007  Biso   1.000  N
  N2       1.0000 0.55240  0.28127  0.86993  Biso   1.000  N
  H43      1.0000 0.45910  0.67110  0.07250  Biso   1.000  H
  H44      1.0000 0.54090  0.32890  0.92750  Biso   1.000  H
  H45      1.0000 0.41130  0.67310  0.16080  Biso   1.000  H
  H46      1.0000 0.58870  0.32690  0.83920  Biso   1.000  H
  N3       1.0000 0.23360  0.94841  0.18157  Biso   1.000  N
  N4       1.0000 0.76640  0.05159  0.81843  Biso   1.000  N
  H47      1.0000 0.27830  0.00820  0.16920  Biso   1.000  H
  H48      1.0000 0.72170  0.99180  0.83080  Biso   1.000  H
  H49      1.0000 0.20160  0.97580  0.23540  Biso   1.000  H
  H50      1.0000 0.79840  0.02420  0.76460  Biso   1.000  H
  H51      1.0000 0.15750  0.90650  0.12850  Biso   1.000  H
  H52      1.0000 0.84250  0.09350  0.87150  Biso   1.000  H
  N5       1.0000 0.78250  0.49768  0.18304  Biso   1.000  N
  N6       1.0000 0.21750  0.50232  0.81696  Biso   1.000  N
  H53      1.0000 0.75140  0.47700  0.11550  Biso   1.000  H
  H54      1.0000 0.24860  0.52300  0.88450  Biso   1.000  H
  H55      1.0000 0.86810  0.47410  0.19770  Biso   1.000  H
  H56      1.0000 0.13190  0.52590  0.80230  Biso   1.000  H
  N7       1.0000 0.48230  0.42230  0.06910  Biso   1.000  N
  N8       1.0000 0.51770  0.57770  0.93090  Biso   1.000  N
  H57      1.0000 0.43200  0.46800  0.04100  Biso   1.000  H
  H58      1.0000 0.56800  0.53200  0.95900  Biso   1.000  H
  H59      1.0000 0.41200  0.35400  0.04300  Biso   1.000  H
  H60      1.0000 0.58800  0.64600  0.95700  Biso   1.000  H
  N9       1.0000 0.69170  0.27800  0.56695  Biso   1.000  N
  N10      1.0000 0.30830  0.72200  0.43305  Biso   1.000  N
  H61      1.0000 0.77470  0.30310  0.55480  Biso   1.000  H
  H62      1.0000 0.22530  0.69690  0.44520  Biso   1.000  H
  H63      1.0000 0.70150  0.30760  0.63270  Biso   1.000  H
  H64      1.0000 0.29850  0.69240  0.36730  Biso   1.000  H
  H65      1.0000 0.61770  0.30120  0.53330  Biso   1.000  H
  H66      1.0000 0.38230  0.69880  0.46670  Biso   1.000  H
  N11      1.0000 0.12370  0.27719  0.25646  Biso   1.000  N
  N12      1.0000 0.87630  0.72281  0.74354  Biso   1.000  N
  H67      1.0000 0.16980  0.23490  0.21620  Biso   1.000  H
  H68      1.0000 0.83020  0.76510  0.78380  Biso   1.000  H
  H69      1.0000 0.15890  0.27710  0.31880  Biso   1.000  H
  H70      1.0000 0.84110  0.72290  0.68120  Biso   1.000  H
  H71      1.0000 0.13850  0.35060  0.25690  Biso   1.000  H
  H72      1.0000 0.86150  0.64940  0.74310  Biso   1.000  H
  N13      1.0000 0.94460  0.12620  0.03971  Biso   1.000  N
  N14      1.0000 0.05540  0.87380  0.96029  Biso   1.000  N
  H73      1.0000 0.03900  0.14900  0.04400  Biso   1.000  H
  H74      1.0000 0.96100  0.85100  0.95600  Biso   1.000  H
  H75      1.0000 0.93700  0.06030  0.05300  Biso   1.000  H
  H76      1.0000 0.06300  0.93970  0.94700  Biso   1.000  H
  N15      1.0000 0.04230  0.62250  0.45174  Biso   1.000  N
  N16      1.0000 0.95770  0.37750  0.54826  Biso   1.000  N
  H77      1.0000 0.99200  0.58300  0.38740  Biso   1.000  H
  H78      1.0000 0.00800  0.41700  0.61260  Biso   1.000  H
  H79      1.0000 0.98100  0.66600  0.47500  Biso   1.000  H
  H80      1.0000 0.01900  0.33400  0.52500  Biso   1.000  H
  N17      1.0000 0.53110  0.13310  0.35780  Biso   1.000  N
  N18      1.0000 0.46890  0.86690  0.64220  Biso   1.000  N
  H81      1.0000 0.56200  0.20960  0.37400  Biso   1.000  H
  H82      1.0000 0.43800  0.79040  0.62600  Biso   1.000  H
  H83      1.0000 0.45100  0.12600  0.38000  Biso   1.000  H
  H84      1.0000 0.54900  0.87400  0.62000  Biso   1.000  H
  O1       1.0000 0.78880  0.91110  0.64790  Biso   1.000  O
  O2       1.0000 0.21120  0.08890  0.35210  Biso   1.000  O
  O3       1.0000 0.86180  0.75799  0.56868  Biso   1.000  O
  O4       1.0000 0.13820  0.24201  0.43132  Biso   1.000  O
  O5       1.0000 0.28578  0.60961  0.23491  Biso   1.000  O
  O6       1.0000 0.71422  0.39039  0.76509  Biso   1.000  O
  O7       1.0000 0.10569  0.49351  0.24962  Biso   1.000  O
  O8       1.0000 0.89431  0.50649  0.75038  Biso   1.000  O
  O9       1.0000 0.69880  0.84616  0.84442  Biso   1.000  O
  O10      1.0000 0.30120  0.15384  0.15558  Biso   1.000  O
  O11      1.0000 0.74197  0.78382  0.96904  Biso   1.000  O
  O12      1.0000 0.25803  0.21618  0.03096  Biso   1.000  O
  S1       1.0000 0.74680  0.78378  0.35812  Biso   1.000  S
  S2       1.0000 0.25320  0.21622  0.64188  Biso   1.000  S
  S3       1.0000 0.99385  0.72806  0.17030  Biso   1.000  S
  S4       1.0000 0.00615  0.27194  0.82970  Biso   1.000  S
  S5       1.0000 0.73215  0.96243  0.17287  Biso   1.000  S
  S6       1.0000 0.26785  0.03757  0.82713  Biso   1.000  S
  N19      1.0000 0.45670  0.38530  0.54470  Biso   1.000  N
  N20      1.0000 0.54330  0.61470  0.45530  Biso   1.000  N
  H85      1.0000 0.38400  0.37900  0.57400  Biso   1.000  H
  H86      1.0000 0.61600  0.62100  0.42600  Biso   1.000  H
  H87      1.0000 0.40900  0.34500  0.47800  Biso   1.000  H
  H88      1.0000 0.59100  0.65500  0.52200  Biso   1.000  H
  C43      1.0000 0.49900  0.49900  0.55310  Biso   1.000  C
  C44      1.0000 0.50100  0.50100  0.44690  Biso   1.000  C
  H89      1.0000 0.59580  0.53250  0.60050  Biso   1.000  H
  H90      1.0000 0.40420  0.46750  0.39950  Biso   1.000  H
  H91      1.0000 0.43030  0.54460  0.57740  Biso   1.000  H
  H92      1.0000 0.56970  0.45540  0.42260  Biso   1.000  H
  C45      1.0000 0.48600  0.46110  0.44700  Biso   1.000  C
  C46      1.0000 0.51400  0.53890  0.55300  Biso   1.000  C
  H93      1.0000 0.37200  0.32900  0.45100  Biso   1.000  H
  H94      1.0000 0.62800  0.67100  0.54900  Biso   1.000  H
  H95      1.0000 0.46000  0.29900  0.38500  Biso   1.000  H
  H96      1.0000 0.54000  0.70100  0.61500  Biso   1.000  H
  H97      1.0000 0.40150  0.47450  0.40380  Biso   1.000  H
  H98      1.0000 0.59850  0.52550  0.59620  Biso   1.000  H
  H99      1.0000 0.57100  0.47640  0.42330  Biso   1.000  H
  H100     1.0000 0.42900  0.52360  0.57670  Biso   1.000  H
  N21      1.0000 0.46200  0.34740  0.44540  Biso   1.000  N
  N22      1.0000 0.53800  0.65260  0.55460  Biso   1.000  N
