data_image0
_cell_length_a       18.2095
_cell_length_b       18.2095
_cell_length_c       16.0985
_cell_angle_alpha    90
_cell_angle_beta     90
_cell_angle_gamma    90

_symmetry_space_group_name_H-M    "P 1"
_symmetry_int_tables_number       1

loop_
  _symmetry_equiv_pos_as_xyz
  'x, y, z'

loop_
  _atom_site_label
  _atom_site_occupancy
  _atom_site_fract_x
  _atom_site_fract_y
  _atom_site_fract_z
  _atom_site_thermal_displace_type
  _atom_site_B_iso_or_equiv
  _atom_site_type_symbol
  N1       1.0000 0.26030  0.14820  0.00000  Biso   1.000  N
  N2       1.0000 0.26030  0.85180  0.50000  Biso   1.000  N
  N3       1.0000 0.73970  0.85180  0.00000  Biso   1.000  N
  N4       1.0000 0.73970  0.14820  0.50000  Biso   1.000  N
  N5       1.0000 0.14820  0.26030  0.50000  Biso   1.000  N
  N6       1.0000 0.14820  0.73970  0.00000  Biso   1.000  N
  N7       1.0000 0.85180  0.26030  0.00000  Biso   1.000  N
  N8       1.0000 0.85180  0.73970  0.50000  Biso   1.000  N
  N9       1.0000 0.29540  0.00990  0.00000  Biso   1.000  N
  N10      1.0000 0.29540  0.99010  0.50000  Biso   1.000  N
  N11      1.0000 0.70460  0.99010  0.00000  Biso   1.000  N
  N12      1.0000 0.70460  0.00990  0.50000  Biso   1.000  N
  N13      1.0000 0.00990  0.29540  0.50000  Biso   1.000  N
  N14      1.0000 0.00990  0.70460  0.00000  Biso   1.000  N
  N15      1.0000 0.99010  0.29540  0.00000  Biso   1.000  N
  N16      1.0000 0.99010  0.70460  0.50000  Biso   1.000  N
  N17      1.0000 0.22490  0.45440  0.18770  Biso   1.000  N
  N18      1.0000 0.22490  0.54560  0.31230  Biso   1.000  N
  N19      1.0000 0.77510  0.54560  0.18770  Biso   1.000  N
  N20      1.0000 0.77510  0.45440  0.31230  Biso   1.000  N
  N21      1.0000 0.45440  0.22490  0.31230  Biso   1.000  N
  N22      1.0000 0.45440  0.77510  0.18770  Biso   1.000  N
  N23      1.0000 0.54560  0.22490  0.18770  Biso   1.000  N
  N24      1.0000 0.54560  0.77510  0.31230  Biso   1.000  N
  N25      1.0000 0.77510  0.54560  0.81230  Biso   1.000  N
  N26      1.0000 0.77510  0.45440  0.68770  Biso   1.000  N
  N27      1.0000 0.22490  0.45440  0.81230  Biso   1.000  N
  N28      1.0000 0.22490  0.54560  0.68770  Biso   1.000  N
  N29      1.0000 0.54560  0.77510  0.68770  Biso   1.000  N
  N30      1.0000 0.54560  0.22490  0.81230  Biso   1.000  N
  N31      1.0000 0.45440  0.77510  0.81230  Biso   1.000  N
  N32      1.0000 0.45440  0.22490  0.68770  Biso   1.000  N
  C1       1.0000 0.21430  0.01980  0.00000  Biso   1.000  C
  C2       1.0000 0.21430  0.98020  0.50000  Biso   1.000  C
  C3       1.0000 0.78570  0.98020  0.00000  Biso   1.000  C
  C4       1.0000 0.78570  0.01980  0.50000  Biso   1.000  C
  C5       1.0000 0.01980  0.21430  0.50000  Biso   1.000  C
  C6       1.0000 0.01980  0.78570  0.00000  Biso   1.000  C
  C7       1.0000 0.98020  0.21430  0.00000  Biso   1.000  C
  C8       1.0000 0.98020  0.78570  0.50000  Biso   1.000  C
  H1       1.0000 0.19370  0.99620  0.04870  Biso   1.000  H
  H2       1.0000 0.19370  0.00380  0.45130  Biso   1.000  H
  H3       1.0000 0.80630  0.00380  0.04870  Biso   1.000  H
  H4       1.0000 0.80630  0.99620  0.45130  Biso   1.000  H
  H5       1.0000 0.99620  0.19370  0.45130  Biso   1.000  H
  H6       1.0000 0.99620  0.80630  0.04870  Biso   1.000  H
  H7       1.0000 0.00380  0.19370  0.04870  Biso   1.000  H
  H8       1.0000 0.00380  0.80630  0.45130  Biso   1.000  H
  H9       1.0000 0.80630  0.00380  0.95130  Biso   1.000  H
  H10      1.0000 0.80630  0.99620  0.54870  Biso   1.000  H
  H11      1.0000 0.19370  0.99620  0.95130  Biso   1.000  H
  H12      1.0000 0.19370  0.00380  0.54870  Biso   1.000  H
  H13      1.0000 0.00380  0.80630  0.54870  Biso   1.000  H
  H14      1.0000 0.00380  0.19370  0.95130  Biso   1.000  H
  H15      1.0000 0.99620  0.80630  0.95130  Biso   1.000  H
  H16      1.0000 0.99620  0.19370  0.54870  Biso   1.000  H
  C9       1.0000 0.19300  0.10110  0.00000  Biso   1.000  C
  C10      1.0000 0.19300  0.89890  0.50000  Biso   1.000  C
  C11      1.0000 0.80700  0.89890  0.00000  Biso   1.000  C
  C12      1.0000 0.80700  0.10110  0.50000  Biso   1.000  C
  C13      1.0000 0.10110  0.19300  0.50000  Biso   1.000  C
  C14      1.0000 0.10110  0.80700  0.00000  Biso   1.000  C
  C15      1.0000 0.89890  0.19300  0.00000  Biso   1.000  C
  C16      1.0000 0.89890  0.80700  0.50000  Biso   1.000  C
  H17      1.0000 0.16370  0.11190  0.95120  Biso   1.000  H
  H18      1.0000 0.16370  0.88810  0.54880  Biso   1.000  H
  H19      1.0000 0.83630  0.88810  0.95120  Biso   1.000  H
  H20      1.0000 0.83630  0.11190  0.54880  Biso   1.000  H
  H21      1.0000 0.11190  0.16370  0.54880  Biso   1.000  H
  H22      1.0000 0.11190  0.83630  0.95120  Biso   1.000  H
  H23      1.0000 0.88810  0.16370  0.95120  Biso   1.000  H
  H24      1.0000 0.88810  0.83630  0.54880  Biso   1.000  H
  H25      1.0000 0.83630  0.88810  0.04880  Biso   1.000  H
  H26      1.0000 0.83630  0.11190  0.45120  Biso   1.000  H
  H27      1.0000 0.16370  0.11190  0.04880  Biso   1.000  H
  H28      1.0000 0.16370  0.88810  0.45120  Biso   1.000  H
  H29      1.0000 0.88810  0.83630  0.45120  Biso   1.000  H
  H30      1.0000 0.88810  0.16370  0.04880  Biso   1.000  H
  H31      1.0000 0.11190  0.83630  0.04880  Biso   1.000  H
  H32      1.0000 0.11190  0.16370  0.45120  Biso   1.000  H
  C17      1.0000 0.25840  0.52510  0.16530  Biso   1.000  C
  C18      1.0000 0.25840  0.47490  0.33470  Biso   1.000  C
  C19      1.0000 0.74160  0.47490  0.16530  Biso   1.000  C
  C20      1.0000 0.74160  0.52510  0.33470  Biso   1.000  C
  C21      1.0000 0.52510  0.25840  0.33470  Biso   1.000  C
  C22      1.0000 0.52510  0.74160  0.16530  Biso   1.000  C
  C23      1.0000 0.47490  0.25840  0.16530  Biso   1.000  C
  C24      1.0000 0.47490  0.74160  0.33470  Biso   1.000  C
  C25      1.0000 0.74160  0.47490  0.83470  Biso   1.000  C
  C26      1.0000 0.74160  0.52510  0.66530  Biso   1.000  C
  C27      1.0000 0.25840  0.52510  0.83470  Biso   1.000  C
  C28      1.0000 0.25840  0.47490  0.66530  Biso   1.000  C
  C29      1.0000 0.47490  0.74160  0.66530  Biso   1.000  C
  C30      1.0000 0.47490  0.25840  0.83470  Biso   1.000  C
  C31      1.0000 0.52510  0.74160  0.83470  Biso   1.000  C
  C32      1.0000 0.52510  0.25840  0.66530  Biso   1.000  C
  H33      1.0000 0.22840  0.54930  0.12370  Biso   1.000  H
  H34      1.0000 0.22840  0.45070  0.37630  Biso   1.000  H
  H35      1.0000 0.77160  0.45070  0.12370  Biso   1.000  H
  H36      1.0000 0.77160  0.54930  0.37630  Biso   1.000  H
  H37      1.0000 0.54930  0.22840  0.37630  Biso   1.000  H
  H38      1.0000 0.54930  0.77160  0.12370  Biso   1.000  H
  H39      1.0000 0.45070  0.22840  0.12370  Biso   1.000  H
  H40      1.0000 0.45070  0.77160  0.37630  Biso   1.000  H
  H41      1.0000 0.77160  0.45070  0.87630  Biso   1.000  H
  H42      1.0000 0.77160  0.54930  0.62370  Biso   1.000  H
  H43      1.0000 0.22840  0.54930  0.87630  Biso   1.000  H
  H44      1.0000 0.22840  0.45070  0.62370  Biso   1.000  H
  H45      1.0000 0.45070  0.77160  0.62370  Biso   1.000  H
  H46      1.0000 0.45070  0.22840  0.87630  Biso   1.000  H
  H47      1.0000 0.54930  0.77160  0.87630  Biso   1.000  H
  H48      1.0000 0.54930  0.22840  0.62370  Biso   1.000  H
  H49      1.0000 0.30670  0.51660  0.14160  Biso   1.000  H
  H50      1.0000 0.30670  0.48340  0.35840  Biso   1.000  H
  H51      1.0000 0.69330  0.48340  0.14160  Biso   1.000  H
  H52      1.0000 0.69330  0.51660  0.35840  Biso   1.000  H
  H53      1.0000 0.51660  0.30670  0.35840  Biso   1.000  H
  H54      1.0000 0.51660  0.69330  0.14160  Biso   1.000  H
  H55      1.0000 0.48340  0.30670  0.14160  Biso   1.000  H
  H56      1.0000 0.48340  0.69330  0.35840  Biso   1.000  H
  H57      1.0000 0.69330  0.48340  0.85840  Biso   1.000  H
  H58      1.0000 0.69330  0.51660  0.64160  Biso   1.000  H
  H59      1.0000 0.30670  0.51660  0.85840  Biso   1.000  H
  H60      1.0000 0.30670  0.48340  0.64160  Biso   1.000  H
  H61      1.0000 0.48340  0.69330  0.64160  Biso   1.000  H
  H62      1.0000 0.48340  0.30670  0.85840  Biso   1.000  H
  H63      1.0000 0.51660  0.69330  0.85840  Biso   1.000  H
  H64      1.0000 0.51660  0.30670  0.64160  Biso   1.000  H
  C33      1.0000 0.32510  0.04740  0.07470  Biso   1.000  C
  C34      1.0000 0.32510  0.95260  0.42530  Biso   1.000  C
  C35      1.0000 0.67490  0.95260  0.07470  Biso   1.000  C
  C36      1.0000 0.67490  0.04740  0.42530  Biso   1.000  C
  C37      1.0000 0.04740  0.32510  0.42530  Biso   1.000  C
  C38      1.0000 0.04740  0.67490  0.07470  Biso   1.000  C
  C39      1.0000 0.95260  0.32510  0.07470  Biso   1.000  C
  C40      1.0000 0.95260  0.67490  0.42530  Biso   1.000  C
  C41      1.0000 0.67490  0.95260  0.92530  Biso   1.000  C
  C42      1.0000 0.67490  0.04740  0.57470  Biso   1.000  C
  C43      1.0000 0.32510  0.04740  0.92530  Biso   1.000  C
  C44      1.0000 0.32510  0.95260  0.57470  Biso   1.000  C
  C45      1.0000 0.95260  0.67490  0.57470  Biso   1.000  C
  C46      1.0000 0.95260  0.32510  0.92530  Biso   1.000  C
  C47      1.0000 0.04740  0.67490  0.92530  Biso   1.000  C
  C48      1.0000 0.04740  0.32510  0.57470  Biso   1.000  C
  H65      1.0000 0.37820  0.04280  0.07570  Biso   1.000  H
  H66      1.0000 0.37820  0.95720  0.42430  Biso   1.000  H
  H67      1.0000 0.62180  0.95720  0.07570  Biso   1.000  H
  H68      1.0000 0.62180  0.04280  0.42430  Biso   1.000  H
  H69      1.0000 0.04280  0.37820  0.42430  Biso   1.000  H
  H70      1.0000 0.04280  0.62180  0.07570  Biso   1.000  H
  H71      1.0000 0.95720  0.37820  0.07570  Biso   1.000  H
  H72      1.0000 0.95720  0.62180  0.42430  Biso   1.000  H
  H73      1.0000 0.62180  0.95720  0.92430  Biso   1.000  H
  H74      1.0000 0.62180  0.04280  0.57570  Biso   1.000  H
  H75      1.0000 0.37820  0.04280  0.92430  Biso   1.000  H
  H76      1.0000 0.37820  0.95720  0.57570  Biso   1.000  H
  H77      1.0000 0.95720  0.62180  0.57570  Biso   1.000  H
  H78      1.0000 0.95720  0.37820  0.92430  Biso   1.000  H
  H79      1.0000 0.04280  0.62180  0.92430  Biso   1.000  H
  H80      1.0000 0.04280  0.37820  0.57570  Biso   1.000  H
  H81      1.0000 0.30580  0.02420  0.12440  Biso   1.000  H
  H82      1.0000 0.30580  0.97580  0.37560  Biso   1.000  H
  H83      1.0000 0.69420  0.97580  0.12440  Biso   1.000  H
  H84      1.0000 0.69420  0.02420  0.37560  Biso   1.000  H
  H85      1.0000 0.02420  0.30580  0.37560  Biso   1.000  H
  H86      1.0000 0.02420  0.69420  0.12440  Biso   1.000  H
  H87      1.0000 0.97580  0.30580  0.12440  Biso   1.000  H
  H88      1.0000 0.97580  0.69420  0.37560  Biso   1.000  H
  H89      1.0000 0.69420  0.97580  0.87560  Biso   1.000  H
  H90      1.0000 0.69420  0.02420  0.62440  Biso   1.000  H
  H91      1.0000 0.30580  0.02420  0.87560  Biso   1.000  H
  H92      1.0000 0.30580  0.97580  0.62440  Biso   1.000  H
  H93      1.0000 0.97580  0.69420  0.62440  Biso   1.000  H
  H94      1.0000 0.97580  0.30580  0.87560  Biso   1.000  H
  H95      1.0000 0.02420  0.69420  0.87560  Biso   1.000  H
  H96      1.0000 0.02420  0.30580  0.62440  Biso   1.000  H
  C49      1.0000 0.14980  0.46890  0.21880  Biso   1.000  C
  C50      1.0000 0.14980  0.53110  0.28120  Biso   1.000  C
  C51      1.0000 0.85020  0.53110  0.21880  Biso   1.000  C
  C52      1.0000 0.85020  0.46890  0.28120  Biso   1.000  C
  C53      1.0000 0.46890  0.14980  0.28120  Biso   1.000  C
  C54      1.0000 0.46890  0.85020  0.21880  Biso   1.000  C
  C55      1.0000 0.53110  0.14980  0.21880  Biso   1.000  C
  C56      1.0000 0.53110  0.85020  0.28120  Biso   1.000  C
  C57      1.0000 0.85020  0.53110  0.78120  Biso   1.000  C
  C58      1.0000 0.85020  0.46890  0.71880  Biso   1.000  C
  C59      1.0000 0.14980  0.46890  0.78120  Biso   1.000  C
  C60      1.0000 0.14980  0.53110  0.71880  Biso   1.000  C
  C61      1.0000 0.53110  0.85020  0.71880  Biso   1.000  C
  C62      1.0000 0.53110  0.14980  0.78120  Biso   1.000  C
  C63      1.0000 0.46890  0.85020  0.78120  Biso   1.000  C
  C64      1.0000 0.46890  0.14980  0.71880  Biso   1.000  C
  H97      1.0000 0.13050  0.42480  0.24470  Biso   1.000  H
  H98      1.0000 0.13050  0.57520  0.25530  Biso   1.000  H
  H99      1.0000 0.86950  0.57520  0.24470  Biso   1.000  H
  H100     1.0000 0.86950  0.42480  0.25530  Biso   1.000  H
  H101     1.0000 0.42480  0.13050  0.25530  Biso   1.000  H
  H102     1.0000 0.42480  0.86950  0.24470  Biso   1.000  H
  H103     1.0000 0.57520  0.13050  0.24470  Biso   1.000  H
  H104     1.0000 0.57520  0.86950  0.25530  Biso   1.000  H
  H105     1.0000 0.86950  0.57520  0.75530  Biso   1.000  H
  H106     1.0000 0.86950  0.42480  0.74470  Biso   1.000  H
  H107     1.0000 0.13050  0.42480  0.75530  Biso   1.000  H
  H108     1.0000 0.13050  0.57520  0.74470  Biso   1.000  H
  H109     1.0000 0.57520  0.86950  0.74470  Biso   1.000  H
  H110     1.0000 0.57520  0.13050  0.75530  Biso   1.000  H
  H111     1.0000 0.42480  0.86950  0.75530  Biso   1.000  H
  H112     1.0000 0.42480  0.13050  0.74470  Biso   1.000  H
  H113     1.0000 0.11810  0.48140  0.17250  Biso   1.000  H
  H114     1.0000 0.11810  0.51860  0.32750  Biso   1.000  H
  H115     1.0000 0.88190  0.51860  0.17250  Biso   1.000  H
  H116     1.0000 0.88190  0.48140  0.32750  Biso   1.000  H
  H117     1.0000 0.48140  0.11810  0.32750  Biso   1.000  H
  H118     1.0000 0.48140  0.88190  0.17250  Biso   1.000  H
  H119     1.0000 0.51860  0.11810  0.17250  Biso   1.000  H
  H120     1.0000 0.51860  0.88190  0.32750  Biso   1.000  H
  H121     1.0000 0.88190  0.51860  0.82750  Biso   1.000  H
  H122     1.0000 0.88190  0.48140  0.67250  Biso   1.000  H
  H123     1.0000 0.11810  0.48140  0.82750  Biso   1.000  H
  H124     1.0000 0.11810  0.51860  0.67250  Biso   1.000  H
  H125     1.0000 0.51860  0.88190  0.67250  Biso   1.000  H
  H126     1.0000 0.51860  0.11810  0.82750  Biso   1.000  H
  H127     1.0000 0.48140  0.88190  0.82750  Biso   1.000  H
  H128     1.0000 0.48140  0.11810  0.67250  Biso   1.000  H
  C65      1.0000 0.30360  0.12950  0.07400  Biso   1.000  C
  C66      1.0000 0.30360  0.87050  0.42600  Biso   1.000  C
  C67      1.0000 0.69640  0.87050  0.07400  Biso   1.000  C
  C68      1.0000 0.69640  0.12950  0.42600  Biso   1.000  C
  C69      1.0000 0.12950  0.30360  0.42600  Biso   1.000  C
  C70      1.0000 0.12950  0.69640  0.07400  Biso   1.000  C
  C71      1.0000 0.87050  0.30360  0.07400  Biso   1.000  C
  C72      1.0000 0.87050  0.69640  0.42600  Biso   1.000  C
  C73      1.0000 0.69640  0.87050  0.92600  Biso   1.000  C
  C74      1.0000 0.69640  0.12950  0.57400  Biso   1.000  C
  C75      1.0000 0.30360  0.12950  0.92600  Biso   1.000  C
  C76      1.0000 0.30360  0.87050  0.57400  Biso   1.000  C
  C77      1.0000 0.87050  0.69640  0.57400  Biso   1.000  C
  C78      1.0000 0.87050  0.30360  0.92600  Biso   1.000  C
  C79      1.0000 0.12950  0.69640  0.92600  Biso   1.000  C
  C80      1.0000 0.12950  0.30360  0.57400  Biso   1.000  C
  H129     1.0000 0.27530  0.14070  0.12340  Biso   1.000  H
  H130     1.0000 0.27530  0.85930  0.37660  Biso   1.000  H
  H131     1.0000 0.72470  0.85930  0.12340  Biso   1.000  H
  H132     1.0000 0.72470  0.14070  0.37660  Biso   1.000  H
  H133     1.0000 0.14070  0.27530  0.37660  Biso   1.000  H
  H134     1.0000 0.14070  0.72470  0.12340  Biso   1.000  H
  H135     1.0000 0.85930  0.27530  0.12340  Biso   1.000  H
  H136     1.0000 0.85930  0.72470  0.37660  Biso   1.000  H
  H137     1.0000 0.72470  0.85930  0.87660  Biso   1.000  H
  H138     1.0000 0.72470  0.14070  0.62340  Biso   1.000  H
  H139     1.0000 0.27530  0.14070  0.87660  Biso   1.000  H
  H140     1.0000 0.27530  0.85930  0.62340  Biso   1.000  H
  H141     1.0000 0.85930  0.72470  0.62340  Biso   1.000  H
  H142     1.0000 0.85930  0.27530  0.87660  Biso   1.000  H
  H143     1.0000 0.14070  0.72470  0.87660  Biso   1.000  H
  H144     1.0000 0.14070  0.27530  0.62340  Biso   1.000  H
  H145     1.0000 0.34780  0.15930  0.07520  Biso   1.000  H
  H146     1.0000 0.34780  0.84070  0.42480  Biso   1.000  H
  H147     1.0000 0.65220  0.84070  0.07520  Biso   1.000  H
  H148     1.0000 0.65220  0.15930  0.42480  Biso   1.000  H
  H149     1.0000 0.15930  0.34780  0.42480  Biso   1.000  H
  H150     1.0000 0.15930  0.65220  0.07520  Biso   1.000  H
  H151     1.0000 0.84070  0.34780  0.07520  Biso   1.000  H
  H152     1.0000 0.84070  0.65220  0.42480  Biso   1.000  H
  H153     1.0000 0.65220  0.84070  0.92480  Biso   1.000  H
  H154     1.0000 0.65220  0.15930  0.57520  Biso   1.000  H
  H155     1.0000 0.34780  0.15930  0.92480  Biso   1.000  H
  H156     1.0000 0.34780  0.84070  0.57520  Biso   1.000  H
  H157     1.0000 0.84070  0.65220  0.57520  Biso   1.000  H
  H158     1.0000 0.84070  0.34780  0.92480  Biso   1.000  H
  H159     1.0000 0.15930  0.65220  0.92480  Biso   1.000  H
  H160     1.0000 0.15930  0.34780  0.57520  Biso   1.000  H
  C81      1.0000 0.26550  0.42500  0.25770  Biso   1.000  C
  C82      1.0000 0.26550  0.57500  0.24230  Biso   1.000  C
  C83      1.0000 0.73450  0.57500  0.25770  Biso   1.000  C
  C84      1.0000 0.73450  0.42500  0.24230  Biso   1.000  C
  C85      1.0000 0.42500  0.26550  0.24230  Biso   1.000  C
  C86      1.0000 0.42500  0.73450  0.25770  Biso   1.000  C
  C87      1.0000 0.57500  0.26550  0.25770  Biso   1.000  C
  C88      1.0000 0.57500  0.73450  0.24230  Biso   1.000  C
  C89      1.0000 0.73450  0.57500  0.74230  Biso   1.000  C
  C90      1.0000 0.73450  0.42500  0.75770  Biso   1.000  C
  C91      1.0000 0.26550  0.42500  0.74230  Biso   1.000  C
  C92      1.0000 0.26550  0.57500  0.75770  Biso   1.000  C
  C93      1.0000 0.57500  0.73450  0.75770  Biso   1.000  C
  C94      1.0000 0.57500  0.26550  0.74230  Biso   1.000  C
  C95      1.0000 0.42500  0.73450  0.74230  Biso   1.000  C
  C96      1.0000 0.42500  0.26550  0.75770  Biso   1.000  C
  H161     1.0000 0.31690  0.42040  0.24280  Biso   1.000  H
  H162     1.0000 0.31690  0.57960  0.25720  Biso   1.000  H
  H163     1.0000 0.68310  0.57960  0.24280  Biso   1.000  H
  H164     1.0000 0.68310  0.42040  0.25720  Biso   1.000  H
  H165     1.0000 0.42040  0.31690  0.25720  Biso   1.000  H
  H166     1.0000 0.42040  0.68310  0.24280  Biso   1.000  H
  H167     1.0000 0.57960  0.31690  0.24280  Biso   1.000  H
  H168     1.0000 0.57960  0.68310  0.25720  Biso   1.000  H
  H169     1.0000 0.68310  0.57960  0.75720  Biso   1.000  H
  H170     1.0000 0.68310  0.42040  0.74280  Biso   1.000  H
  H171     1.0000 0.31690  0.42040  0.75720  Biso   1.000  H
  H172     1.0000 0.31690  0.57960  0.74280  Biso   1.000  H
  H173     1.0000 0.57960  0.68310  0.74280  Biso   1.000  H
  H174     1.0000 0.57960  0.31690  0.75720  Biso   1.000  H
  H175     1.0000 0.42040  0.68310  0.75720  Biso   1.000  H
  H176     1.0000 0.42040  0.31690  0.74280  Biso   1.000  H
  H177     1.0000 0.24710  0.37650  0.27100  Biso   1.000  H
  H178     1.0000 0.24710  0.62350  0.22900  Biso   1.000  H
  H179     1.0000 0.75290  0.62350  0.27100  Biso   1.000  H
  H180     1.0000 0.75290  0.37650  0.22900  Biso   1.000  H
  H181     1.0000 0.37650  0.24710  0.22900  Biso   1.000  H
  H182     1.0000 0.37650  0.75290  0.27100  Biso   1.000  H
  H183     1.0000 0.62350  0.24710  0.27100  Biso   1.000  H
  H184     1.0000 0.62350  0.75290  0.22900  Biso   1.000  H
  H185     1.0000 0.75290  0.62350  0.72900  Biso   1.000  H
  H186     1.0000 0.75290  0.37650  0.77100  Biso   1.000  H
  H187     1.0000 0.24710  0.37650  0.72900  Biso   1.000  H
  H188     1.0000 0.24710  0.62350  0.77100  Biso   1.000  H
  H189     1.0000 0.62350  0.75290  0.77100  Biso   1.000  H
  H190     1.0000 0.62350  0.24710  0.72900  Biso   1.000  H
  H191     1.0000 0.37650  0.75290  0.72900  Biso   1.000  H
  H192     1.0000 0.37650  0.24710  0.77100  Biso   1.000  H
  I1       1.0000 0.11118  0.46567  0.00000  Biso   1.000  I
  I2       1.0000 0.11118  0.53433  0.50000  Biso   1.000  I
  I3       1.0000 0.88882  0.53433  0.00000  Biso   1.000  I
  I4       1.0000 0.88882  0.46567  0.50000  Biso   1.000  I
  I5       1.0000 0.46567  0.11118  0.50000  Biso   1.000  I
  I6       1.0000 0.46567  0.88882  0.00000  Biso   1.000  I
  I7       1.0000 0.53433  0.11118  0.00000  Biso   1.000  I
  I8       1.0000 0.53433  0.88882  0.50000  Biso   1.000  I
  I9       1.0000 0.15147  0.26530  0.14456  Biso   1.000  I
  I10      1.0000 0.15147  0.73470  0.35544  Biso   1.000  I
  I11      1.0000 0.84853  0.73470  0.14456  Biso   1.000  I
  I12      1.0000 0.84853  0.26530  0.35544  Biso   1.000  I
  I13      1.0000 0.26530  0.15147  0.35544  Biso   1.000  I
  I14      1.0000 0.26530  0.84853  0.14456  Biso   1.000  I
  I15      1.0000 0.73470  0.15147  0.14456  Biso   1.000  I
  I16      1.0000 0.73470  0.84853  0.35544  Biso   1.000  I
  I17      1.0000 0.84853  0.73470  0.85544  Biso   1.000  I
  I18      1.0000 0.84853  0.26530  0.64456  Biso   1.000  I
  I19      1.0000 0.15147  0.26530  0.85544  Biso   1.000  I
  I20      1.0000 0.15147  0.73470  0.64456  Biso   1.000  I
  I21      1.0000 0.73470  0.84853  0.64456  Biso   1.000  I
  I22      1.0000 0.73470  0.15147  0.85544  Biso   1.000  I
  I23      1.0000 0.26530  0.84853  0.85544  Biso   1.000  I
  I24      1.0000 0.26530  0.15147  0.64456  Biso   1.000  I
  I25      1.0000 0.33702  0.35833  0.00000  Biso   1.000  I
  I26      1.0000 0.33702  0.64167  0.50000  Biso   1.000  I
  I27      1.0000 0.66298  0.64167  0.00000  Biso   1.000  I
  I28      1.0000 0.66298  0.35833  0.50000  Biso   1.000  I
  I29      1.0000 0.35833  0.33702  0.50000  Biso   1.000  I
  I30      1.0000 0.35833  0.66298  0.00000  Biso   1.000  I
  I31      1.0000 0.64167  0.33702  0.00000  Biso   1.000  I
  I32      1.0000 0.64167  0.66298  0.50000  Biso   1.000  I
  Cu1      1.0000 0.10134  0.32099  0.00000  Biso   1.000  Cu
  Cu2      1.0000 0.10134  0.67901  0.50000  Biso   1.000  Cu
  Cu3      1.0000 0.89866  0.67901  0.00000  Biso   1.000  Cu
  Cu4      1.0000 0.89866  0.32099  0.50000  Biso   1.000  Cu
  Cu5      1.0000 0.32099  0.10134  0.50000  Biso   1.000  Cu
  Cu6      1.0000 0.32099  0.89866  0.00000  Biso   1.000  Cu
  Cu7      1.0000 0.67901  0.10134  0.00000  Biso   1.000  Cu
  Cu8      1.0000 0.67901  0.89866  0.50000  Biso   1.000  Cu
  Cu9      1.0000 0.22911  0.25812  0.00000  Biso   1.000  Cu
  Cu10     1.0000 0.22911  0.74188  0.50000  Biso   1.000  Cu
  Cu11     1.0000 0.77089  0.74188  0.00000  Biso   1.000  Cu
  Cu12     1.0000 0.77089  0.25812  0.50000  Biso   1.000  Cu
  Cu13     1.0000 0.25812  0.22911  0.50000  Biso   1.000  Cu
  Cu14     1.0000 0.25812  0.77089  0.00000  Biso   1.000  Cu
  Cu15     1.0000 0.74188  0.22911  0.00000  Biso   1.000  Cu
  Cu16     1.0000 0.74188  0.77089  0.50000  Biso   1.000  Cu
  Cu17     1.0000 0.21480  0.38572  0.08372  Biso   1.000  Cu
  Cu18     1.0000 0.21480  0.61428  0.41628  Biso   1.000  Cu
  Cu19     1.0000 0.78520  0.61428  0.08372  Biso   1.000  Cu
  Cu20     1.0000 0.78520  0.38572  0.41628  Biso   1.000  Cu
  Cu21     1.0000 0.38572  0.21480  0.41628  Biso   1.000  Cu
  Cu22     1.0000 0.38572  0.78520  0.08372  Biso   1.000  Cu
  Cu23     1.0000 0.61428  0.21480  0.08372  Biso   1.000  Cu
  Cu24     1.0000 0.61428  0.78520  0.41628  Biso   1.000  Cu
  Cu25     1.0000 0.78520  0.61428  0.91628  Biso   1.000  Cu
  Cu26     1.0000 0.78520  0.38572  0.58372  Biso   1.000  Cu
  Cu27     1.0000 0.21480  0.38572  0.91628  Biso   1.000  Cu
  Cu28     1.0000 0.21480  0.61428  0.58372  Biso   1.000  Cu
  Cu29     1.0000 0.61428  0.78520  0.58372  Biso   1.000  Cu
  Cu30     1.0000 0.61428  0.21480  0.91628  Biso   1.000  Cu
  Cu31     1.0000 0.38572  0.78520  0.91628  Biso   1.000  Cu
  Cu32     1.0000 0.38572  0.21480  0.58372  Biso   1.000  Cu
