data_image0
_cell_length_a       6.8284
_cell_length_b       9.3054
_cell_length_c       16.1576
_cell_angle_alpha    90
_cell_angle_beta     90
_cell_angle_gamma    90

_symmetry_space_group_name_H-M    "P 1"
_symmetry_int_tables_number       1

loop_
  _symmetry_equiv_pos_as_xyz
  'x, y, z'

loop_
  _atom_site_label
  _atom_site_occupancy
  _atom_site_fract_x
  _atom_site_fract_y
  _atom_site_fract_z
  _atom_site_thermal_displace_type
  _atom_site_B_iso_or_equiv
  _atom_site_type_symbol
  Cu1      1.0000 0.44510  0.83742  0.44981  Biso   1.000  Cu
  Cu2      1.0000 0.05490  0.16258  0.94981  Biso   1.000  Cu
  Cu3      1.0000 0.94510  0.66258  0.55019  Biso   1.000  Cu
  Cu4      1.0000 0.55490  0.33742  0.05019  Biso   1.000  Cu
  S1       1.0000 0.80188  0.83515  0.47124  Biso   1.000  S
  S2       1.0000 0.69812  0.16485  0.97124  Biso   1.000  S
  S3       1.0000 0.30188  0.66485  0.52876  Biso   1.000  S
  S4       1.0000 0.19812  0.33515  0.02876  Biso   1.000  S
  C1       1.0000 0.31310  0.02570  0.49120  Biso   1.000  C
  C2       1.0000 0.18690  0.97430  0.99120  Biso   1.000  C
  C3       1.0000 0.81310  0.47430  0.50880  Biso   1.000  C
  C4       1.0000 0.68690  0.52570  0.00880  Biso   1.000  C
  H1       1.0000 0.34570  0.03940  0.54660  Biso   1.000  H
  H2       1.0000 0.15430  0.96060  0.04660  Biso   1.000  H
  H3       1.0000 0.84570  0.46060  0.45340  Biso   1.000  H
  H4       1.0000 0.65430  0.53940  0.95340  Biso   1.000  H
  H5       1.0000 0.19290  0.98540  0.47720  Biso   1.000  H
  H6       1.0000 0.30710  0.01460  0.97720  Biso   1.000  H
  H7       1.0000 0.69290  0.51460  0.52280  Biso   1.000  H
  H8       1.0000 0.80710  0.48540  0.02280  Biso   1.000  H
  C5       1.0000 0.43930  0.06410  0.43170  Biso   1.000  C
  C6       1.0000 0.06070  0.93590  0.93170  Biso   1.000  C
  C7       1.0000 0.93930  0.43590  0.56830  Biso   1.000  C
  C8       1.0000 0.56070  0.56410  0.06830  Biso   1.000  C
  H9       1.0000 0.40270  0.04910  0.37690  Biso   1.000  H
  H10      1.0000 0.09730  0.95090  0.87690  Biso   1.000  H
  H11      1.0000 0.90270  0.45090  0.62310  Biso   1.000  H
  H12      1.0000 0.59730  0.54910  0.12310  Biso   1.000  H
  C9       1.0000 0.63760  0.13020  0.44830  Biso   1.000  C
  C10      1.0000 0.86240  0.86980  0.94830  Biso   1.000  C
  C11      1.0000 0.13760  0.36980  0.55170  Biso   1.000  C
  C12      1.0000 0.36240  0.63020  0.05170  Biso   1.000  C
  H13      1.0000 0.72830  0.09830  0.40590  Biso   1.000  H
  H14      1.0000 0.77170  0.90170  0.90590  Biso   1.000  H
  H15      1.0000 0.22830  0.40170  0.59410  Biso   1.000  H
  H16      1.0000 0.27170  0.59830  0.09410  Biso   1.000  H
  H17      1.0000 0.62650  0.23380  0.44400  Biso   1.000  H
  H18      1.0000 0.87350  0.76620  0.94400  Biso   1.000  H
  H19      1.0000 0.12650  0.26620  0.55600  Biso   1.000  H
  H20      1.0000 0.37350  0.73380  0.05600  Biso   1.000  H
  N1       1.0000 0.71820  0.09390  0.52940  Biso   1.000  N
  N2       1.0000 0.78180  0.90610  0.02940  Biso   1.000  N
  N3       1.0000 0.21820  0.40610  0.47060  Biso   1.000  N
  N4       1.0000 0.28180  0.59390  0.97060  Biso   1.000  N
  H21      1.0000 0.71840  0.15860  0.56740  Biso   1.000  H
  H22      1.0000 0.78160  0.84140  0.06740  Biso   1.000  H
  H23      1.0000 0.21840  0.34140  0.43260  Biso   1.000  H
  H24      1.0000 0.28160  0.65860  0.93260  Biso   1.000  H
  C13      1.0000 0.79090  0.96520  0.54660  Biso   1.000  C
  C14      1.0000 0.70910  0.03480  0.04660  Biso   1.000  C
  C15      1.0000 0.29090  0.53480  0.45340  Biso   1.000  C
  C16      1.0000 0.20910  0.46520  0.95340  Biso   1.000  C
  N5       1.0000 0.85370  0.94150  0.62300  Biso   1.000  N
  N6       1.0000 0.64630  0.05850  0.12300  Biso   1.000  N
  N7       1.0000 0.35370  0.55850  0.37700  Biso   1.000  N
  N8       1.0000 0.14630  0.44150  0.87700  Biso   1.000  N
  H25      1.0000 0.85480  0.01140  0.65790  Biso   1.000  H
  H26      1.0000 0.64520  0.98860  0.15790  Biso   1.000  H
  H27      1.0000 0.35480  0.48860  0.34210  Biso   1.000  H
  H28      1.0000 0.14520  0.51140  0.84210  Biso   1.000  H
  N9       1.0000 0.91910  0.80430  0.64874  Biso   1.000  N
  N10      1.0000 0.58090  0.19570  0.14874  Biso   1.000  N
  N11      1.0000 0.41910  0.69570  0.35126  Biso   1.000  N
  N12      1.0000 0.08090  0.30430  0.85126  Biso   1.000  N
  H29      1.0000 0.83400  0.76820  0.68580  Biso   1.000  H
  H30      1.0000 0.66600  0.23180  0.18580  Biso   1.000  H
  H31      1.0000 0.33400  0.73180  0.31420  Biso   1.000  H
  H32      1.0000 0.16600  0.26820  0.81420  Biso   1.000  H
  H33      1.0000 0.03610  0.81330  0.67390  Biso   1.000  H
  H34      1.0000 0.46390  0.18670  0.17390  Biso   1.000  H
  H35      1.0000 0.53610  0.68670  0.32610  Biso   1.000  H
  H36      1.0000 0.96390  0.31330  0.82610  Biso   1.000  H
  S5       1.0000 0.88176  0.75493  0.24075  Biso   1.000  S
  S6       1.0000 0.61824  0.24507  0.74075  Biso   1.000  S
  S7       1.0000 0.38176  0.74507  0.75925  Biso   1.000  S
  S8       1.0000 0.11824  0.25493  0.25925  Biso   1.000  S
  O1       1.0000 0.85500  0.63280  0.29530  Biso   1.000  O
  O2       1.0000 0.64500  0.36720  0.79530  Biso   1.000  O
  O3       1.0000 0.35500  0.86720  0.70470  Biso   1.000  O
  O4       1.0000 0.14500  0.13280  0.20470  Biso   1.000  O
  O5       1.0000 0.95750  0.72070  0.15895  Biso   1.000  O
  O6       1.0000 0.54250  0.27930  0.65895  Biso   1.000  O
  O7       1.0000 0.45750  0.77930  0.84105  Biso   1.000  O
  O8       1.0000 0.04250  0.22070  0.34105  Biso   1.000  O
  O9       1.0000 0.70190  0.83980  0.23580  Biso   1.000  O
  O10      1.0000 0.79810  0.16020  0.73580  Biso   1.000  O
  O11      1.0000 0.20190  0.66020  0.76420  Biso   1.000  O
  O12      1.0000 0.29810  0.33980  0.26420  Biso   1.000  O
  N13      1.0000 0.05620  0.85110  0.28420  Biso   1.000  N
  N14      1.0000 0.44380  0.14890  0.78420  Biso   1.000  N
  N15      1.0000 0.55620  0.64890  0.71580  Biso   1.000  N
  N16      1.0000 0.94380  0.35110  0.21580  Biso   1.000  N
  H37      1.0000 0.01100  0.86300  0.32600  Biso   1.000  H
  H38      1.0000 0.48900  0.13700  0.82600  Biso   1.000  H
  H39      1.0000 0.51100  0.63700  0.67400  Biso   1.000  H
  H40      1.0000 0.98900  0.36300  0.17400  Biso   1.000  H
  H41      1.0000 0.08300  0.94200  0.25100  Biso   1.000  H
  H42      1.0000 0.41700  0.05800  0.75100  Biso   1.000  H
  H43      1.0000 0.58300  0.55800  0.74900  Biso   1.000  H
  H44      1.0000 0.91700  0.44200  0.24900  Biso   1.000  H
