data_image0
_cell_length_a       9.526
_cell_length_b       12.687
_cell_length_c       14.734
_cell_angle_alpha    95.119
_cell_angle_beta     89.903
_cell_angle_gamma    109.113

_symmetry_space_group_name_H-M    "P 1"
_symmetry_int_tables_number       1

loop_
  _symmetry_equiv_pos_as_xyz
  'x, y, z'

loop_
  _atom_site_label
  _atom_site_occupancy
  _atom_site_fract_x
  _atom_site_fract_y
  _atom_site_fract_z
  _atom_site_thermal_displace_type
  _atom_site_B_iso_or_equiv
  _atom_site_type_symbol
  Cu1      1.0000 0.38972  0.18313  0.50154  Biso   1.000  Cu
  Cu2      1.0000 0.61028  0.81687  0.49846  Biso   1.000  Cu
  S1       1.0000 0.13660  0.18353  0.54988  Biso   1.000  S
  S2       1.0000 0.86340  0.81647  0.45012  Biso   1.000  S
  C1       1.0000 0.48750  0.10860  0.59410  Biso   1.000  C
  C2       1.0000 0.51250  0.89140  0.40590  Biso   1.000  C
  H1       1.0000 0.42080  0.03940  0.60570  Biso   1.000  H
  H2       1.0000 0.57920  0.96060  0.39430  Biso   1.000  H
  H3       1.0000 0.56330  0.11230  0.55340  Biso   1.000  H
  H4       1.0000 0.43670  0.88770  0.44660  Biso   1.000  H
  C3       1.0000 0.47410  0.20490  0.63670  Biso   1.000  C
  C4       1.0000 0.52590  0.79510  0.36330  Biso   1.000  C
  H5       1.0000 0.54180  0.27330  0.62420  Biso   1.000  H
  H6       1.0000 0.45820  0.72670  0.37580  Biso   1.000  H
  C5       1.0000 0.35370  0.20390  0.70310  Biso   1.000  C
  C6       1.0000 0.64630  0.79610  0.29690  Biso   1.000  C
  H7       1.0000 0.27330  0.13320  0.69210  Biso   1.000  H
  H8       1.0000 0.72670  0.86680  0.30790  Biso   1.000  H
  H9       1.0000 0.39320  0.20790  0.76440  Biso   1.000  H
  H10      1.0000 0.60680  0.79210  0.23560  Biso   1.000  H
  N1       1.0000 0.29440  0.29400  0.69790  Biso   1.000  N
  N2       1.0000 0.70560  0.70600  0.30210  Biso   1.000  N
  H11      1.0000 0.32150  0.34950  0.73930  Biso   1.000  H
  H12      1.0000 0.67850  0.65050  0.26070  Biso   1.000  H
  C7       1.0000 0.20010  0.29570  0.63250  Biso   1.000  C
  C8       1.0000 0.79990  0.70430  0.36750  Biso   1.000  C
  N3       1.0000 0.15430  0.38310  0.63480  Biso   1.000  N
  N4       1.0000 0.84570  0.61690  0.36520  Biso   1.000  N
  H13      1.0000 0.18340  0.43390  0.67990  Biso   1.000  H
  H14      1.0000 0.81660  0.56610  0.32010  Biso   1.000  H
  N5       1.0000 0.05960  0.39750  0.56690  Biso   1.000  N
  N6       1.0000 0.94040  0.60250  0.43310  Biso   1.000  N
  H15      1.0000 0.10530  0.46120  0.54120  Biso   1.000  H
  H16      1.0000 0.89470  0.53880  0.45880  Biso   1.000  H
  H17      1.0000 0.97630  0.40340  0.59240  Biso   1.000  H
  H18      1.0000 0.02370  0.59660  0.40760  Biso   1.000  H
  Cu3      1.0000 0.00557  0.26614  0.46981  Biso   1.000  Cu
  Cu4      1.0000 0.99443  0.73386  0.53019  Biso   1.000  Cu
  S3       1.0000 0.87390  0.10666  0.08153  Biso   1.000  S
  S4       1.0000 0.12610  0.89334  0.91847  Biso   1.000  S
  C9       1.0000 0.81630  0.23970  0.39360  Biso   1.000  C
  C10      1.0000 0.18370  0.76030  0.60640  Biso   1.000  C
  H19      1.0000 0.83030  0.29450  0.35330  Biso   1.000  H
  H20      1.0000 0.16970  0.70550  0.64670  Biso   1.000  H
  H21      1.0000 0.76700  0.24450  0.44750  Biso   1.000  H
  H22      1.0000 0.23300  0.75550  0.55250  Biso   1.000  H
  C11      1.0000 0.86800  0.15250  0.37350  Biso   1.000  C
  C12      1.0000 0.13200  0.84750  0.62650  Biso   1.000  C
  H23      1.0000 0.85250  0.09890  0.41490  Biso   1.000  H
  H24      1.0000 0.14750  0.90110  0.58510  Biso   1.000  H
  C13      1.0000 0.94870  0.13790  0.28810  Biso   1.000  C
  C14      1.0000 0.05130  0.86210  0.71190  Biso   1.000  C
  H25      1.0000 0.04010  0.12540  0.30460  Biso   1.000  H
  H26      1.0000 0.95990  0.87460  0.69540  Biso   1.000  H
  H27      1.0000 0.88780  0.07180  0.25100  Biso   1.000  H
  H28      1.0000 0.11220  0.92820  0.74900  Biso   1.000  H
  N7       1.0000 0.98400  0.23160  0.23500  Biso   1.000  N
  N8       1.0000 0.01600  0.76840  0.76500  Biso   1.000  N
  H29      1.0000 0.02670  0.29660  0.26340  Biso   1.000  H
  H30      1.0000 0.97330  0.70340  0.73660  Biso   1.000  H
  C15      1.0000 0.95740  0.22840  0.14640  Biso   1.000  C
  C16      1.0000 0.04260  0.77160  0.85360  Biso   1.000  C
  N9       1.0000 0.00500  0.32850  0.11270  Biso   1.000  N
  N10      1.0000 0.99500  0.67150  0.88730  Biso   1.000  N
  H31      1.0000 0.05730  0.38670  0.14670  Biso   1.000  H
  H32      1.0000 0.94270  0.61330  0.85330  Biso   1.000  H
  N11      1.0000 0.96900  0.33850  0.02050  Biso   1.000  N
  N12      1.0000 0.03100  0.66150  0.97950  Biso   1.000  N
  H33      1.0000 0.05080  0.38070  0.99400  Biso   1.000  H
  H34      1.0000 0.94920  0.61930  0.00600  Biso   1.000  H
  H35      1.0000 0.90030  0.37310  0.01970  Biso   1.000  H
  H36      1.0000 0.09970  0.62690  0.98030  Biso   1.000  H
  Cu5      1.0000 0.88779  0.18282  0.94785  Biso   1.000  Cu
  Cu6      1.0000 0.11221  0.81718  0.05215  Biso   1.000  Cu
  S5       1.0000 0.63120  0.18436  0.90102  Biso   1.000  S
  S6       1.0000 0.36880  0.81564  0.09898  Biso   1.000  S
  C17      1.0000 0.96420  0.09990  0.84080  Biso   1.000  C
  C18      1.0000 0.03580  0.90010  0.15920  Biso   1.000  C
  H37      1.0000 0.89130  0.03390  0.81830  Biso   1.000  H
  H38      1.0000 0.10870  0.96610  0.18170  Biso   1.000  H
  H39      1.0000 0.03760  0.09770  0.88140  Biso   1.000  H
  H40      1.0000 0.96240  0.90230  0.11860  Biso   1.000  H
  C19      1.0000 0.96360  0.19860  0.81460  Biso   1.000  C
  C20      1.0000 0.03640  0.80140  0.18540  Biso   1.000  C
  H41      1.0000 0.03690  0.26420  0.83750  Biso   1.000  H
  H42      1.0000 0.96310  0.73580  0.16250  Biso   1.000  H
  C21      1.0000 0.84590  0.20460  0.74870  Biso   1.000  C
  C22      1.0000 0.15410  0.79540  0.25130  Biso   1.000  C
  H43      1.0000 0.88660  0.21160  0.68830  Biso   1.000  H
  H44      1.0000 0.11340  0.78840  0.31170  Biso   1.000  H
  H45      1.0000 0.76310  0.13510  0.74630  Biso   1.000  H
  H46      1.0000 0.23690  0.86490  0.25370  Biso   1.000  H
  N13      1.0000 0.79120  0.29720  0.77260  Biso   1.000  N
  N14      1.0000 0.20880  0.70280  0.22740  Biso   1.000  N
  H47      1.0000 0.82250  0.35560  0.74310  Biso   1.000  H
  H48      1.0000 0.17750  0.64440  0.25690  Biso   1.000  H
  C23      1.0000 0.69510  0.29560  0.83780  Biso   1.000  C
  C24      1.0000 0.30490  0.70440  0.16220  Biso   1.000  C
  N15      1.0000 0.65110  0.38710  0.84960  Biso   1.000  N
  N16      1.0000 0.34890  0.61290  0.15040  Biso   1.000  N
  H49      1.0000 0.68300  0.43990  0.81440  Biso   1.000  H
  H50      1.0000 0.31700  0.56010  0.18560  Biso   1.000  H
  N17      1.0000 0.55400  0.39590  0.91900  Biso   1.000  N
  N18      1.0000 0.44600  0.60410  0.08100  Biso   1.000  N
  H51      1.0000 0.47090  0.40150  0.89400  Biso   1.000  H
  H52      1.0000 0.52910  0.59850  0.10600  Biso   1.000  H
  H53      1.0000 0.59710  0.45900  0.95570  Biso   1.000  H
  H54      1.0000 0.40290  0.54100  0.04430  Biso   1.000  H
  Cu7      1.0000 0.49814  0.26353  0.99433  Biso   1.000  Cu
  Cu8      1.0000 0.50186  0.73647  0.00567  Biso   1.000  Cu
  S7       1.0000 0.37540  0.10720  0.35638  Biso   1.000  S
  S8       1.0000 0.62460  0.89280  0.64362  Biso   1.000  S
  C25      1.0000 0.31660  0.23720  0.07290  Biso   1.000  C
  C26      1.0000 0.68340  0.76280  0.92710  Biso   1.000  C
  H55      1.0000 0.33800  0.29390  0.12040  Biso   1.000  H
  H56      1.0000 0.66200  0.70610  0.87960  Biso   1.000  H
  H57      1.0000 0.25970  0.24010  0.02260  Biso   1.000  H
  H58      1.0000 0.74030  0.75990  0.97740  Biso   1.000  H
  C27      1.0000 0.36910  0.14920  0.07700  Biso   1.000  C
  C28      1.0000 0.63090  0.85080  0.92300  Biso   1.000  C
  H59      1.0000 0.34570  0.09380  0.02840  Biso   1.000  H
  H60      1.0000 0.65430  0.90620  0.97160  Biso   1.000  H
  C29      1.0000 0.46180  0.13620  0.15490  Biso   1.000  C
  C30      1.0000 0.53820  0.86380  0.84510  Biso   1.000  C
  H61      1.0000 0.40750  0.06910  0.18320  Biso   1.000  H
  H62      1.0000 0.59250  0.93090  0.81680  Biso   1.000  H
  H63      1.0000 0.55220  0.12630  0.13130  Biso   1.000  H
  H64      1.0000 0.44780  0.87370  0.86870  Biso   1.000  H
  N19      1.0000 0.50120  0.23150  0.22390  Biso   1.000  N
  N20      1.0000 0.49880  0.76850  0.77610  Biso   1.000  N
  H65      1.0000 0.55210  0.29550  0.20650  Biso   1.000  H
  H66      1.0000 0.44790  0.70450  0.79350  Biso   1.000  H
  C31      1.0000 0.46600  0.22930  0.31110  Biso   1.000  C
  C32      1.0000 0.53400  0.77070  0.68890  Biso   1.000  C
  N21      1.0000 0.51020  0.32940  0.35910  Biso   1.000  N
  N22      1.0000 0.48980  0.67060  0.64090  Biso   1.000  N
  H67      1.0000 0.56140  0.38770  0.33370  Biso   1.000  H
  H68      1.0000 0.43860  0.61230  0.66630  Biso   1.000  H
  N23      1.0000 0.47300  0.33980  0.45180  Biso   1.000  N
  N24      1.0000 0.52700  0.66020  0.54820  Biso   1.000  N
  H69      1.0000 0.40450  0.37460  0.45740  Biso   1.000  H
  H70      1.0000 0.59550  0.62540  0.54260  Biso   1.000  H
  H71      1.0000 0.55440  0.38200  0.48510  Biso   1.000  H
  H72      1.0000 0.44560  0.61800  0.51490  Biso   1.000  H
  S9       1.0000 0.23691  0.48016  0.36178  Biso   1.000  S
  S10      1.0000 0.76309  0.51984  0.63822  Biso   1.000  S
  O1       1.0000 0.38100  0.51510  0.32100  Biso   1.000  O
  O2       1.0000 0.61900  0.48490  0.67900  Biso   1.000  O
  O3       1.0000 0.23790  0.55180  0.44580  Biso   1.000  O
  O4       1.0000 0.76210  0.44820  0.55420  Biso   1.000  O
  O5       1.0000 0.12230  0.49130  0.30070  Biso   1.000  O
  O6       1.0000 0.87770  0.50870  0.69930  Biso   1.000  O
  O7       1.0000 0.19570  0.36220  0.38200  Biso   1.000  O
  O8       1.0000 0.80430  0.63780  0.61800  Biso   1.000  O
  S11      1.0000 0.74059  0.48270  0.13403  Biso   1.000  S
  S12      1.0000 0.25941  0.51730  0.86597  Biso   1.000  S
  O9       1.0000 0.88850  0.51950  0.17580  Biso   1.000  O
  O10      1.0000 0.11150  0.48050  0.82420  Biso   1.000  O
  O11      1.0000 0.73480  0.55310  0.06250  Biso   1.000  O
  O12      1.0000 0.26520  0.44690  0.93750  Biso   1.000  O
  O13      1.0000 0.63030  0.49290  0.20180  Biso   1.000  O
  O14      1.0000 0.36970  0.50710  0.79820  Biso   1.000  O
  O15      1.0000 0.69670  0.36420  0.09660  Biso   1.000  O
  O16      1.0000 0.30330  0.63580  0.90340  Biso   1.000  O
