data_image0
_cell_length_a       17.9914
_cell_length_b       17.9914
_cell_length_c       15.9344
_cell_angle_alpha    90
_cell_angle_beta     90
_cell_angle_gamma    90

_symmetry_space_group_name_H-M    "P 1"
_symmetry_int_tables_number       1

loop_
  _symmetry_equiv_pos_as_xyz
  'x, y, z'

loop_
  _atom_site_label
  _atom_site_occupancy
  _atom_site_fract_x
  _atom_site_fract_y
  _atom_site_fract_z
  _atom_site_thermal_displace_type
  _atom_site_B_iso_or_equiv
  _atom_site_type_symbol
  C1       1.0000 0.30710  0.12720  0.42480  Biso   1.000  C
  C2       1.0000 0.69290  0.87280  0.42480  Biso   1.000  C
  C3       1.0000 0.87280  0.30710  0.42480  Biso   1.000  C
  C4       1.0000 0.12720  0.69290  0.42480  Biso   1.000  C
  C5       1.0000 0.69290  0.12720  0.07520  Biso   1.000  C
  C6       1.0000 0.30710  0.87280  0.07520  Biso   1.000  C
  C7       1.0000 0.12720  0.30710  0.07520  Biso   1.000  C
  C8       1.0000 0.87280  0.69290  0.07520  Biso   1.000  C
  C9       1.0000 0.69290  0.87280  0.57520  Biso   1.000  C
  C10      1.0000 0.30710  0.12720  0.57520  Biso   1.000  C
  C11      1.0000 0.12720  0.69290  0.57520  Biso   1.000  C
  C12      1.0000 0.87280  0.30710  0.57520  Biso   1.000  C
  C13      1.0000 0.30710  0.87280  0.92480  Biso   1.000  C
  C14      1.0000 0.69290  0.12720  0.92480  Biso   1.000  C
  C15      1.0000 0.87280  0.69290  0.92480  Biso   1.000  C
  C16      1.0000 0.12720  0.30710  0.92480  Biso   1.000  C
  H1       1.0000 0.35230  0.15660  0.42450  Biso   1.000  H
  H2       1.0000 0.64770  0.84340  0.42450  Biso   1.000  H
  H3       1.0000 0.84340  0.35230  0.42450  Biso   1.000  H
  H4       1.0000 0.15660  0.64770  0.42450  Biso   1.000  H
  H5       1.0000 0.64770  0.15660  0.07550  Biso   1.000  H
  H6       1.0000 0.35230  0.84340  0.07550  Biso   1.000  H
  H7       1.0000 0.15660  0.35230  0.07550  Biso   1.000  H
  H8       1.0000 0.84340  0.64770  0.07550  Biso   1.000  H
  H9       1.0000 0.64770  0.84340  0.57550  Biso   1.000  H
  H10      1.0000 0.35230  0.15660  0.57550  Biso   1.000  H
  H11      1.0000 0.15660  0.64770  0.57550  Biso   1.000  H
  H12      1.0000 0.84340  0.35230  0.57550  Biso   1.000  H
  H13      1.0000 0.35230  0.84340  0.92450  Biso   1.000  H
  H14      1.0000 0.64770  0.15660  0.92450  Biso   1.000  H
  H15      1.0000 0.84340  0.64770  0.92450  Biso   1.000  H
  H16      1.0000 0.15660  0.35230  0.92450  Biso   1.000  H
  H17      1.0000 0.27910  0.13900  0.37460  Biso   1.000  H
  H18      1.0000 0.72090  0.86100  0.37460  Biso   1.000  H
  H19      1.0000 0.86100  0.27910  0.37460  Biso   1.000  H
  H20      1.0000 0.13900  0.72090  0.37460  Biso   1.000  H
  H21      1.0000 0.72090  0.13900  0.12540  Biso   1.000  H
  H22      1.0000 0.27910  0.86100  0.12540  Biso   1.000  H
  H23      1.0000 0.13900  0.27910  0.12540  Biso   1.000  H
  H24      1.0000 0.86100  0.72090  0.12540  Biso   1.000  H
  H25      1.0000 0.72090  0.86100  0.62540  Biso   1.000  H
  H26      1.0000 0.27910  0.13900  0.62540  Biso   1.000  H
  H27      1.0000 0.13900  0.72090  0.62540  Biso   1.000  H
  H28      1.0000 0.86100  0.27910  0.62540  Biso   1.000  H
  H29      1.0000 0.27910  0.86100  0.87460  Biso   1.000  H
  H30      1.0000 0.72090  0.13900  0.87460  Biso   1.000  H
  H31      1.0000 0.86100  0.72090  0.87460  Biso   1.000  H
  H32      1.0000 0.13900  0.27910  0.87460  Biso   1.000  H
  C17      1.0000 0.19400  0.09960  0.50000  Biso   1.000  C
  C18      1.0000 0.80600  0.90040  0.50000  Biso   1.000  C
  C19      1.0000 0.90040  0.19400  0.50000  Biso   1.000  C
  C20      1.0000 0.09960  0.80600  0.50000  Biso   1.000  C
  C21      1.0000 0.80600  0.09960  0.00000  Biso   1.000  C
  C22      1.0000 0.19400  0.90040  0.00000  Biso   1.000  C
  C23      1.0000 0.09960  0.19400  0.00000  Biso   1.000  C
  C24      1.0000 0.90040  0.80600  0.00000  Biso   1.000  C
  H33      1.0000 0.16440  0.11090  0.45070  Biso   1.000  H
  H34      1.0000 0.83560  0.88910  0.45070  Biso   1.000  H
  H35      1.0000 0.88910  0.16440  0.45070  Biso   1.000  H
  H36      1.0000 0.11090  0.83560  0.45070  Biso   1.000  H
  H37      1.0000 0.83560  0.11090  0.04930  Biso   1.000  H
  H38      1.0000 0.16440  0.88910  0.04930  Biso   1.000  H
  H39      1.0000 0.11090  0.16440  0.04930  Biso   1.000  H
  H40      1.0000 0.88910  0.83560  0.04930  Biso   1.000  H
  H41      1.0000 0.83560  0.88910  0.54930  Biso   1.000  H
  H42      1.0000 0.16440  0.11090  0.54930  Biso   1.000  H
  H43      1.0000 0.11090  0.83560  0.54930  Biso   1.000  H
  H44      1.0000 0.88910  0.16440  0.54930  Biso   1.000  H
  H45      1.0000 0.16440  0.88910  0.95070  Biso   1.000  H
  H46      1.0000 0.83560  0.11090  0.95070  Biso   1.000  H
  H47      1.0000 0.88910  0.83560  0.95070  Biso   1.000  H
  H48      1.0000 0.11090  0.16440  0.95070  Biso   1.000  H
  C25      1.0000 0.21500  0.01620  0.50000  Biso   1.000  C
  C26      1.0000 0.78500  0.98380  0.50000  Biso   1.000  C
  C27      1.0000 0.98380  0.21500  0.50000  Biso   1.000  C
  C28      1.0000 0.01620  0.78500  0.50000  Biso   1.000  C
  C29      1.0000 0.78500  0.01620  0.00000  Biso   1.000  C
  C30      1.0000 0.21500  0.98380  0.00000  Biso   1.000  C
  C31      1.0000 0.01620  0.21500  0.00000  Biso   1.000  C
  C32      1.0000 0.98380  0.78500  0.00000  Biso   1.000  C
  H49      1.0000 0.19400  0.99250  0.54930  Biso   1.000  H
  H50      1.0000 0.80600  0.00750  0.54930  Biso   1.000  H
  H51      1.0000 0.00750  0.19400  0.54930  Biso   1.000  H
  H52      1.0000 0.99250  0.80600  0.54930  Biso   1.000  H
  H53      1.0000 0.80600  0.99250  0.95070  Biso   1.000  H
  H54      1.0000 0.19400  0.00750  0.95070  Biso   1.000  H
  H55      1.0000 0.99250  0.19400  0.95070  Biso   1.000  H
  H56      1.0000 0.00750  0.80600  0.95070  Biso   1.000  H
  H57      1.0000 0.80600  0.00750  0.45070  Biso   1.000  H
  H58      1.0000 0.19400  0.99250  0.45070  Biso   1.000  H
  H59      1.0000 0.99250  0.80600  0.45070  Biso   1.000  H
  H60      1.0000 0.00750  0.19400  0.45070  Biso   1.000  H
  H61      1.0000 0.19400  0.00750  0.04930  Biso   1.000  H
  H62      1.0000 0.80600  0.99250  0.04930  Biso   1.000  H
  H63      1.0000 0.00750  0.80600  0.04930  Biso   1.000  H
  H64      1.0000 0.99250  0.19400  0.04930  Biso   1.000  H
  C33      1.0000 0.32740  0.04390  0.42440  Biso   1.000  C
  C34      1.0000 0.67260  0.95610  0.42440  Biso   1.000  C
  C35      1.0000 0.95610  0.32740  0.42440  Biso   1.000  C
  C36      1.0000 0.04390  0.67260  0.42440  Biso   1.000  C
  C37      1.0000 0.67260  0.04390  0.07560  Biso   1.000  C
  C38      1.0000 0.32740  0.95610  0.07560  Biso   1.000  C
  C39      1.0000 0.04390  0.32740  0.07560  Biso   1.000  C
  C40      1.0000 0.95610  0.67260  0.07560  Biso   1.000  C
  C41      1.0000 0.67260  0.95610  0.57560  Biso   1.000  C
  C42      1.0000 0.32740  0.04390  0.57560  Biso   1.000  C
  C43      1.0000 0.04390  0.67260  0.57560  Biso   1.000  C
  C44      1.0000 0.95610  0.32740  0.57560  Biso   1.000  C
  C45      1.0000 0.32740  0.95610  0.92440  Biso   1.000  C
  C46      1.0000 0.67260  0.04390  0.92440  Biso   1.000  C
  C47      1.0000 0.95610  0.67260  0.92440  Biso   1.000  C
  C48      1.0000 0.04390  0.32740  0.92440  Biso   1.000  C
  H65      1.0000 0.30740  0.02070  0.37430  Biso   1.000  H
  H66      1.0000 0.69260  0.97930  0.37430  Biso   1.000  H
  H67      1.0000 0.97930  0.30740  0.37430  Biso   1.000  H
  H68      1.0000 0.02070  0.69260  0.37430  Biso   1.000  H
  H69      1.0000 0.69260  0.02070  0.12570  Biso   1.000  H
  H70      1.0000 0.30740  0.97930  0.12570  Biso   1.000  H
  H71      1.0000 0.02070  0.30740  0.12570  Biso   1.000  H
  H72      1.0000 0.97930  0.69260  0.12570  Biso   1.000  H
  H73      1.0000 0.69260  0.97930  0.62570  Biso   1.000  H
  H74      1.0000 0.30740  0.02070  0.62570  Biso   1.000  H
  H75      1.0000 0.02070  0.69260  0.62570  Biso   1.000  H
  H76      1.0000 0.97930  0.30740  0.62570  Biso   1.000  H
  H77      1.0000 0.30740  0.97930  0.87430  Biso   1.000  H
  H78      1.0000 0.69260  0.02070  0.87430  Biso   1.000  H
  H79      1.0000 0.97930  0.69260  0.87430  Biso   1.000  H
  H80      1.0000 0.02070  0.30740  0.87430  Biso   1.000  H
  H81      1.0000 0.38100  0.03840  0.42340  Biso   1.000  H
  H82      1.0000 0.61900  0.96160  0.42340  Biso   1.000  H
  H83      1.0000 0.96160  0.38100  0.42340  Biso   1.000  H
  H84      1.0000 0.03840  0.61900  0.42340  Biso   1.000  H
  H85      1.0000 0.61900  0.03840  0.07660  Biso   1.000  H
  H86      1.0000 0.38100  0.96160  0.07660  Biso   1.000  H
  H87      1.0000 0.03840  0.38100  0.07660  Biso   1.000  H
  H88      1.0000 0.96160  0.61900  0.07660  Biso   1.000  H
  H89      1.0000 0.61900  0.96160  0.57660  Biso   1.000  H
  H90      1.0000 0.38100  0.03840  0.57660  Biso   1.000  H
  H91      1.0000 0.03840  0.61900  0.57660  Biso   1.000  H
  H92      1.0000 0.96160  0.38100  0.57660  Biso   1.000  H
  H93      1.0000 0.38100  0.96160  0.92340  Biso   1.000  H
  H94      1.0000 0.61900  0.03840  0.92340  Biso   1.000  H
  H95      1.0000 0.96160  0.61900  0.92340  Biso   1.000  H
  H96      1.0000 0.03840  0.38100  0.92340  Biso   1.000  H
  C49      1.0000 0.15470  0.46590  0.27860  Biso   1.000  C
  C50      1.0000 0.84530  0.53410  0.27860  Biso   1.000  C
  C51      1.0000 0.53410  0.15470  0.27860  Biso   1.000  C
  C52      1.0000 0.46590  0.84530  0.27860  Biso   1.000  C
  C53      1.0000 0.84530  0.46590  0.22140  Biso   1.000  C
  C54      1.0000 0.15470  0.53410  0.22140  Biso   1.000  C
  C55      1.0000 0.46590  0.15470  0.22140  Biso   1.000  C
  C56      1.0000 0.53410  0.84530  0.22140  Biso   1.000  C
  C57      1.0000 0.84530  0.53410  0.72140  Biso   1.000  C
  C58      1.0000 0.15470  0.46590  0.72140  Biso   1.000  C
  C59      1.0000 0.46590  0.84530  0.72140  Biso   1.000  C
  C60      1.0000 0.53410  0.15470  0.72140  Biso   1.000  C
  C61      1.0000 0.15470  0.53410  0.77860  Biso   1.000  C
  C62      1.0000 0.84530  0.46590  0.77860  Biso   1.000  C
  C63      1.0000 0.53410  0.84530  0.77860  Biso   1.000  C
  C64      1.0000 0.46590  0.15470  0.77860  Biso   1.000  C
  H97      1.0000 0.12040  0.47360  0.32470  Biso   1.000  H
  H98      1.0000 0.87960  0.52640  0.32470  Biso   1.000  H
  H99      1.0000 0.52640  0.12040  0.32470  Biso   1.000  H
  H100     1.0000 0.47360  0.87960  0.32470  Biso   1.000  H
  H101     1.0000 0.87960  0.47360  0.17530  Biso   1.000  H
  H102     1.0000 0.12040  0.52640  0.17530  Biso   1.000  H
  H103     1.0000 0.47360  0.12040  0.17530  Biso   1.000  H
  H104     1.0000 0.52640  0.87960  0.17530  Biso   1.000  H
  H105     1.0000 0.87960  0.52640  0.67530  Biso   1.000  H
  H106     1.0000 0.12040  0.47360  0.67530  Biso   1.000  H
  H107     1.0000 0.47360  0.87960  0.67530  Biso   1.000  H
  H108     1.0000 0.52640  0.12040  0.67530  Biso   1.000  H
  H109     1.0000 0.12040  0.52640  0.82470  Biso   1.000  H
  H110     1.0000 0.87960  0.47360  0.82470  Biso   1.000  H
  H111     1.0000 0.52640  0.87960  0.82470  Biso   1.000  H
  H112     1.0000 0.47360  0.12040  0.82470  Biso   1.000  H
  H113     1.0000 0.13840  0.42270  0.24720  Biso   1.000  H
  H114     1.0000 0.86160  0.57730  0.24720  Biso   1.000  H
  H115     1.0000 0.57730  0.13840  0.24720  Biso   1.000  H
  H116     1.0000 0.42270  0.86160  0.24720  Biso   1.000  H
  H117     1.0000 0.86160  0.42270  0.25280  Biso   1.000  H
  H118     1.0000 0.13840  0.57730  0.25280  Biso   1.000  H
  H119     1.0000 0.42270  0.13840  0.25280  Biso   1.000  H
  H120     1.0000 0.57730  0.86160  0.25280  Biso   1.000  H
  H121     1.0000 0.86160  0.57730  0.75280  Biso   1.000  H
  H122     1.0000 0.13840  0.42270  0.75280  Biso   1.000  H
  H123     1.0000 0.42270  0.86160  0.75280  Biso   1.000  H
  H124     1.0000 0.57730  0.13840  0.75280  Biso   1.000  H
  H125     1.0000 0.13840  0.57730  0.74720  Biso   1.000  H
  H126     1.0000 0.86160  0.42270  0.74720  Biso   1.000  H
  H127     1.0000 0.57730  0.86160  0.74720  Biso   1.000  H
  H128     1.0000 0.42270  0.13840  0.74720  Biso   1.000  H
  C65      1.0000 0.26410  0.52590  0.33690  Biso   1.000  C
  C66      1.0000 0.73590  0.47410  0.33690  Biso   1.000  C
  C67      1.0000 0.47410  0.26410  0.33690  Biso   1.000  C
  C68      1.0000 0.52590  0.73590  0.33690  Biso   1.000  C
  C69      1.0000 0.73590  0.52590  0.16310  Biso   1.000  C
  C70      1.0000 0.26410  0.47410  0.16310  Biso   1.000  C
  C71      1.0000 0.52590  0.26410  0.16310  Biso   1.000  C
  C72      1.0000 0.47410  0.73590  0.16310  Biso   1.000  C
  C73      1.0000 0.73590  0.47410  0.66310  Biso   1.000  C
  C74      1.0000 0.26410  0.52590  0.66310  Biso   1.000  C
  C75      1.0000 0.52590  0.73590  0.66310  Biso   1.000  C
  C76      1.0000 0.47410  0.26410  0.66310  Biso   1.000  C
  C77      1.0000 0.26410  0.47410  0.83690  Biso   1.000  C
  C78      1.0000 0.73590  0.52590  0.83690  Biso   1.000  C
  C79      1.0000 0.47410  0.73590  0.83690  Biso   1.000  C
  C80      1.0000 0.52590  0.26410  0.83690  Biso   1.000  C
  H129     1.0000 0.31140  0.51790  0.36470  Biso   1.000  H
  H130     1.0000 0.68860  0.48210  0.36470  Biso   1.000  H
  H131     1.0000 0.48210  0.31140  0.36470  Biso   1.000  H
  H132     1.0000 0.51790  0.68860  0.36470  Biso   1.000  H
  H133     1.0000 0.68860  0.51790  0.13530  Biso   1.000  H
  H134     1.0000 0.31140  0.48210  0.13530  Biso   1.000  H
  H135     1.0000 0.51790  0.31140  0.13530  Biso   1.000  H
  H136     1.0000 0.48210  0.68860  0.13530  Biso   1.000  H
  H137     1.0000 0.68860  0.48210  0.63530  Biso   1.000  H
  H138     1.0000 0.31140  0.51790  0.63530  Biso   1.000  H
  H139     1.0000 0.51790  0.68860  0.63530  Biso   1.000  H
  H140     1.0000 0.48210  0.31140  0.63530  Biso   1.000  H
  H141     1.0000 0.31140  0.48210  0.86470  Biso   1.000  H
  H142     1.0000 0.68860  0.51790  0.86470  Biso   1.000  H
  H143     1.0000 0.48210  0.68860  0.86470  Biso   1.000  H
  H144     1.0000 0.51790  0.31140  0.86470  Biso   1.000  H
  H145     1.0000 0.23120  0.55080  0.37610  Biso   1.000  H
  H146     1.0000 0.76880  0.44920  0.37610  Biso   1.000  H
  H147     1.0000 0.44920  0.23120  0.37610  Biso   1.000  H
  H148     1.0000 0.55080  0.76880  0.37610  Biso   1.000  H
  H149     1.0000 0.76880  0.55080  0.12390  Biso   1.000  H
  H150     1.0000 0.23120  0.44920  0.12390  Biso   1.000  H
  H151     1.0000 0.55080  0.23120  0.12390  Biso   1.000  H
  H152     1.0000 0.44920  0.76880  0.12390  Biso   1.000  H
  H153     1.0000 0.76880  0.44920  0.62390  Biso   1.000  H
  H154     1.0000 0.23120  0.55080  0.62390  Biso   1.000  H
  H155     1.0000 0.55080  0.76880  0.62390  Biso   1.000  H
  H156     1.0000 0.44920  0.23120  0.62390  Biso   1.000  H
  H157     1.0000 0.23120  0.44920  0.87610  Biso   1.000  H
  H158     1.0000 0.76880  0.55080  0.87610  Biso   1.000  H
  H159     1.0000 0.44920  0.76880  0.87610  Biso   1.000  H
  H160     1.0000 0.55080  0.23120  0.87610  Biso   1.000  H
  C81      1.0000 0.27590  0.42420  0.24120  Biso   1.000  C
  C82      1.0000 0.72410  0.57580  0.24120  Biso   1.000  C
  C83      1.0000 0.57580  0.27590  0.24120  Biso   1.000  C
  C84      1.0000 0.42420  0.72410  0.24120  Biso   1.000  C
  C85      1.0000 0.72410  0.42420  0.25880  Biso   1.000  C
  C86      1.0000 0.27590  0.57580  0.25880  Biso   1.000  C
  C87      1.0000 0.42420  0.27590  0.25880  Biso   1.000  C
  C88      1.0000 0.57580  0.72410  0.25880  Biso   1.000  C
  C89      1.0000 0.72410  0.57580  0.75880  Biso   1.000  C
  C90      1.0000 0.27590  0.42420  0.75880  Biso   1.000  C
  C91      1.0000 0.42420  0.72410  0.75880  Biso   1.000  C
  C92      1.0000 0.57580  0.27590  0.75880  Biso   1.000  C
  C93      1.0000 0.27590  0.57580  0.74120  Biso   1.000  C
  C94      1.0000 0.72410  0.42420  0.74120  Biso   1.000  C
  C95      1.0000 0.57580  0.72410  0.74120  Biso   1.000  C
  C96      1.0000 0.42420  0.27590  0.74120  Biso   1.000  C
  H161     1.0000 0.26110  0.37370  0.22840  Biso   1.000  H
  H162     1.0000 0.73890  0.62630  0.22840  Biso   1.000  H
  H163     1.0000 0.62630  0.26110  0.22840  Biso   1.000  H
  H164     1.0000 0.37370  0.73890  0.22840  Biso   1.000  H
  H165     1.0000 0.73890  0.37370  0.27160  Biso   1.000  H
  H166     1.0000 0.26110  0.62630  0.27160  Biso   1.000  H
  H167     1.0000 0.37370  0.26110  0.27160  Biso   1.000  H
  H168     1.0000 0.62630  0.73890  0.27160  Biso   1.000  H
  H169     1.0000 0.73890  0.62630  0.77160  Biso   1.000  H
  H170     1.0000 0.26110  0.37370  0.77160  Biso   1.000  H
  H171     1.0000 0.37370  0.73890  0.77160  Biso   1.000  H
  H172     1.0000 0.62630  0.26110  0.77160  Biso   1.000  H
  H173     1.0000 0.26110  0.62630  0.72840  Biso   1.000  H
  H174     1.0000 0.73890  0.37370  0.72840  Biso   1.000  H
  H175     1.0000 0.62630  0.73890  0.72840  Biso   1.000  H
  H176     1.0000 0.37370  0.26110  0.72840  Biso   1.000  H
  H177     1.0000 0.32810  0.42390  0.25640  Biso   1.000  H
  H178     1.0000 0.67190  0.57610  0.25640  Biso   1.000  H
  H179     1.0000 0.57610  0.32810  0.25640  Biso   1.000  H
  H180     1.0000 0.42390  0.67190  0.25640  Biso   1.000  H
  H181     1.0000 0.67190  0.42390  0.24360  Biso   1.000  H
  H182     1.0000 0.32810  0.57610  0.24360  Biso   1.000  H
  H183     1.0000 0.42390  0.32810  0.24360  Biso   1.000  H
  H184     1.0000 0.57610  0.67190  0.24360  Biso   1.000  H
  H185     1.0000 0.67190  0.57610  0.74360  Biso   1.000  H
  H186     1.0000 0.32810  0.42390  0.74360  Biso   1.000  H
  H187     1.0000 0.42390  0.67190  0.74360  Biso   1.000  H
  H188     1.0000 0.57610  0.32810  0.74360  Biso   1.000  H
  H189     1.0000 0.32810  0.57610  0.75640  Biso   1.000  H
  H190     1.0000 0.67190  0.42390  0.75640  Biso   1.000  H
  H191     1.0000 0.57610  0.67190  0.75640  Biso   1.000  H
  H192     1.0000 0.42390  0.32810  0.75640  Biso   1.000  H
  N1       1.0000 0.23129  0.45278  0.31220  Biso   1.000  N
  N2       1.0000 0.76871  0.54722  0.31220  Biso   1.000  N
  N3       1.0000 0.54722  0.23129  0.31220  Biso   1.000  N
  N4       1.0000 0.45278  0.76871  0.31220  Biso   1.000  N
  N5       1.0000 0.76871  0.45278  0.18780  Biso   1.000  N
  N6       1.0000 0.23129  0.54722  0.18780  Biso   1.000  N
  N7       1.0000 0.45278  0.23129  0.18780  Biso   1.000  N
  N8       1.0000 0.54722  0.76871  0.18780  Biso   1.000  N
  N9       1.0000 0.76871  0.54722  0.68780  Biso   1.000  N
  N10      1.0000 0.23129  0.45278  0.68780  Biso   1.000  N
  N11      1.0000 0.45278  0.76871  0.68780  Biso   1.000  N
  N12      1.0000 0.54722  0.23129  0.68780  Biso   1.000  N
  N13      1.0000 0.23129  0.54722  0.81220  Biso   1.000  N
  N14      1.0000 0.76871  0.45278  0.81220  Biso   1.000  N
  N15      1.0000 0.54722  0.76871  0.81220  Biso   1.000  N
  N16      1.0000 0.45278  0.23129  0.81220  Biso   1.000  N
  N17      1.0000 0.26230  0.14640  0.50000  Biso   1.000  N
  N18      1.0000 0.73770  0.85360  0.50000  Biso   1.000  N
  N19      1.0000 0.85360  0.26230  0.50000  Biso   1.000  N
  N20      1.0000 0.14640  0.73770  0.50000  Biso   1.000  N
  N21      1.0000 0.73770  0.14640  0.00000  Biso   1.000  N
  N22      1.0000 0.26230  0.85360  0.00000  Biso   1.000  N
  N23      1.0000 0.14640  0.26230  0.00000  Biso   1.000  N
  N24      1.0000 0.85360  0.73770  0.00000  Biso   1.000  N
  N25      1.0000 0.29680  0.00630  0.50000  Biso   1.000  N
  N26      1.0000 0.70320  0.99370  0.50000  Biso   1.000  N
  N27      1.0000 0.99370  0.29680  0.50000  Biso   1.000  N
  N28      1.0000 0.00630  0.70320  0.50000  Biso   1.000  N
  N29      1.0000 0.70320  0.00630  0.00000  Biso   1.000  N
  N30      1.0000 0.29680  0.99370  0.00000  Biso   1.000  N
  N31      1.0000 0.00630  0.29680  0.00000  Biso   1.000  N
  N32      1.0000 0.99370  0.70320  0.00000  Biso   1.000  N
  Cu1      1.0000 0.23186  0.25704  0.50000  Biso   1.000  Cu
  Cu2      1.0000 0.76814  0.74296  0.50000  Biso   1.000  Cu
  Cu3      1.0000 0.74296  0.23186  0.50000  Biso   1.000  Cu
  Cu4      1.0000 0.25704  0.76814  0.50000  Biso   1.000  Cu
  Cu5      1.0000 0.76814  0.25704  0.00000  Biso   1.000  Cu
  Cu6      1.0000 0.23186  0.74296  0.00000  Biso   1.000  Cu
  Cu7      1.0000 0.25704  0.23186  0.00000  Biso   1.000  Cu
  Cu8      1.0000 0.74296  0.76814  0.00000  Biso   1.000  Cu
  Cu9      1.0000 0.21989  0.38360  0.41613  Biso   1.000  Cu
  Cu10     1.0000 0.78011  0.61640  0.41613  Biso   1.000  Cu
  Cu11     1.0000 0.61640  0.21989  0.41613  Biso   1.000  Cu
  Cu12     1.0000 0.38360  0.78011  0.41613  Biso   1.000  Cu
  Cu13     1.0000 0.78011  0.38360  0.08387  Biso   1.000  Cu
  Cu14     1.0000 0.21989  0.61640  0.08387  Biso   1.000  Cu
  Cu15     1.0000 0.38360  0.21989  0.08387  Biso   1.000  Cu
  Cu16     1.0000 0.61640  0.78011  0.08387  Biso   1.000  Cu
  Cu17     1.0000 0.78011  0.61640  0.58387  Biso   1.000  Cu
  Cu18     1.0000 0.21989  0.38360  0.58387  Biso   1.000  Cu
  Cu19     1.0000 0.38360  0.78011  0.58387  Biso   1.000  Cu
  Cu20     1.0000 0.61640  0.21989  0.58387  Biso   1.000  Cu
  Cu21     1.0000 0.21989  0.61640  0.91613  Biso   1.000  Cu
  Cu22     1.0000 0.78011  0.38360  0.91613  Biso   1.000  Cu
  Cu23     1.0000 0.61640  0.78011  0.91613  Biso   1.000  Cu
  Cu24     1.0000 0.38360  0.21989  0.91613  Biso   1.000  Cu
  Cu25     1.0000 0.32211  0.89438  0.50000  Biso   1.000  Cu
  Cu26     1.0000 0.67789  0.10562  0.50000  Biso   1.000  Cu
  Cu27     1.0000 0.10562  0.32211  0.50000  Biso   1.000  Cu
  Cu28     1.0000 0.89438  0.67789  0.50000  Biso   1.000  Cu
  Cu29     1.0000 0.67789  0.89438  0.00000  Biso   1.000  Cu
  Cu30     1.0000 0.32211  0.10562  0.00000  Biso   1.000  Cu
  Cu31     1.0000 0.89438  0.32211  0.00000  Biso   1.000  Cu
  Cu32     1.0000 0.10562  0.67789  0.00000  Biso   1.000  Cu
  I1       1.0000 0.11624  0.46803  0.50000  Biso   1.000  I
  I2       1.0000 0.88376  0.53197  0.50000  Biso   1.000  I
  I3       1.0000 0.53197  0.11624  0.50000  Biso   1.000  I
  I4       1.0000 0.46803  0.88376  0.50000  Biso   1.000  I
  I5       1.0000 0.88376  0.46803  0.00000  Biso   1.000  I
  I6       1.0000 0.11624  0.53197  0.00000  Biso   1.000  I
  I7       1.0000 0.46803  0.11624  0.00000  Biso   1.000  I
  I8       1.0000 0.53197  0.88376  0.00000  Biso   1.000  I
  I9       1.0000 0.15378  0.26397  0.35394  Biso   1.000  I
  I10      1.0000 0.84622  0.73603  0.35394  Biso   1.000  I
  I11      1.0000 0.73603  0.15378  0.35394  Biso   1.000  I
  I12      1.0000 0.26397  0.84622  0.35394  Biso   1.000  I
  I13      1.0000 0.84622  0.26397  0.14606  Biso   1.000  I
  I14      1.0000 0.15378  0.73603  0.14606  Biso   1.000  I
  I15      1.0000 0.26397  0.15378  0.14606  Biso   1.000  I
  I16      1.0000 0.73603  0.84622  0.14606  Biso   1.000  I
  I17      1.0000 0.84622  0.73603  0.64606  Biso   1.000  I
  I18      1.0000 0.15378  0.26397  0.64606  Biso   1.000  I
  I19      1.0000 0.26397  0.84622  0.64606  Biso   1.000  I
  I20      1.0000 0.73603  0.15378  0.64606  Biso   1.000  I
  I21      1.0000 0.15378  0.73603  0.85394  Biso   1.000  I
  I22      1.0000 0.84622  0.26397  0.85394  Biso   1.000  I
  I23      1.0000 0.73603  0.84622  0.85394  Biso   1.000  I
  I24      1.0000 0.26397  0.15378  0.85394  Biso   1.000  I
  I25      1.0000 0.34273  0.35571  0.50000  Biso   1.000  I
  I26      1.0000 0.65727  0.64429  0.50000  Biso   1.000  I
  I27      1.0000 0.64429  0.34273  0.50000  Biso   1.000  I
  I28      1.0000 0.35571  0.65727  0.50000  Biso   1.000  I
  I29      1.0000 0.65727  0.35571  0.00000  Biso   1.000  I
  I30      1.0000 0.34273  0.64429  0.00000  Biso   1.000  I
  I31      1.0000 0.35571  0.34273  0.00000  Biso   1.000  I
  I32      1.0000 0.64429  0.65727  0.00000  Biso   1.000  I
