data_image0
_cell_length_a       14.276
_cell_length_b       14.235
_cell_length_c       20.828
_cell_angle_alpha    90
_cell_angle_beta     91.258
_cell_angle_gamma    90

_symmetry_space_group_name_H-M    "P 1"
_symmetry_int_tables_number       1

loop_
  _symmetry_equiv_pos_as_xyz
  'x, y, z'

loop_
  _atom_site_label
  _atom_site_occupancy
  _atom_site_fract_x
  _atom_site_fract_y
  _atom_site_fract_z
  _atom_site_thermal_displace_type
  _atom_site_B_iso_or_equiv
  _atom_site_type_symbol
  W1       1.0000 0.89802  0.95545  0.34750  Biso   1.000  W
  W2       1.0000 0.60198  0.45545  0.15250  Biso   1.000  W
  W3       1.0000 0.10198  0.04455  0.65250  Biso   1.000  W
  W4       1.0000 0.39802  0.54455  0.84750  Biso   1.000  W
  W5       1.0000 0.78403  0.88435  0.48565  Biso   1.000  W
  W6       1.0000 0.71597  0.38435  0.01435  Biso   1.000  W
  W7       1.0000 0.21597  0.11565  0.51435  Biso   1.000  W
  W8       1.0000 0.28403  0.61565  0.98565  Biso   1.000  W
  W9       1.0000 0.79864  0.12385  0.44856  Biso   1.000  W
  W10      1.0000 0.70136  0.62385  0.05144  Biso   1.000  W
  W11      1.0000 0.20136  0.87615  0.55144  Biso   1.000  W
  W12      1.0000 0.29864  0.37615  0.94856  Biso   1.000  W
  W13      1.0000 0.10297  0.83604  0.39751  Biso   1.000  W
  W14      1.0000 0.39703  0.33604  0.10249  Biso   1.000  W
  W15      1.0000 0.89703  0.16396  0.60249  Biso   1.000  W
  W16      1.0000 0.60297  0.66396  0.89751  Biso   1.000  W
  W17      1.0000 0.01479  0.24040  0.46565  Biso   1.000  W
  W18      1.0000 0.48521  0.74040  0.03435  Biso   1.000  W
  W19      1.0000 0.98521  0.75960  0.53435  Biso   1.000  W
  W20      1.0000 0.51479  0.25960  0.96565  Biso   1.000  W
  W21      1.0000 0.11143  0.07589  0.36229  Biso   1.000  W
  W22      1.0000 0.38857  0.57589  0.13771  Biso   1.000  W
  W23      1.0000 0.88857  0.92411  0.63771  Biso   1.000  W
  W24      1.0000 0.61143  0.42411  0.86229  Biso   1.000  W
  Cu1      1.0000 0.05879  0.52186  0.43594  Biso   1.000  Cu
  Cu2      1.0000 0.44121  0.02186  0.06406  Biso   1.000  Cu
  Cu3      1.0000 0.94121  0.47814  0.56406  Biso   1.000  Cu
  Cu4      1.0000 0.55879  0.97814  0.93594  Biso   1.000  Cu
  Cu5      1.0000 0.47450  0.78030  0.51160  Biso   1.000  Cu
  Cu6      1.0000 0.02550  0.28030  0.98840  Biso   1.000  Cu
  Cu7      1.0000 0.52550  0.21970  0.48840  Biso   1.000  Cu
  Cu8      1.0000 0.97450  0.71970  0.01160  Biso   1.000  Cu
  Cu9      1.0000 0.96720  0.50800  0.01010  Biso   1.000  Cu
  Cu10     1.0000 0.53280  0.00800  0.48990  Biso   1.000  Cu
  Cu11     1.0000 0.03280  0.49200  0.98990  Biso   1.000  Cu
  Cu12     1.0000 0.46720  0.99200  0.51010  Biso   1.000  Cu
  O1       1.0000 0.90380  0.99040  0.45360  Biso   1.000  O
  O2       1.0000 0.59620  0.49040  0.04640  Biso   1.000  O
  O3       1.0000 0.09620  0.00960  0.54640  Biso   1.000  O
  O4       1.0000 0.40380  0.50960  0.95360  Biso   1.000  O
  O5       1.0000 0.93320  0.10440  0.50310  Biso   1.000  O
  O6       1.0000 0.56680  0.60440  0.99690  Biso   1.000  O
  O7       1.0000 0.06680  0.89560  0.49690  Biso   1.000  O
  O8       1.0000 0.43320  0.39560  0.00310  Biso   1.000  O
  O9       1.0000 0.89210  0.21140  0.43310  Biso   1.000  O
  O10      1.0000 0.60790  0.71140  0.06690  Biso   1.000  O
  O11      1.0000 0.10790  0.78860  0.56690  Biso   1.000  O
  O12      1.0000 0.39210  0.28860  0.93310  Biso   1.000  O
  O13      1.0000 0.86670  0.78050  0.49750  Biso   1.000  O
  O14      1.0000 0.63330  0.28050  0.00250  Biso   1.000  O
  O15      1.0000 0.13330  0.21950  0.50250  Biso   1.000  O
  O16      1.0000 0.36670  0.71950  0.99750  Biso   1.000  O
  O17      1.0000 0.80680  0.15410  0.53620  Biso   1.000  O
  O18      1.0000 0.69320  0.65410  0.96380  Biso   1.000  O
  O19      1.0000 0.19320  0.84590  0.46380  Biso   1.000  O
  O20      1.0000 0.30680  0.34590  0.03620  Biso   1.000  O
  O21      1.0000 0.99410  0.03780  0.32690  Biso   1.000  O
  O22      1.0000 0.50590  0.53780  0.17310  Biso   1.000  O
  O23      1.0000 0.00590  0.96220  0.67310  Biso   1.000  O
  O24      1.0000 0.49410  0.46220  0.82690  Biso   1.000  O
  O25      1.0000 0.85160  0.93540  0.27470  Biso   1.000  O
  O26      1.0000 0.64840  0.43540  0.22530  Biso   1.000  O
  O27      1.0000 0.14840  0.06460  0.72530  Biso   1.000  O
  O28      1.0000 0.35160  0.56460  0.77470  Biso   1.000  O
  O29      1.0000 0.79030  0.90250  0.57500  Biso   1.000  O
  O30      1.0000 0.70970  0.40250  0.92500  Biso   1.000  O
  O31      1.0000 0.20970  0.09750  0.42500  Biso   1.000  O
  O32      1.0000 0.29030  0.59750  0.07500  Biso   1.000  O
  O33      1.0000 0.98680  0.85900  0.35310  Biso   1.000  O
  O34      1.0000 0.51320  0.35900  0.14690  Biso   1.000  O
  O35      1.0000 0.01320  0.14100  0.64690  Biso   1.000  O
  O36      1.0000 0.48680  0.64100  0.85310  Biso   1.000  O
  O37      1.0000 0.82960  0.06170  0.37150  Biso   1.000  O
  O38      1.0000 0.67040  0.56170  0.12850  Biso   1.000  O
  O39      1.0000 0.17040  0.93830  0.62850  Biso   1.000  O
  O40      1.0000 0.32960  0.43830  0.87150  Biso   1.000  O
  O41      1.0000 0.81880  0.88150  0.39780  Biso   1.000  O
  O42      1.0000 0.68120  0.38150  0.10220  Biso   1.000  O
  O43      1.0000 0.18120  0.11850  0.60220  Biso   1.000  O
  O44      1.0000 0.31880  0.61850  0.89780  Biso   1.000  O
  O45      1.0000 0.05280  0.18720  0.38840  Biso   1.000  O
  O46      1.0000 0.44720  0.68720  0.11160  Biso   1.000  O
  O47      1.0000 0.94720  0.81280  0.61160  Biso   1.000  O
  O48      1.0000 0.55280  0.31280  0.88840  Biso   1.000  O
  O49      1.0000 0.14780  0.94880  0.36210  Biso   1.000  O
  O50      1.0000 0.35220  0.44880  0.13790  Biso   1.000  O
  O51      1.0000 0.85220  0.05120  0.63790  Biso   1.000  O
  O52      1.0000 0.64780  0.55120  0.86210  Biso   1.000  O
  O53      1.0000 0.03280  0.75490  0.45140  Biso   1.000  O
  O54      1.0000 0.46720  0.25490  0.04860  Biso   1.000  O
  O55      1.0000 0.96720  0.24510  0.54860  Biso   1.000  O
  O56      1.0000 0.53280  0.74510  0.95140  Biso   1.000  O
  O57      1.0000 0.74320  0.00940  0.47610  Biso   1.000  O
  O58      1.0000 0.75680  0.50940  0.02390  Biso   1.000  O
  O59      1.0000 0.25680  0.99060  0.52390  Biso   1.000  O
  O60      1.0000 0.24320  0.49060  0.97610  Biso   1.000  O
  O61      1.0000 0.70310  0.18510  0.42680  Biso   1.000  O
  O62      1.0000 0.79690  0.68510  0.07320  Biso   1.000  O
  O63      1.0000 0.29690  0.81490  0.57320  Biso   1.000  O
  O64      1.0000 0.20310  0.31490  0.92680  Biso   1.000  O
  O65      1.0000 0.16620  0.11280  0.29700  Biso   1.000  O
  O66      1.0000 0.33380  0.61280  0.20300  Biso   1.000  O
  O67      1.0000 0.83380  0.88720  0.70300  Biso   1.000  O
  O68      1.0000 0.66620  0.38720  0.79700  Biso   1.000  O
  O69      1.0000 0.15120  0.75520  0.35120  Biso   1.000  O
  O70      1.0000 0.34880  0.25520  0.14880  Biso   1.000  O
  O71      1.0000 0.84880  0.24480  0.64880  Biso   1.000  O
  O72      1.0000 0.65120  0.74480  0.85120  Biso   1.000  O
  O73      1.0000 0.68010  0.82570  0.48040  Biso   1.000  O
  O74      1.0000 0.81990  0.32570  0.01960  Biso   1.000  O
  O75      1.0000 0.31990  0.17430  0.51960  Biso   1.000  O
  O76      1.0000 0.18010  0.67430  0.98040  Biso   1.000  O
  O77      1.0000 0.02230  0.35380  0.44710  Biso   1.000  O
  O78      1.0000 0.47770  0.85380  0.05290  Biso   1.000  O
  O79      1.0000 0.97770  0.64620  0.55290  Biso   1.000  O
  O80      1.0000 0.52230  0.14620  0.94710  Biso   1.000  O
  C1       1.0000 0.88750  0.47580  0.36220  Biso   1.000  C
  C2       1.0000 0.61250  0.97580  0.13780  Biso   1.000  C
  C3       1.0000 0.11250  0.52420  0.63780  Biso   1.000  C
  C4       1.0000 0.38750  0.02420  0.86220  Biso   1.000  C
  H1       1.0000 0.89000  0.41280  0.37400  Biso   1.000  H
  H2       1.0000 0.61000  0.91280  0.12600  Biso   1.000  H
  H3       1.0000 0.11000  0.58720  0.62600  Biso   1.000  H
  H4       1.0000 0.39000  0.08720  0.87400  Biso   1.000  H
  C5       1.0000 0.82290  0.50950  0.32400  Biso   1.000  C
  C6       1.0000 0.67710  0.00950  0.17600  Biso   1.000  C
  C7       1.0000 0.17710  0.49050  0.67600  Biso   1.000  C
  C8       1.0000 0.32290  0.99050  0.82400  Biso   1.000  C
  H5       1.0000 0.77310  0.47760  0.30450  Biso   1.000  H
  H6       1.0000 0.72690  0.97760  0.19550  Biso   1.000  H
  H7       1.0000 0.22690  0.52240  0.69550  Biso   1.000  H
  H8       1.0000 0.27310  0.02240  0.80450  Biso   1.000  H
  C9       1.0000 0.92220  0.61990  0.35540  Biso   1.000  C
  C10      1.0000 0.57780  0.11990  0.14460  Biso   1.000  C
  C11      1.0000 0.07780  0.38010  0.64460  Biso   1.000  C
  C12      1.0000 0.42220  0.88010  0.85540  Biso   1.000  C
  H9       1.0000 0.95140  0.67790  0.36050  Biso   1.000  H
  H10      1.0000 0.54860  0.17790  0.13950  Biso   1.000  H
  H11      1.0000 0.04860  0.32210  0.63950  Biso   1.000  H
  H12      1.0000 0.45140  0.82210  0.86050  Biso   1.000  H
  C13      1.0000 0.80010  0.67470  0.27610  Biso   1.000  C
  C14      1.0000 0.69990  0.17470  0.22390  Biso   1.000  C
  C15      1.0000 0.19990  0.32530  0.72390  Biso   1.000  C
  C16      1.0000 0.30010  0.82530  0.77610  Biso   1.000  C
  H13      1.0000 0.82960  0.73540  0.28290  Biso   1.000  H
  H14      1.0000 0.67040  0.23540  0.21710  Biso   1.000  H
  H15      1.0000 0.17040  0.26460  0.71710  Biso   1.000  H
  H16      1.0000 0.32960  0.76460  0.78290  Biso   1.000  H
  H17      1.0000 0.80670  0.65720  0.23150  Biso   1.000  H
  H18      1.0000 0.69330  0.15720  0.26850  Biso   1.000  H
  H19      1.0000 0.19330  0.34280  0.76850  Biso   1.000  H
  H20      1.0000 0.30670  0.84280  0.73150  Biso   1.000  H
  C17      1.0000 0.69730  0.67970  0.29260  Biso   1.000  C
  C18      1.0000 0.80270  0.17970  0.20740  Biso   1.000  C
  C19      1.0000 0.30270  0.32030  0.70740  Biso   1.000  C
  C20      1.0000 0.19730  0.82030  0.79260  Biso   1.000  C
  H21      1.0000 0.66630  0.62190  0.27970  Biso   1.000  H
  H22      1.0000 0.83370  0.12190  0.22030  Biso   1.000  H
  H23      1.0000 0.33370  0.37810  0.72030  Biso   1.000  H
  H24      1.0000 0.16630  0.87810  0.77970  Biso   1.000  H
  H25      1.0000 0.69140  0.68660  0.33870  Biso   1.000  H
  H26      1.0000 0.80860  0.18660  0.16130  Biso   1.000  H
  H27      1.0000 0.30860  0.31340  0.66130  Biso   1.000  H
  H28      1.0000 0.19140  0.81340  0.83870  Biso   1.000  H
  C21      1.0000 0.64960  0.76400  0.25800  Biso   1.000  C
  C22      1.0000 0.85040  0.26400  0.24200  Biso   1.000  C
  C23      1.0000 0.35040  0.23600  0.74200  Biso   1.000  C
  C24      1.0000 0.14960  0.73600  0.75800  Biso   1.000  C
  H29      1.0000 0.67220  0.76770  0.21450  Biso   1.000  H
  H30      1.0000 0.82780  0.26770  0.28550  Biso   1.000  H
  H31      1.0000 0.32780  0.23230  0.78550  Biso   1.000  H
  H32      1.0000 0.17220  0.73230  0.71450  Biso   1.000  H
  H33      1.0000 0.66760  0.82160  0.27990  Biso   1.000  H
  H34      1.0000 0.83240  0.32160  0.22010  Biso   1.000  H
  H35      1.0000 0.33240  0.17840  0.72010  Biso   1.000  H
  H36      1.0000 0.16760  0.67840  0.77990  Biso   1.000  H
  C25      1.0000 0.54280  0.75700  0.25550  Biso   1.000  C
  C26      1.0000 0.95720  0.25700  0.24450  Biso   1.000  C
  C27      1.0000 0.45720  0.24300  0.74450  Biso   1.000  C
  C28      1.0000 0.04280  0.74300  0.75550  Biso   1.000  C
  H37      1.0000 0.52470  0.70040  0.23250  Biso   1.000  H
  H38      1.0000 0.97530  0.20040  0.26750  Biso   1.000  H
  H39      1.0000 0.47530  0.29960  0.76750  Biso   1.000  H
  H40      1.0000 0.02470  0.79960  0.73250  Biso   1.000  H
  H41      1.0000 0.51750  0.81030  0.23190  Biso   1.000  H
  H42      1.0000 0.98250  0.31030  0.26810  Biso   1.000  H
  H43      1.0000 0.48250  0.18970  0.76810  Biso   1.000  H
  H44      1.0000 0.01750  0.68970  0.73190  Biso   1.000  H
  C29      1.0000 0.41390  0.71940  0.32850  Biso   1.000  C
  C30      1.0000 0.08610  0.21940  0.17150  Biso   1.000  C
  C31      1.0000 0.58610  0.28060  0.67150  Biso   1.000  C
  C32      1.0000 0.91390  0.78060  0.82850  Biso   1.000  C
  H45      1.0000 0.37530  0.69050  0.29780  Biso   1.000  H
  H46      1.0000 0.12470  0.19050  0.20220  Biso   1.000  H
  H47      1.0000 0.62470  0.30950  0.70220  Biso   1.000  H
  H48      1.0000 0.87530  0.80950  0.79780  Biso   1.000  H
  C33      1.0000 0.39280  0.73380  0.39080  Biso   1.000  C
  C34      1.0000 0.10720  0.23380  0.10920  Biso   1.000  C
  C35      1.0000 0.60720  0.26620  0.60920  Biso   1.000  C
  C36      1.0000 0.89280  0.76620  0.89080  Biso   1.000  C
  H49      1.0000 0.33670  0.71880  0.41010  Biso   1.000  H
  H50      1.0000 0.16330  0.21880  0.08990  Biso   1.000  H
  H51      1.0000 0.66330  0.28120  0.58990  Biso   1.000  H
  H52      1.0000 0.83670  0.78120  0.91010  Biso   1.000  H
  C37      1.0000 0.53350  0.78600  0.37500  Biso   1.000  C
  C38      1.0000 0.96650  0.28600  0.12500  Biso   1.000  C
  C39      1.0000 0.46650  0.21400  0.62500  Biso   1.000  C
  C40      1.0000 0.03350  0.71400  0.87500  Biso   1.000  C
  H53      1.0000 0.59240  0.81230  0.38210  Biso   1.000  H
  H54      1.0000 0.90760  0.31230  0.11790  Biso   1.000  H
  H55      1.0000 0.40760  0.18770  0.61790  Biso   1.000  H
  H56      1.0000 0.09240  0.68770  0.88210  Biso   1.000  H
  C41      1.0000 0.48220  0.72590  0.64620  Biso   1.000  C
  C42      1.0000 0.01780  0.22590  0.85380  Biso   1.000  C
  C43      1.0000 0.51780  0.27410  0.35380  Biso   1.000  C
  C44      1.0000 0.98220  0.77410  0.14620  Biso   1.000  C
  H57      1.0000 0.41740  0.72940  0.64880  Biso   1.000  H
  H58      1.0000 0.08260  0.22940  0.85120  Biso   1.000  H
  H59      1.0000 0.58260  0.27060  0.35120  Biso   1.000  H
  H60      1.0000 0.91740  0.77060  0.14880  Biso   1.000  H
  C45      1.0000 0.53650  0.69520  0.69210  Biso   1.000  C
  C46      1.0000 0.96350  0.19520  0.80790  Biso   1.000  C
  C47      1.0000 0.46350  0.30480  0.30790  Biso   1.000  C
  C48      1.0000 0.03650  0.80480  0.19210  Biso   1.000  C
  H61      1.0000 0.51850  0.67420  0.73230  Biso   1.000  H
  H62      1.0000 0.98150  0.17420  0.76770  Biso   1.000  H
  H63      1.0000 0.48150  0.32580  0.26770  Biso   1.000  H
  H64      1.0000 0.01850  0.82580  0.23230  Biso   1.000  H
  C49      1.0000 0.61810  0.73570  0.61020  Biso   1.000  C
  C50      1.0000 0.88190  0.23570  0.88980  Biso   1.000  C
  C51      1.0000 0.38190  0.26430  0.38980  Biso   1.000  C
  C52      1.0000 0.11810  0.76430  0.11020  Biso   1.000  C
  H65      1.0000 0.66790  0.74750  0.58330  Biso   1.000  H
  H66      1.0000 0.83210  0.24750  0.91670  Biso   1.000  H
  H67      1.0000 0.33210  0.25250  0.41670  Biso   1.000  H
  H68      1.0000 0.16790  0.75250  0.08330  Biso   1.000  H
  C53      1.0000 0.71730  0.68280  0.70080  Biso   1.000  C
  C54      1.0000 0.78270  0.18280  0.79920  Biso   1.000  C
  C55      1.0000 0.28270  0.31720  0.29920  Biso   1.000  C
  C56      1.0000 0.21730  0.81720  0.20080  Biso   1.000  C
  H69      1.0000 0.76420  0.72320  0.68210  Biso   1.000  H
  H70      1.0000 0.73580  0.22320  0.81790  Biso   1.000  H
  H71      1.0000 0.23580  0.27680  0.31790  Biso   1.000  H
  H72      1.0000 0.26420  0.77680  0.18210  Biso   1.000  H
  H73      1.0000 0.71290  0.69930  0.74580  Biso   1.000  H
  H74      1.0000 0.78710  0.19930  0.75420  Biso   1.000  H
  H75      1.0000 0.28710  0.30070  0.25420  Biso   1.000  H
  H76      1.0000 0.21290  0.80070  0.24580  Biso   1.000  H
  C57      1.0000 0.74780  0.58550  0.69570  Biso   1.000  C
  C58      1.0000 0.75220  0.08550  0.80430  Biso   1.000  C
  C59      1.0000 0.25220  0.41450  0.30430  Biso   1.000  C
  C60      1.0000 0.24780  0.91450  0.19570  Biso   1.000  C
  H77      1.0000 0.69890  0.54410  0.71060  Biso   1.000  H
  H78      1.0000 0.80110  0.04410  0.78940  Biso   1.000  H
  H79      1.0000 0.30110  0.45590  0.28940  Biso   1.000  H
  H80      1.0000 0.19890  0.95590  0.21060  Biso   1.000  H
  H81      1.0000 0.75960  0.57050  0.65120  Biso   1.000  H
  H82      1.0000 0.74040  0.07050  0.84880  Biso   1.000  H
  H83      1.0000 0.24040  0.42950  0.34880  Biso   1.000  H
  H84      1.0000 0.25960  0.92950  0.15120  Biso   1.000  H
  C61      1.0000 0.83870  0.57070  0.73700  Biso   1.000  C
  C62      1.0000 0.66130  0.07070  0.76300  Biso   1.000  C
  C63      1.0000 0.16130  0.42930  0.26300  Biso   1.000  C
  C64      1.0000 0.33870  0.92930  0.23700  Biso   1.000  C
  H85      1.0000 0.83820  0.61560  0.77200  Biso   1.000  H
  H86      1.0000 0.66180  0.11560  0.72800  Biso   1.000  H
  H87      1.0000 0.16180  0.38440  0.22800  Biso   1.000  H
  H88      1.0000 0.33820  0.88440  0.27200  Biso   1.000  H
  H89      1.0000 0.89170  0.58620  0.71060  Biso   1.000  H
  H90      1.0000 0.60830  0.08620  0.78940  Biso   1.000  H
  H91      1.0000 0.10830  0.41380  0.28940  Biso   1.000  H
  H92      1.0000 0.39170  0.91380  0.21060  Biso   1.000  H
  C65      1.0000 0.85370  0.48450  0.76230  Biso   1.000  C
  C66      1.0000 0.64630  0.98450  0.73770  Biso   1.000  C
  C67      1.0000 0.14630  0.51550  0.23770  Biso   1.000  C
  C68      1.0000 0.35370  0.01550  0.26230  Biso   1.000  C
  H93      1.0000 0.79540  0.46020  0.77860  Biso   1.000  H
  H94      1.0000 0.70460  0.96020  0.72140  Biso   1.000  H
  H95      1.0000 0.20460  0.53980  0.22140  Biso   1.000  H
  H96      1.0000 0.29540  0.03980  0.27860  Biso   1.000  H
  H97      1.0000 0.87430  0.44230  0.72880  Biso   1.000  H
  H98      1.0000 0.62570  0.94230  0.77120  Biso   1.000  H
  H99      1.0000 0.12570  0.55770  0.27120  Biso   1.000  H
  H100     1.0000 0.37430  0.05770  0.22880  Biso   1.000  H
  C69      1.0000 0.01960  0.47870  0.80340  Biso   1.000  C
  C70      1.0000 0.48040  0.97870  0.69660  Biso   1.000  C
  C71      1.0000 0.98040  0.52130  0.19660  Biso   1.000  C
  C72      1.0000 0.51960  0.02130  0.30340  Biso   1.000  C
  H101     1.0000 0.04910  0.47330  0.76420  Biso   1.000  H
  H102     1.0000 0.45090  0.97330  0.73580  Biso   1.000  H
  H103     1.0000 0.95090  0.52670  0.23580  Biso   1.000  H
  H104     1.0000 0.54910  0.02670  0.26420  Biso   1.000  H
  C73      1.0000 0.06460  0.48050  0.86480  Biso   1.000  C
  C74      1.0000 0.43540  0.98050  0.63520  Biso   1.000  C
  C75      1.0000 0.93540  0.51950  0.13520  Biso   1.000  C
  C76      1.0000 0.56460  0.01950  0.36480  Biso   1.000  C
  H105     1.0000 0.12880  0.47640  0.87300  Biso   1.000  H
  H106     1.0000 0.37120  0.97640  0.62700  Biso   1.000  H
  H107     1.0000 0.87120  0.52360  0.12700  Biso   1.000  H
  H108     1.0000 0.62880  0.02360  0.37300  Biso   1.000  H
  N1       1.0000 0.99450  0.48960  0.91170  Biso   1.000  N
  N2       1.0000 0.50550  0.98960  0.58830  Biso   1.000  N
  N3       1.0000 0.00550  0.51040  0.08830  Biso   1.000  N
  N4       1.0000 0.49450  0.01040  0.41170  Biso   1.000  N
  C77      1.0000 0.90610  0.49350  0.87920  Biso   1.000  C
  C78      1.0000 0.59390  0.99350  0.62080  Biso   1.000  C
  C79      1.0000 0.09390  0.50650  0.12080  Biso   1.000  C
  C80      1.0000 0.40610  0.00650  0.37920  Biso   1.000  C
  H109     1.0000 0.84820  0.49940  0.89850  Biso   1.000  H
  H110     1.0000 0.65180  0.99940  0.60150  Biso   1.000  H
  H111     1.0000 0.15180  0.50060  0.10150  Biso   1.000  H
  H112     1.0000 0.34820  0.00060  0.39850  Biso   1.000  H
  N5       1.0000 0.92160  0.48670  0.81230  Biso   1.000  N
  N6       1.0000 0.57840  0.98670  0.68770  Biso   1.000  N
  N7       1.0000 0.07840  0.51330  0.18770  Biso   1.000  N
  N8       1.0000 0.42160  0.01330  0.31230  Biso   1.000  N
  C81      1.0000 0.30760  0.57920  0.52620  Biso   1.000  C
  C82      1.0000 0.19240  0.07920  0.97380  Biso   1.000  C
  C83      1.0000 0.69240  0.42080  0.47380  Biso   1.000  C
  C84      1.0000 0.80760  0.92080  0.02620  Biso   1.000  C
  H113     1.0000 0.35210  0.62030  0.54340  Biso   1.000  H
  H114     1.0000 0.14790  0.12030  0.95660  Biso   1.000  H
  H115     1.0000 0.64790  0.37970  0.45660  Biso   1.000  H
  H116     1.0000 0.85210  0.87970  0.04340  Biso   1.000  H
  C85      1.0000 0.22070  0.60500  0.49670  Biso   1.000  C
  C86      1.0000 0.27930  0.10500  0.00330  Biso   1.000  C
  C87      1.0000 0.77930  0.39500  0.50330  Biso   1.000  C
  C88      1.0000 0.72070  0.89500  0.99670  Biso   1.000  C
  H117     1.0000 0.19840  0.66590  0.49120  Biso   1.000  H
  H118     1.0000 0.30160  0.16590  0.00880  Biso   1.000  H
  H119     1.0000 0.80160  0.33410  0.50880  Biso   1.000  H
  H120     1.0000 0.69840  0.83410  0.99120  Biso   1.000  H
  N9       1.0000 0.17390  0.52150  0.47700  Biso   1.000  N
  N10      1.0000 0.32610  0.02150  0.02300  Biso   1.000  N
  N11      1.0000 0.82610  0.47850  0.52300  Biso   1.000  N
  N12      1.0000 0.67390  0.97850  0.97700  Biso   1.000  N
  C89      1.0000 0.23190  0.44400  0.49440  Biso   1.000  C
  C90      1.0000 0.26810  0.94400  0.00560  Biso   1.000  C
  C91      1.0000 0.76810  0.55600  0.50560  Biso   1.000  C
  C92      1.0000 0.73190  0.05600  0.99440  Biso   1.000  C
  H121     1.0000 0.21810  0.38100  0.48710  Biso   1.000  H
  H122     1.0000 0.28190  0.88100  0.01290  Biso   1.000  H
  H123     1.0000 0.78190  0.61900  0.51290  Biso   1.000  H
  H124     1.0000 0.71810  0.11900  0.98710  Biso   1.000  H
  N13      1.0000 0.31440  0.47970  0.52480  Biso   1.000  N
  N14      1.0000 0.18560  0.97970  0.97520  Biso   1.000  N
  N15      1.0000 0.68560  0.52030  0.47520  Biso   1.000  N
  N16      1.0000 0.81440  0.02030  0.02480  Biso   1.000  N
  C93      1.0000 0.39550  0.45800  0.54900  Biso   1.000  C
  C94      1.0000 0.10450  0.95800  0.95100  Biso   1.000  C
  C95      1.0000 0.60450  0.54200  0.45100  Biso   1.000  C
  C96      1.0000 0.89550  0.04200  0.04900  Biso   1.000  C
  H125     1.0000 0.38870  0.46330  0.59510  Biso   1.000  H
  H126     1.0000 0.11130  0.96330  0.90490  Biso   1.000  H
  H127     1.0000 0.61130  0.53670  0.40490  Biso   1.000  H
  H128     1.0000 0.88870  0.03670  0.09510  Biso   1.000  H
  H129     1.0000 0.40330  0.39200  0.54010  Biso   1.000  H
  H130     1.0000 0.09670  0.89200  0.95990  Biso   1.000  H
  H131     1.0000 0.59670  0.60800  0.45990  Biso   1.000  H
  H132     1.0000 0.90330  0.10800  0.04010  Biso   1.000  H
  C97      1.0000 0.49150  0.50300  0.53520  Biso   1.000  C
  C98      1.0000 0.00850  0.00300  0.96480  Biso   1.000  C
  C99      1.0000 0.50850  0.49700  0.46480  Biso   1.000  C
  C100     1.0000 0.99150  0.99700  0.03520  Biso   1.000  C
  H133     1.0000 0.54070  0.47060  0.55910  Biso   1.000  H
  H134     1.0000 0.95930  0.97060  0.94090  Biso   1.000  H
  H135     1.0000 0.45930  0.52940  0.44090  Biso   1.000  H
  H136     1.0000 0.04070  0.02940  0.05910  Biso   1.000  H
  H137     1.0000 0.49180  0.56860  0.54850  Biso   1.000  H
  H138     1.0000 0.00820  0.06860  0.95150  Biso   1.000  H
  H139     1.0000 0.50820  0.43140  0.45150  Biso   1.000  H
  H140     1.0000 0.99180  0.93140  0.04850  Biso   1.000  H
  N17      1.0000 0.95020  0.53900  0.38340  Biso   1.000  N
  N18      1.0000 0.54980  0.03900  0.11660  Biso   1.000  N
  N19      1.0000 0.04980  0.46100  0.61660  Biso   1.000  N
  N20      1.0000 0.45020  0.96100  0.88340  Biso   1.000  N
  N21      1.0000 0.84470  0.60300  0.31880  Biso   1.000  N
  N22      1.0000 0.65530  0.10300  0.18120  Biso   1.000  N
  N23      1.0000 0.15530  0.39700  0.68120  Biso   1.000  N
  N24      1.0000 0.34470  0.89700  0.81880  Biso   1.000  N
  N25      1.0000 0.47060  0.77510  0.42050  Biso   1.000  N
  N26      1.0000 0.02940  0.27510  0.07950  Biso   1.000  N
  N27      1.0000 0.52940  0.22490  0.57950  Biso   1.000  N
  N28      1.0000 0.97060  0.72490  0.92050  Biso   1.000  N
  N29      1.0000 0.50250  0.75490  0.31820  Biso   1.000  N
  N30      1.0000 0.99750  0.25490  0.18180  Biso   1.000  N
  N31      1.0000 0.49750  0.24510  0.68180  Biso   1.000  N
  N32      1.0000 0.00250  0.74510  0.81820  Biso   1.000  N
  N33      1.0000 0.53000  0.75220  0.59420  Biso   1.000  N
  N34      1.0000 0.97000  0.25220  0.90580  Biso   1.000  N
  N35      1.0000 0.47000  0.24780  0.40580  Biso   1.000  N
  N36      1.0000 0.03000  0.74780  0.09420  Biso   1.000  N
  N37      1.0000 0.62820  0.70020  0.66910  Biso   1.000  N
  N38      1.0000 0.87180  0.20020  0.83090  Biso   1.000  N
  N39      1.0000 0.37180  0.29980  0.33090  Biso   1.000  N
  N40      1.0000 0.12820  0.79980  0.16910  Biso   1.000  N
  Cu13     1.0000 0.48300  0.21500  0.49290  Biso   1.000  Cu
  Cu14     1.0000 0.01700  0.71500  0.00710  Biso   1.000  Cu
  Cu15     1.0000 0.51700  0.78500  0.50710  Biso   1.000  Cu
  Cu16     1.0000 0.98300  0.28500  0.99290  Biso   1.000  Cu
  O81      1.0000 0.01440  0.97350  0.42220  Biso   1.000  O
  O82      1.0000 0.48560  0.47350  0.07780  Biso   1.000  O
  O83      1.0000 0.98560  0.02650  0.57780  Biso   1.000  O
  O84      1.0000 0.51440  0.52650  0.92220  Biso   1.000  O
  O85      1.0000 0.92630  0.91320  0.53190  Biso   1.000  O
  O86      1.0000 0.57370  0.41320  0.96810  Biso   1.000  O
  O87      1.0000 0.07370  0.08680  0.46810  Biso   1.000  O
  O88      1.0000 0.42630  0.58680  0.03190  Biso   1.000  O
