data_image0
_cell_length_a       10.0948
_cell_length_b       4.6751
_cell_length_c       19.9262
_cell_angle_alpha    90
_cell_angle_beta     101.413
_cell_angle_gamma    90

_symmetry_space_group_name_H-M    "P 1"
_symmetry_int_tables_number       1

loop_
  _symmetry_equiv_pos_as_xyz
  'x, y, z'

loop_
  _atom_site_label
  _atom_site_occupancy
  _atom_site_fract_x
  _atom_site_fract_y
  _atom_site_fract_z
  _atom_site_thermal_displace_type
  _atom_site_B_iso_or_equiv
  _atom_site_type_symbol
  C1       1.0000 0.25860  0.63550  0.10490  Biso   1.000  C
  C2       1.0000 0.74140  0.13550  0.39510  Biso   1.000  C
  C3       1.0000 0.74140  0.36450  0.89510  Biso   1.000  C
  C4       1.0000 0.25860  0.86450  0.60490  Biso   1.000  C
  H1       1.0000 0.24410  0.72030  0.14500  Biso   1.000  H
  H2       1.0000 0.75590  0.22030  0.35500  Biso   1.000  H
  H3       1.0000 0.75590  0.27970  0.85500  Biso   1.000  H
  H4       1.0000 0.24410  0.77970  0.64500  Biso   1.000  H
  C5       1.0000 0.17410  0.71240  0.04300  Biso   1.000  C
  C6       1.0000 0.82590  0.21240  0.45700  Biso   1.000  C
  C7       1.0000 0.82590  0.28760  0.95700  Biso   1.000  C
  C8       1.0000 0.17410  0.78760  0.54300  Biso   1.000  C
  H5       1.0000 0.10250  0.83830  0.04230  Biso   1.000  H
  H6       1.0000 0.89750  0.33830  0.45770  Biso   1.000  H
  H7       1.0000 0.89750  0.16170  0.95770  Biso   1.000  H
  H8       1.0000 0.10250  0.66170  0.54230  Biso   1.000  H
  C9       1.0000 0.19980  0.59660  0.98300  Biso   1.000  C
  C10      1.0000 0.80020  0.09660  0.51700  Biso   1.000  C
  C11      1.0000 0.80020  0.40340  0.01700  Biso   1.000  C
  C12      1.0000 0.19980  0.90340  0.48300  Biso   1.000  C
  C13      1.0000 0.30230  0.39950  0.98770  Biso   1.000  C
  C14      1.0000 0.69770  0.89950  0.51230  Biso   1.000  C
  C15      1.0000 0.69770  0.60050  0.01230  Biso   1.000  C
  C16      1.0000 0.30230  0.10050  0.48770  Biso   1.000  C
  H9       1.0000 0.31950  0.30880  0.94870  Biso   1.000  H
  H10      1.0000 0.68050  0.80880  0.55130  Biso   1.000  H
  H11      1.0000 0.68050  0.69120  0.05130  Biso   1.000  H
  H12      1.0000 0.31950  0.19120  0.44870  Biso   1.000  H
  C17      1.0000 0.37920  0.33940  0.05140  Biso   1.000  C
  C18      1.0000 0.62080  0.83940  0.44860  Biso   1.000  C
  C19      1.0000 0.62080  0.66060  0.94860  Biso   1.000  C
  C20      1.0000 0.37920  0.16060  0.55140  Biso   1.000  C
  H13      1.0000 0.45110  0.21300  0.05380  Biso   1.000  H
  H14      1.0000 0.54890  0.71300  0.44620  Biso   1.000  H
  H15      1.0000 0.54890  0.78700  0.94620  Biso   1.000  H
  H16      1.0000 0.45110  0.28700  0.55380  Biso   1.000  H
  C21      1.0000 0.11260  0.69630  0.91580  Biso   1.000  C
  C22      1.0000 0.88740  0.19630  0.58420  Biso   1.000  C
  C23      1.0000 0.88740  0.30370  0.08420  Biso   1.000  C
  C24      1.0000 0.11260  0.80370  0.41580  Biso   1.000  C
  Cu1      1.0000 0.47120  0.32661  0.20235  Biso   1.000  Cu
  Cu2      1.0000 0.52880  0.82661  0.29765  Biso   1.000  Cu
  Cu3      1.0000 0.52880  0.67339  0.79765  Biso   1.000  Cu
  Cu4      1.0000 0.47120  0.17339  0.70235  Biso   1.000  Cu
  I1       1.0000 0.36000  0.44056  0.30259  Biso   1.000  I
  I2       1.0000 0.64000  0.94056  0.19741  Biso   1.000  I
  I3       1.0000 0.64000  0.55944  0.69741  Biso   1.000  I
  I4       1.0000 0.36000  0.05944  0.80259  Biso   1.000  I
  N1       1.0000 0.35760  0.44870  0.10900  Biso   1.000  N
  N2       1.0000 0.64240  0.94870  0.39100  Biso   1.000  N
  N3       1.0000 0.64240  0.55130  0.89100  Biso   1.000  N
  N4       1.0000 0.35760  0.05130  0.60900  Biso   1.000  N
  N5       1.0000 0.09060  0.50070  0.86580  Biso   1.000  N
  N6       1.0000 0.90940  0.00070  0.63420  Biso   1.000  N
  N7       1.0000 0.90940  0.49930  0.13420  Biso   1.000  N
  N8       1.0000 0.09060  0.99930  0.36580  Biso   1.000  N
  H17      1.0000 0.12450  0.33220  0.87300  Biso   1.000  H
  H18      1.0000 0.87550  0.83220  0.62700  Biso   1.000  H
  H19      1.0000 0.87550  0.66780  0.12700  Biso   1.000  H
  H20      1.0000 0.12450  0.16780  0.37300  Biso   1.000  H
  N9       1.0000 0.01230  0.57020  0.80180  Biso   1.000  N
  N10      1.0000 0.98770  0.07020  0.69820  Biso   1.000  N
  N11      1.0000 0.98770  0.42980  0.19820  Biso   1.000  N
  N12      1.0000 0.01230  0.92980  0.30180  Biso   1.000  N
  H21      1.0000 0.96130  0.71920  0.81000  Biso   1.000  H
  H22      1.0000 0.03870  0.21920  0.69000  Biso   1.000  H
  H23      1.0000 0.03870  0.28080  0.19000  Biso   1.000  H
  H24      1.0000 0.96130  0.78080  0.31000  Biso   1.000  H
  H25      1.0000 0.04480  0.61730  0.76430  Biso   1.000  H
  H26      1.0000 0.95520  0.11730  0.73570  Biso   1.000  H
  H27      1.0000 0.95520  0.38270  0.23570  Biso   1.000  H
  H28      1.0000 0.04480  0.88270  0.26430  Biso   1.000  H
  O1       1.0000 0.06950  0.93090  0.90990  Biso   1.000  O
  O2       1.0000 0.93050  0.43090  0.59010  Biso   1.000  O
  O3       1.0000 0.93050  0.06910  0.09010  Biso   1.000  O
  O4       1.0000 0.06950  0.56910  0.40990  Biso   1.000  O
