data_image0
_cell_length_a       13.7656
_cell_length_b       14.8306
_cell_length_c       16.0531
_cell_angle_alpha    117.47
_cell_angle_beta     109.431
_cell_angle_gamma    91.167

_symmetry_space_group_name_H-M    "P 1"
_symmetry_int_tables_number       1

loop_
  _symmetry_equiv_pos_as_xyz
  'x, y, z'

loop_
  _atom_site_label
  _atom_site_occupancy
  _atom_site_fract_x
  _atom_site_fract_y
  _atom_site_fract_z
  _atom_site_thermal_displace_type
  _atom_site_B_iso_or_equiv
  _atom_site_type_symbol
  Cu1      1.0000 0.72161  0.09150  0.29461  Biso   1.000  Cu
  Cu2      1.0000 0.27839  0.90850  0.70539  Biso   1.000  Cu
  C1       1.0000 0.74940  0.20010  0.52080  Biso   1.000  C
  C2       1.0000 0.25060  0.79990  0.47920  Biso   1.000  C
  H1       1.0000 0.79300  0.25730  0.53040  Biso   1.000  H
  H2       1.0000 0.20700  0.74270  0.46960  Biso   1.000  H
  C3       1.0000 0.73460  0.20500  0.60390  Biso   1.000  C
  C4       1.0000 0.26540  0.79500  0.39610  Biso   1.000  C
  H3       1.0000 0.76700  0.26480  0.66940  Biso   1.000  H
  H4       1.0000 0.23300  0.73520  0.33060  Biso   1.000  H
  C5       1.0000 0.67260  0.12210  0.58960  Biso   1.000  C
  C6       1.0000 0.32740  0.87790  0.41040  Biso   1.000  C
  H5       1.0000 0.66100  0.12370  0.64530  Biso   1.000  H
  H6       1.0000 0.33900  0.87630  0.35470  Biso   1.000  H
  C7       1.0000 0.62750  0.03680  0.49490  Biso   1.000  C
  C8       1.0000 0.37250  0.96320  0.50510  Biso   1.000  C
  H7       1.0000 0.58540  0.97820  0.48460  Biso   1.000  H
  H8       1.0000 0.41460  0.02180  0.51540  Biso   1.000  H
  C9       1.0000 0.64320  0.03640  0.41440  Biso   1.000  C
  C10      1.0000 0.35680  0.96360  0.58560  Biso   1.000  C
  C11      1.0000 0.60000  0.94720  0.31090  Biso   1.000  C
  C12      1.0000 0.40000  0.05280  0.68910  Biso   1.000  C
  C13      1.0000 0.53980  0.84850  0.26980  Biso   1.000  C
  C14      1.0000 0.46020  0.15150  0.73020  Biso   1.000  C
  H9       1.0000 0.51580  0.82160  0.30460  Biso   1.000  H
  H10      1.0000 0.48420  0.17840  0.69540  Biso   1.000  H
  C15      1.0000 0.52280  0.79930  0.16880  Biso   1.000  C
  C16      1.0000 0.47720  0.20070  0.83120  Biso   1.000  C
  H11      1.0000 0.48320  0.73100  0.11910  Biso   1.000  H
  H12      1.0000 0.51680  0.26900  0.88090  Biso   1.000  H
  C17      1.0000 0.58020  0.84840  0.05800  Biso   1.000  C
  C18      1.0000 0.41980  0.15160  0.94200  Biso   1.000  C
  H13      1.0000 0.54000  0.77810  0.00230  Biso   1.000  H
  H14      1.0000 0.46000  0.22190  0.99770  Biso   1.000  H
  H15      1.0000 0.65480  0.85180  0.06580  Biso   1.000  H
  H16      1.0000 0.34520  0.14820  0.93420  Biso   1.000  H
  C19      1.0000 0.53850  0.92770  0.02940  Biso   1.000  C
  C20      1.0000 0.46150  0.07230  0.97060  Biso   1.000  C
  C21      1.0000 0.59070  0.97240  0.99520  Biso   1.000  C
  C22      1.0000 0.40930  0.02760  0.00480  Biso   1.000  C
  H17      1.0000 0.65560  0.95440  0.99160  Biso   1.000  H
  H18      1.0000 0.34440  0.04560  0.00840  Biso   1.000  H
  C23      1.0000 0.44650  0.95700  0.03450  Biso   1.000  C
  C24      1.0000 0.55350  0.04300  0.96550  Biso   1.000  C
  H19      1.0000 0.40750  0.92850  0.05890  Biso   1.000  H
  H20      1.0000 0.59250  0.07150  0.94110  Biso   1.000  H
  C25      1.0000 0.89450  0.97410  0.44320  Biso   1.000  C
  C26      1.0000 0.10550  0.02590  0.55680  Biso   1.000  C
  H21      1.0000 0.82080  0.95640  0.40460  Biso   1.000  H
  H22      1.0000 0.17920  0.04360  0.59540  Biso   1.000  H
  C27      1.0000 0.96180  0.96280  0.39510  Biso   1.000  C
  C28      1.0000 0.03820  0.03720  0.60490  Biso   1.000  C
  C29      1.0000 0.91880  0.92150  0.28170  Biso   1.000  C
  C30      1.0000 0.08120  0.07850  0.71830  Biso   1.000  C
  H23      1.0000 0.95870  0.86940  0.25170  Biso   1.000  H
  H24      1.0000 0.04130  0.13060  0.74830  Biso   1.000  H
  H25      1.0000 0.84450  0.88530  0.25240  Biso   1.000  H
  H26      1.0000 0.15550  0.11470  0.74760  Biso   1.000  H
  C31      1.0000 0.98460  0.01740  0.20710  Biso   1.000  C
  C32      1.0000 0.01540  0.98260  0.79290  Biso   1.000  C
  H27      1.0000 0.03960  0.98250  0.19450  Biso   1.000  H
  H28      1.0000 0.96040  0.01750  0.80550  Biso   1.000  H
  C33      1.0000 0.95530  0.09110  0.18400  Biso   1.000  C
  C34      1.0000 0.04470  0.90890  0.81600  Biso   1.000  C
  H29      1.0000 0.98370  0.11840  0.15190  Biso   1.000  H
  H30      1.0000 0.01630  0.88160  0.84810  Biso   1.000  H
  C35      1.0000 0.87340  0.11900  0.21770  Biso   1.000  C
  C36      1.0000 0.12660  0.88100  0.78230  Biso   1.000  C
  C37      1.0000 0.80500  0.19270  0.21060  Biso   1.000  C
  C38      1.0000 0.19500  0.80730  0.78940  Biso   1.000  C
  C39      1.0000 0.82220  0.25650  0.17420  Biso   1.000  C
  C40      1.0000 0.17780  0.74350  0.82580  Biso   1.000  C
  H31      1.0000 0.88020  0.25690  0.15480  Biso   1.000  H
  H32      1.0000 0.11980  0.74310  0.84520  Biso   1.000  H
  C41      1.0000 0.75030  0.32140  0.16700  Biso   1.000  C
  C42      1.0000 0.24970  0.67860  0.83300  Biso   1.000  C
  H33      1.0000 0.75650  0.36430  0.13890  Biso   1.000  H
  H34      1.0000 0.24350  0.63570  0.86110  Biso   1.000  H
  C43      1.0000 0.67130  0.32180  0.20110  Biso   1.000  C
  C44      1.0000 0.32870  0.67820  0.79890  Biso   1.000  C
  H35      1.0000 0.62380  0.36690  0.19850  Biso   1.000  H
  H36      1.0000 0.37620  0.63310  0.80150  Biso   1.000  H
  C45      1.0000 0.65990  0.25750  0.23910  Biso   1.000  C
  C46      1.0000 0.34010  0.74250  0.76090  Biso   1.000  C
  H37      1.0000 0.60390  0.25810  0.26130  Biso   1.000  H
  H38      1.0000 0.39610  0.74190  0.73870  Biso   1.000  H
  N1       1.0000 0.70400  0.11700  0.42700  Biso   1.000  N
  N2       1.0000 0.29600  0.88300  0.57300  Biso   1.000  N
  N3       1.0000 0.61940  0.95630  0.23860  Biso   1.000  N
  N4       1.0000 0.38060  0.04370  0.76140  Biso   1.000  N
  N5       1.0000 0.57240  0.86510  0.15240  Biso   1.000  N
  N6       1.0000 0.42760  0.13490  0.84760  Biso   1.000  N
  N7       1.0000 0.92350  0.00080  0.25120  Biso   1.000  N
  N8       1.0000 0.07650  0.99920  0.74880  Biso   1.000  N
  N9       1.0000 0.85400  0.06300  0.25830  Biso   1.000  N
  N10      1.0000 0.14600  0.93700  0.74170  Biso   1.000  N
  N11      1.0000 0.72680  0.19410  0.24530  Biso   1.000  N
  N12      1.0000 0.27320  0.80590  0.75470  Biso   1.000  N
  C47      1.0000 0.06920  0.98870  0.45150  Biso   1.000  C
  C48      1.0000 0.93080  0.01130  0.54850  Biso   1.000  C
  H39      1.0000 0.11770  0.98150  0.41950  Biso   1.000  H
  H40      1.0000 0.88230  0.01850  0.58050  Biso   1.000  H
  Cu3      1.0000 0.30697  0.26815  0.47389  Biso   1.000  Cu
  Cu4      1.0000 0.69303  0.73185  0.52611  Biso   1.000  Cu
  C49      1.0000 0.32440  0.06050  0.30910  Biso   1.000  C
  C50      1.0000 0.67560  0.93950  0.69090  Biso   1.000  C
  H41      1.0000 0.36330  0.04680  0.36170  Biso   1.000  H
  H42      1.0000 0.63670  0.95320  0.63830  Biso   1.000  H
  C51      1.0000 0.29990  0.98540  0.21350  Biso   1.000  C
  C52      1.0000 0.70010  0.01460  0.78650  Biso   1.000  C
  H43      1.0000 0.32080  0.92100  0.19970  Biso   1.000  H
  H44      1.0000 0.67920  0.07900  0.80030  Biso   1.000  H
  C53      1.0000 0.24490  0.00190  0.13630  Biso   1.000  C
  C54      1.0000 0.75510  0.99810  0.86370  Biso   1.000  C
  H45      1.0000 0.22510  0.94840  0.06770  Biso   1.000  H
  H46      1.0000 0.77490  0.05160  0.93230  Biso   1.000  H
  C55      1.0000 0.21770  0.09700  0.15800  Biso   1.000  C
  C56      1.0000 0.78230  0.90300  0.84200  Biso   1.000  C
  H47      1.0000 0.17950  0.11060  0.10510  Biso   1.000  H
  H48      1.0000 0.82050  0.88940  0.89490  Biso   1.000  H
  C57      1.0000 0.24820  0.17290  0.26080  Biso   1.000  C
  C58      1.0000 0.75180  0.82710  0.73920  Biso   1.000  C
  C59      1.0000 0.21830  0.27400  0.28990  Biso   1.000  C
  C60      1.0000 0.78170  0.72600  0.71010  Biso   1.000  C
  C61      1.0000 0.17710  0.32390  0.23440  Biso   1.000  C
  C62      1.0000 0.82290  0.67610  0.76560  Biso   1.000  C
  H49      1.0000 0.15700  0.29690  0.16330  Biso   1.000  H
  H50      1.0000 0.84300  0.70310  0.83670  Biso   1.000  H
  C63      1.0000 0.17200  0.41980  0.30410  Biso   1.000  C
  C64      1.0000 0.82800  0.58020  0.69590  Biso   1.000  C
  H51      1.0000 0.14710  0.47270  0.29050  Biso   1.000  H
  H52      1.0000 0.85290  0.52730  0.70950  Biso   1.000  H
  C65      1.0000 0.20730  0.50850  0.49110  Biso   1.000  C
  C66      1.0000 0.79270  0.49150  0.50890  Biso   1.000  C
  H53      1.0000 0.23090  0.57660  0.49910  Biso   1.000  H
  H54      1.0000 0.76910  0.42340  0.50090  Biso   1.000  H
  H55      1.0000 0.25780  0.50350  0.54860  Biso   1.000  H
  H56      1.0000 0.74220  0.49650  0.45140  Biso   1.000  H
  C67      1.0000 0.09900  0.50350  0.49550  Biso   1.000  C
  C68      1.0000 0.90100  0.49650  0.50450  Biso   1.000  C
  C69      1.0000 0.08210  0.48260  0.56040  Biso   1.000  C
  C70      1.0000 0.91790  0.51740  0.43960  Biso   1.000  C
  H57      1.0000 0.13780  0.46890  0.60430  Biso   1.000  H
  H58      1.0000 0.86220  0.53110  0.39570  Biso   1.000  H
  C71      1.0000 0.01760  0.52020  0.43330  Biso   1.000  C
  C72      1.0000 0.98240  0.47980  0.56670  Biso   1.000  C
  H59      1.0000 0.02750  0.53410  0.38420  Biso   1.000  H
  H60      1.0000 0.97250  0.46590  0.61580  Biso   1.000  H
  C73      1.0000 0.09790  0.22430  0.49050  Biso   1.000  C
  C74      1.0000 0.90210  0.77570  0.50950  Biso   1.000  C
  H61      1.0000 0.07060  0.18850  0.41830  Biso   1.000  H
  H62      1.0000 0.92940  0.81150  0.58170  Biso   1.000  H
  C75      1.0000 0.02940  0.23050  0.53380  Biso   1.000  C
  C76      1.0000 0.97060  0.76950  0.46620  Biso   1.000  C
  H63      1.0000 0.95640  0.20150  0.49470  Biso   1.000  H
  H64      1.0000 0.04360  0.79850  0.50530  Biso   1.000  H
  C77      1.0000 0.06880  0.28000  0.63550  Biso   1.000  C
  C78      1.0000 0.93120  0.72000  0.36450  Biso   1.000  C
  H65      1.0000 0.02160  0.28440  0.66840  Biso   1.000  H
  H66      1.0000 0.97840  0.71560  0.33160  Biso   1.000  H
  C79      1.0000 0.17160  0.32400  0.69430  Biso   1.000  C
  C80      1.0000 0.82840  0.67600  0.30570  Biso   1.000  C
  H67      1.0000 0.19780  0.35880  0.76650  Biso   1.000  H
  H68      1.0000 0.80220  0.64120  0.23350  Biso   1.000  H
  C81      1.0000 0.23820  0.31420  0.63930  Biso   1.000  C
  C82      1.0000 0.76180  0.68580  0.36070  Biso   1.000  C
  C83      1.0000 0.33860  0.35930  0.68390  Biso   1.000  C
  C84      1.0000 0.66140  0.64070  0.31610  Biso   1.000  C
  C85      1.0000 0.40160  0.42260  0.78450  Biso   1.000  C
  C86      1.0000 0.59840  0.57740  0.21550  Biso   1.000  C
  H69      1.0000 0.38140  0.44130  0.84050  Biso   1.000  H
  H70      1.0000 0.61860  0.55870  0.15950  Biso   1.000  H
  C87      1.0000 0.49890  0.45430  0.79010  Biso   1.000  C
  C88      1.0000 0.50110  0.54570  0.20990  Biso   1.000  C
  H71      1.0000 0.55800  0.49880  0.85070  Biso   1.000  H
  H72      1.0000 0.44200  0.50120  0.14930  Biso   1.000  H
  N13      1.0000 0.49600  0.41060  0.69300  Biso   1.000  N
  N14      1.0000 0.50400  0.58940  0.30700  Biso   1.000  N
  N15      1.0000 0.39690  0.35190  0.62730  Biso   1.000  N
  N16      1.0000 0.60310  0.64810  0.37270  Biso   1.000  N
  C89      1.0000 0.56240  0.41070  0.64530  Biso   1.000  C
  C90      1.0000 0.43760  0.58930  0.35470  Biso   1.000  C
  H73      1.0000 0.55800  0.33800  0.59510  Biso   1.000  H
  H74      1.0000 0.44200  0.66200  0.40490  Biso   1.000  H
  H75      1.0000 0.63550  0.43830  0.69670  Biso   1.000  H
  H76      1.0000 0.36450  0.56170  0.30330  Biso   1.000  H
  C91      1.0000 0.54010  0.47420  0.59050  Biso   1.000  C
  C92      1.0000 0.45990  0.52580  0.40950  Biso   1.000  C
  C93      1.0000 0.51800  0.41800  0.49220  Biso   1.000  C
  C94      1.0000 0.48200  0.58200  0.50780  Biso   1.000  C
  H77      1.0000 0.52970  0.34960  0.47380  Biso   1.000  H
  H78      1.0000 0.47030  0.65040  0.52620  Biso   1.000  H
  C95      1.0000 0.52200  0.56580  0.60000  Biso   1.000  C
  C96      1.0000 0.47800  0.43420  0.40000  Biso   1.000  C
  H79      1.0000 0.53390  0.62220  0.66590  Biso   1.000  H
  H80      1.0000 0.46610  0.37780  0.33410  Biso   1.000  H
  N17      1.0000 0.29820  0.15550  0.33770  Biso   1.000  N
  N18      1.0000 0.70180  0.84450  0.66230  Biso   1.000  N
  N19      1.0000 0.23870  0.33820  0.38980  Biso   1.000  N
  N20      1.0000 0.76130  0.66180  0.61020  Biso   1.000  N
  N21      1.0000 0.20870  0.42530  0.39520  Biso   1.000  N
  N22      1.0000 0.79130  0.57470  0.60480  Biso   1.000  N
  N23      1.0000 0.19990  0.26280  0.53790  Biso   1.000  N
  N24      1.0000 0.80010  0.73720  0.46210  Biso   1.000  N
  Mo1      1.0000 0.02131  0.52811  0.12754  Biso   1.000  Mo
  Mo2      1.0000 0.97869  0.47189  0.87246  Biso   1.000  Mo
  Mo3      1.0000 0.24203  0.60557  0.05767  Biso   1.000  Mo
  Mo4      1.0000 0.75797  0.39443  0.94233  Biso   1.000  Mo
  Mo5      1.0000 0.05548  0.74231  0.06128  Biso   1.000  Mo
  Mo6      1.0000 0.94452  0.25769  0.93872  Biso   1.000  Mo
  Mo7      1.0000 0.21156  0.34348  0.98897  Biso   1.000  Mo
  Mo8      1.0000 0.78844  0.65652  0.01103  Biso   1.000  Mo
  O1       1.0000 0.08410  0.59760  0.08370  Biso   1.000  O
  O2       1.0000 0.91590  0.40240  0.91630  Biso   1.000  O
  O3       1.0000 0.07820  0.59360  0.25770  Biso   1.000  O
  O4       1.0000 0.92180  0.40640  0.74230  Biso   1.000  O
  O5       1.0000 0.31120  0.69460  0.18190  Biso   1.000  O
  O6       1.0000 0.68880  0.30540  0.81810  Biso   1.000  O
  O7       1.0000 0.88460  0.52550  0.09230  Biso   1.000  O
  O8       1.0000 0.11540  0.47450  0.90770  Biso   1.000  O
  O9       1.0000 0.27360  0.31480  0.90720  Biso   1.000  O
  O10      1.0000 0.72640  0.68520  0.09280  Biso   1.000  O
  O11      1.0000 0.16510  0.69150  0.01470  Biso   1.000  O
  O12      1.0000 0.83490  0.30850  0.98530  Biso   1.000  O
  O13      1.0000 0.02090  0.81950  0.00950  Biso   1.000  O
  O14      1.0000 0.97910  0.18050  0.99050  Biso   1.000  O
  O15      1.0000 0.24720  0.48440  0.07870  Biso   1.000  O
  O16      1.0000 0.75280  0.51560  0.92130  Biso   1.000  O
  O17      1.0000 0.26390  0.28640  0.05950  Biso   1.000  O
  O18      1.0000 0.73610  0.71360  0.94050  Biso   1.000  O
  O19      1.0000 0.12800  0.82740  0.18680  Biso   1.000  O
  O20      1.0000 0.87200  0.17260  0.81320  Biso   1.000  O
  O21      1.0000 0.04700  0.40230  0.08790  Biso   1.000  O
  O22      1.0000 0.95300  0.59770  0.91210  Biso   1.000  O
  O23      1.0000 0.07210  0.28040  0.91360  Biso   1.000  O
  O24      1.0000 0.92790  0.71960  0.08640  Biso   1.000  O
  O25      1.0000 0.33030  0.58980  0.00150  Biso   1.000  O
  O26      1.0000 0.66970  0.41020  0.99850  Biso   1.000  O
