data_image0
_cell_length_a       12.033
_cell_length_b       12.891
_cell_length_c       15.823
_cell_angle_alpha    90
_cell_angle_beta     107.72
_cell_angle_gamma    90

_symmetry_space_group_name_H-M    "P 1"
_symmetry_int_tables_number       1

loop_
  _symmetry_equiv_pos_as_xyz
  'x, y, z'

loop_
  _atom_site_label
  _atom_site_occupancy
  _atom_site_fract_x
  _atom_site_fract_y
  _atom_site_fract_z
  _atom_site_thermal_displace_type
  _atom_site_B_iso_or_equiv
  _atom_site_type_symbol
  Cu1      1.0000 0.57574  0.61433  0.04714  Biso   1.000  Cu
  Cu2      1.0000 0.92426  0.11433  0.45286  Biso   1.000  Cu
  Cu3      1.0000 0.42426  0.38567  0.95286  Biso   1.000  Cu
  Cu4      1.0000 0.07574  0.88567  0.54714  Biso   1.000  Cu
  Cu5      1.0000 0.80389  0.75885  0.18086  Biso   1.000  Cu
  Cu6      1.0000 0.69611  0.25885  0.31914  Biso   1.000  Cu
  Cu7      1.0000 0.19611  0.24115  0.81914  Biso   1.000  Cu
  Cu8      1.0000 0.30389  0.74115  0.68086  Biso   1.000  Cu
  Cu9      1.0000 0.90982  0.75401  0.84551  Biso   1.000  Cu
  Cu10     1.0000 0.59018  0.25401  0.65449  Biso   1.000  Cu
  Cu11     1.0000 0.09018  0.24599  0.15449  Biso   1.000  Cu
  Cu12     1.0000 0.40982  0.74599  0.34551  Biso   1.000  Cu
  N1       1.0000 0.54718  0.70824  0.14472  Biso   1.000  N
  N2       1.0000 0.95282  0.20824  0.35528  Biso   1.000  N
  N3       1.0000 0.45282  0.29176  0.85528  Biso   1.000  N
  N4       1.0000 0.04718  0.79176  0.64472  Biso   1.000  N
  N5       1.0000 0.64604  0.75382  0.20049  Biso   1.000  N
  N6       1.0000 0.85396  0.25382  0.29951  Biso   1.000  N
  N7       1.0000 0.35396  0.24618  0.79951  Biso   1.000  N
  N8       1.0000 0.14604  0.74618  0.70049  Biso   1.000  N
  N9       1.0000 0.50981  0.75746  0.26910  Biso   1.000  N
  N10      1.0000 0.99019  0.25746  0.23090  Biso   1.000  N
  N11      1.0000 0.49019  0.24254  0.73090  Biso   1.000  N
  N12      1.0000 0.00981  0.74254  0.76910  Biso   1.000  N
  N13      1.0000 0.30002  0.66551  0.22616  Biso   1.000  N
  N14      1.0000 0.19998  0.16551  0.27384  Biso   1.000  N
  N15      1.0000 0.69998  0.33449  0.77384  Biso   1.000  N
  N16      1.0000 0.80002  0.83449  0.72616  Biso   1.000  N
  N17      1.0000 0.62038  0.36458  0.22292  Biso   1.000  N
  N18      1.0000 0.87962  0.86458  0.27708  Biso   1.000  N
  N19      1.0000 0.37962  0.63542  0.77708  Biso   1.000  N
  N20      1.0000 0.12038  0.13542  0.72292  Biso   1.000  N
  N21      1.0000 0.58539  0.47947  0.11236  Biso   1.000  N
  N22      1.0000 0.91461  0.97947  0.38764  Biso   1.000  N
  N23      1.0000 0.41461  0.52053  0.88764  Biso   1.000  N
  N24      1.0000 0.08539  0.02053  0.61236  Biso   1.000  N
  N25      1.0000 0.54171  0.38491  0.07602  Biso   1.000  N
  N26      1.0000 0.95829  0.88491  0.42398  Biso   1.000  N
  N27      1.0000 0.45829  0.61509  0.92398  Biso   1.000  N
  N28      1.0000 0.04171  0.11509  0.57602  Biso   1.000  N
  N29      1.0000 0.58603  0.15755  0.21809  Biso   1.000  N
  N30      1.0000 0.91397  0.65755  0.28191  Biso   1.000  N
  N31      1.0000 0.41397  0.84245  0.78191  Biso   1.000  N
  N32      1.0000 0.08603  0.34245  0.71809  Biso   1.000  N
  N33      1.0000 0.80642  0.72312  0.06270  Biso   1.000  N
  N34      1.0000 0.69358  0.22312  0.43730  Biso   1.000  N
  N35      1.0000 0.19358  0.27688  0.93730  Biso   1.000  N
  N36      1.0000 0.30642  0.77688  0.56270  Biso   1.000  N
  N37      1.0000 0.71943  0.65887  0.01247  Biso   1.000  N
  N38      1.0000 0.78057  0.15887  0.48753  Biso   1.000  N
  N39      1.0000 0.28057  0.34113  0.98753  Biso   1.000  N
  N40      1.0000 0.21943  0.84113  0.51247  Biso   1.000  N
  N41      1.0000 0.83099  0.70616  0.92901  Biso   1.000  N
  N42      1.0000 0.66901  0.20616  0.57099  Biso   1.000  N
  N43      1.0000 0.16901  0.29384  0.07099  Biso   1.000  N
  N44      1.0000 0.33099  0.79384  0.42901  Biso   1.000  N
  N45      1.0000 0.00851  0.84303  0.96364  Biso   1.000  N
  N46      1.0000 0.49149  0.34303  0.53636  Biso   1.000  N
  N47      1.0000 0.99149  0.15697  0.03636  Biso   1.000  N
  N48      1.0000 0.50851  0.65697  0.46364  Biso   1.000  N
  C1       1.0000 0.19130  0.62840  0.20637  Biso   1.000  C
  C2       1.0000 0.30870  0.12840  0.29363  Biso   1.000  C
  C3       1.0000 0.80870  0.37160  0.79363  Biso   1.000  C
  C4       1.0000 0.69130  0.87160  0.70637  Biso   1.000  C
  H1       1.0000 0.15650  0.62490  0.25130  Biso   1.000  H
  H2       1.0000 0.34350  0.12490  0.24870  Biso   1.000  H
  H3       1.0000 0.84350  0.37510  0.74870  Biso   1.000  H
  H4       1.0000 0.65650  0.87510  0.75130  Biso   1.000  H
  C5       1.0000 0.12830  0.59500  0.12280  Biso   1.000  C
  C6       1.0000 0.37170  0.09500  0.37720  Biso   1.000  C
  C7       1.0000 0.87170  0.40500  0.87720  Biso   1.000  C
  C8       1.0000 0.62830  0.90500  0.62280  Biso   1.000  C
  H5       1.0000 0.05290  0.56970  0.11200  Biso   1.000  H
  H6       1.0000 0.44710  0.06970  0.38800  Biso   1.000  H
  H7       1.0000 0.94710  0.43030  0.88800  Biso   1.000  H
  H8       1.0000 0.55290  0.93030  0.61200  Biso   1.000  H
  C9       1.0000 0.17900  0.59970  0.05528  Biso   1.000  C
  C10      1.0000 0.32100  0.09970  0.44472  Biso   1.000  C
  C11      1.0000 0.82100  0.40030  0.94472  Biso   1.000  C
  C12      1.0000 0.67900  0.90030  0.55528  Biso   1.000  C
  H9       1.0000 0.13800  0.57830  0.99820  Biso   1.000  H
  H10      1.0000 0.36200  0.07830  0.50180  Biso   1.000  H
  H11      1.0000 0.86200  0.42170  0.00180  Biso   1.000  H
  H12      1.0000 0.63800  0.92170  0.49820  Biso   1.000  H
  C13      1.0000 0.29240  0.63720  0.07446  Biso   1.000  C
  C14      1.0000 0.20760  0.13720  0.42554  Biso   1.000  C
  C15      1.0000 0.70760  0.36280  0.92554  Biso   1.000  C
  C16      1.0000 0.79240  0.86280  0.57446  Biso   1.000  C
  H13      1.0000 0.32890  0.64060  0.03050  Biso   1.000  H
  H14      1.0000 0.17110  0.14060  0.46950  Biso   1.000  H
  H15      1.0000 0.67110  0.35940  0.96950  Biso   1.000  H
  H16      1.0000 0.82890  0.85940  0.53050  Biso   1.000  H
  C17      1.0000 0.34986  0.66919  0.15994  Biso   1.000  C
  C18      1.0000 0.15014  0.16919  0.34006  Biso   1.000  C
  C19      1.0000 0.65014  0.33081  0.84006  Biso   1.000  C
  C20      1.0000 0.84986  0.83081  0.65994  Biso   1.000  C
  C21      1.0000 0.46857  0.71137  0.18855  Biso   1.000  C
  C22      1.0000 0.03143  0.21137  0.31145  Biso   1.000  C
  C23      1.0000 0.53143  0.28863  0.81145  Biso   1.000  C
  C24      1.0000 0.96857  0.78863  0.68855  Biso   1.000  C
  C25      1.0000 0.61972  0.78131  0.27303  Biso   1.000  C
  C26      1.0000 0.88028  0.28131  0.22697  Biso   1.000  C
  C27      1.0000 0.38028  0.21869  0.72697  Biso   1.000  C
  C28      1.0000 0.11972  0.71869  0.77303  Biso   1.000  C
  H17      1.0000 0.67210  0.81370  0.32150  Biso   1.000  H
  H18      1.0000 0.82790  0.31370  0.17850  Biso   1.000  H
  H19      1.0000 0.32790  0.18630  0.67850  Biso   1.000  H
  H20      1.0000 0.17210  0.68630  0.82150  Biso   1.000  H
  C29      1.0000 0.63023  0.46299  0.19908  Biso   1.000  C
  C30      1.0000 0.86977  0.96299  0.30092  Biso   1.000  C
  C31      1.0000 0.36977  0.53701  0.80092  Biso   1.000  C
  C32      1.0000 0.13023  0.03701  0.69908  Biso   1.000  C
  H21      1.0000 0.66510  0.51480  0.23930  Biso   1.000  H
  H22      1.0000 0.83490  0.01480  0.26070  Biso   1.000  H
  H23      1.0000 0.33490  0.48520  0.76070  Biso   1.000  H
  H24      1.0000 0.16510  0.98520  0.73930  Biso   1.000  H
  C33      1.0000 0.56481  0.31899  0.14403  Biso   1.000  C
  C34      1.0000 0.93519  0.81899  0.35597  Biso   1.000  C
  C35      1.0000 0.43519  0.68101  0.85597  Biso   1.000  C
  C36      1.0000 0.06481  0.18101  0.64403  Biso   1.000  C
  C37      1.0000 0.53774  0.20737  0.14050  Biso   1.000  C
  C38      1.0000 0.96226  0.70737  0.35950  Biso   1.000  C
  C39      1.0000 0.46226  0.79263  0.85950  Biso   1.000  C
  C40      1.0000 0.03774  0.29263  0.64050  Biso   1.000  C
  C41      1.0000 0.46867  0.15695  0.06553  Biso   1.000  C
  C42      1.0000 0.03133  0.65695  0.43447  Biso   1.000  C
  C43      1.0000 0.53133  0.84305  0.93447  Biso   1.000  C
  C44      1.0000 0.96867  0.34305  0.56553  Biso   1.000  C
  H25      1.0000 0.43810  0.19280  0.01250  Biso   1.000  H
  H26      1.0000 0.06190  0.69280  0.48750  Biso   1.000  H
  H27      1.0000 0.56190  0.80720  0.98750  Biso   1.000  H
  H28      1.0000 0.93810  0.30720  0.51250  Biso   1.000  H
  C45      1.0000 0.44606  0.05249  0.07087  Biso   1.000  C
  C46      1.0000 0.05394  0.55249  0.42913  Biso   1.000  C
  C47      1.0000 0.55394  0.94751  0.92913  Biso   1.000  C
  C48      1.0000 0.94606  0.44751  0.57087  Biso   1.000  C
  H29      1.0000 0.39940  0.01720  0.02150  Biso   1.000  H
  H30      1.0000 0.10060  0.51720  0.47850  Biso   1.000  H
  H31      1.0000 0.60060  0.98280  0.97850  Biso   1.000  H
  H32      1.0000 0.89940  0.48280  0.52150  Biso   1.000  H
  C49      1.0000 0.49370  0.00084  0.15066  Biso   1.000  C
  C50      1.0000 0.00630  0.50084  0.34934  Biso   1.000  C
  C51      1.0000 0.50630  0.99916  0.84934  Biso   1.000  C
  C52      1.0000 0.99370  0.49916  0.65066  Biso   1.000  C
  H33      1.0000 0.47890  0.93070  0.15590  Biso   1.000  H
  H34      1.0000 0.02110  0.43070  0.34410  Biso   1.000  H
  H35      1.0000 0.52110  0.06930  0.84410  Biso   1.000  H
  H36      1.0000 0.97890  0.56930  0.65590  Biso   1.000  H
  C53      1.0000 0.56340  0.05560  0.22186  Biso   1.000  C
  C54      1.0000 0.93660  0.55560  0.27814  Biso   1.000  C
  C55      1.0000 0.43660  0.94440  0.77814  Biso   1.000  C
  C56      1.0000 0.06340  0.44440  0.72186  Biso   1.000  C
  H37      1.0000 0.59640  0.02060  0.27500  Biso   1.000  H
  H38      1.0000 0.90360  0.52060  0.22500  Biso   1.000  H
  H39      1.0000 0.40360  0.97940  0.72500  Biso   1.000  H
  H40      1.0000 0.09640  0.47940  0.77500  Biso   1.000  H
  C57      1.0000 0.73779  0.65138  0.93393  Biso   1.000  C
  C58      1.0000 0.76221  0.15138  0.56607  Biso   1.000  C
  C59      1.0000 0.26221  0.34862  0.06607  Biso   1.000  C
  C60      1.0000 0.23779  0.84862  0.43393  Biso   1.000  C
  H41      1.0000 0.69100  0.61230  0.88710  Biso   1.000  H
  H42      1.0000 0.80900  0.11230  0.61290  Biso   1.000  H
  H43      1.0000 0.30900  0.38770  0.11290  Biso   1.000  H
  H44      1.0000 0.19100  0.88770  0.38710  Biso   1.000  H
  C61      1.0000 0.87037  0.74922  0.01087  Biso   1.000  C
  C62      1.0000 0.62963  0.24922  0.48913  Biso   1.000  C
  C63      1.0000 0.12963  0.25078  0.98913  Biso   1.000  C
  C64      1.0000 0.37037  0.75078  0.51087  Biso   1.000  C
  C65      1.0000 0.97290  0.81726  0.03376  Biso   1.000  C
  C66      1.0000 0.52710  0.31726  0.46624  Biso   1.000  C
  C67      1.0000 0.02710  0.18274  0.96624  Biso   1.000  C
  C68      1.0000 0.47290  0.68274  0.53376  Biso   1.000  C
  C69      1.0000 0.02900  0.85180  0.11917  Biso   1.000  C
  C70      1.0000 0.47100  0.35180  0.38083  Biso   1.000  C
  C71      1.0000 0.97100  0.14820  0.88083  Biso   1.000  C
  C72      1.0000 0.52900  0.64820  0.61917  Biso   1.000  C
  H45      1.0000 0.00220  0.83260  0.16620  Biso   1.000  H
  H46      1.0000 0.49780  0.33260  0.33380  Biso   1.000  H
  H47      1.0000 0.99780  0.16740  0.83380  Biso   1.000  H
  H48      1.0000 0.50220  0.66740  0.66620  Biso   1.000  H
  C73      1.0000 0.12580  0.91550  0.13320  Biso   1.000  C
  C74      1.0000 0.37420  0.41550  0.36680  Biso   1.000  C
  C75      1.0000 0.87420  0.08450  0.86680  Biso   1.000  C
  C76      1.0000 0.62580  0.58450  0.63320  Biso   1.000  C
  H49      1.0000 0.16580  0.93890  0.18990  Biso   1.000  H
  H50      1.0000 0.33420  0.43890  0.31010  Biso   1.000  H
  H51      1.0000 0.83420  0.06110  0.81010  Biso   1.000  H
  H52      1.0000 0.66580  0.56110  0.68990  Biso   1.000  H
  C77      1.0000 0.16170  0.94340  0.06150  Biso   1.000  C
  C78      1.0000 0.33830  0.44340  0.43850  Biso   1.000  C
  C79      1.0000 0.83830  0.05660  0.93850  Biso   1.000  C
  C80      1.0000 0.66170  0.55660  0.56150  Biso   1.000  C
  H53      1.0000 0.22510  0.98760  0.06880  Biso   1.000  H
  H54      1.0000 0.27490  0.48760  0.43120  Biso   1.000  H
  H55      1.0000 0.77490  0.01240  0.93120  Biso   1.000  H
  H56      1.0000 0.72510  0.51240  0.56880  Biso   1.000  H
  C81      1.0000 0.10280  0.90510  0.97920  Biso   1.000  C
  C82      1.0000 0.39720  0.40510  0.52080  Biso   1.000  C
  C83      1.0000 0.89720  0.09490  0.02080  Biso   1.000  C
  C84      1.0000 0.60280  0.59490  0.47920  Biso   1.000  C
  H57      1.0000 0.12910  0.92290  0.93160  Biso   1.000  H
  H58      1.0000 0.37090  0.42290  0.56840  Biso   1.000  H
  H59      1.0000 0.87090  0.07710  0.06840  Biso   1.000  H
  H60      1.0000 0.62910  0.57710  0.43160  Biso   1.000  H
