data_image0
_cell_length_a       5.923
_cell_length_b       9.4858
_cell_length_c       30.568
_cell_angle_alpha    90
_cell_angle_beta     90
_cell_angle_gamma    90

_symmetry_space_group_name_H-M    "P 1"
_symmetry_int_tables_number       1

loop_
  _symmetry_equiv_pos_as_xyz
  'x, y, z'

loop_
  _atom_site_label
  _atom_site_occupancy
  _atom_site_fract_x
  _atom_site_fract_y
  _atom_site_fract_z
  _atom_site_thermal_displace_type
  _atom_site_B_iso_or_equiv
  _atom_site_type_symbol
  Br1      1.0000 0.65886  0.39995  0.00725  Biso   1.000  Br
  Br2      1.0000 0.84114  0.60005  0.50725  Biso   1.000  Br
  Br3      1.0000 0.34114  0.89995  0.49275  Biso   1.000  Br
  Br4      1.0000 0.15886  0.10005  0.99275  Biso   1.000  Br
  Cu1      1.0000 0.89823  0.23387  0.03921  Biso   1.000  Cu
  Cu2      1.0000 0.60177  0.76613  0.53921  Biso   1.000  Cu
  Cu3      1.0000 0.10177  0.73387  0.46079  Biso   1.000  Cu
  Cu4      1.0000 0.39823  0.26613  0.96079  Biso   1.000  Cu
  S1       1.0000 0.63420  0.00970  0.06220  Biso   1.000  S
  S2       1.0000 0.86580  0.99030  0.56220  Biso   1.000  S
  S3       1.0000 0.36580  0.50970  0.43780  Biso   1.000  S
  S4       1.0000 0.13420  0.49030  0.93780  Biso   1.000  S
  S5       1.0000 0.25980  0.84970  0.21988  Biso   1.000  S
  S6       1.0000 0.24020  0.15030  0.71988  Biso   1.000  S
  S7       1.0000 0.74020  0.34970  0.28012  Biso   1.000  S
  S8       1.0000 0.75980  0.65030  0.78012  Biso   1.000  S
  C1       1.0000 0.91800  0.82290  0.08730  Biso   1.000  C
  C2       1.0000 0.58200  0.17710  0.58730  Biso   1.000  C
  C3       1.0000 0.08200  0.32290  0.41270  Biso   1.000  C
  C4       1.0000 0.41800  0.67710  0.91270  Biso   1.000  C
  H1       1.0000 0.03880  0.77770  0.10080  Biso   1.000  H
  H2       1.0000 0.46120  0.22230  0.60080  Biso   1.000  H
  H3       1.0000 0.96120  0.27770  0.39920  Biso   1.000  H
  H4       1.0000 0.53880  0.72230  0.89920  Biso   1.000  H
  N1       1.0000 0.29140  0.11270  0.16807  Biso   1.000  N
  N2       1.0000 0.20860  0.88730  0.66807  Biso   1.000  N
  N3       1.0000 0.70860  0.61270  0.33193  Biso   1.000  N
  N4       1.0000 0.79140  0.38730  0.83193  Biso   1.000  N
  H5       1.0000 0.37420  0.08990  0.19010  Biso   1.000  H
  H6       1.0000 0.12580  0.91010  0.69010  Biso   1.000  H
  H7       1.0000 0.62580  0.58990  0.30990  Biso   1.000  H
  H8       1.0000 0.87420  0.41010  0.80990  Biso   1.000  H
  C5       1.0000 0.12330  0.03730  0.15730  Biso   1.000  C
  C6       1.0000 0.37670  0.96270  0.65730  Biso   1.000  C
  C7       1.0000 0.87670  0.53730  0.34270  Biso   1.000  C
  C8       1.0000 0.62330  0.46270  0.84270  Biso   1.000  C
  C9       1.0000 0.05750  0.91750  0.18570  Biso   1.000  C
  C10      1.0000 0.44250  0.08250  0.68570  Biso   1.000  C
  C11      1.0000 0.94250  0.41750  0.31430  Biso   1.000  C
  C12      1.0000 0.55750  0.58250  0.81430  Biso   1.000  C
  C13      1.0000 0.99000  0.06980  0.11740  Biso   1.000  C
  C14      1.0000 0.51000  0.93020  0.61740  Biso   1.000  C
  C15      1.0000 0.01000  0.56980  0.38260  Biso   1.000  C
  C16      1.0000 0.49000  0.43020  0.88260  Biso   1.000  C
  C17      1.0000 0.34220  0.23900  0.14250  Biso   1.000  C
  C18      1.0000 0.15780  0.76100  0.64250  Biso   1.000  C
  C19      1.0000 0.65780  0.73900  0.35750  Biso   1.000  C
  C20      1.0000 0.84220  0.26100  0.85750  Biso   1.000  C
  H9       1.0000 0.43070  0.20870  0.11700  Biso   1.000  H
  H10      1.0000 0.06930  0.79130  0.61700  Biso   1.000  H
  H11      1.0000 0.56930  0.70870  0.38300  Biso   1.000  H
  H12      1.0000 0.93070  0.29130  0.88300  Biso   1.000  H
  C21      1.0000 0.13150  0.30350  0.12550  Biso   1.000  C
  C22      1.0000 0.36850  0.69650  0.62550  Biso   1.000  C
  C23      1.0000 0.86850  0.80350  0.37450  Biso   1.000  C
  C24      1.0000 0.63150  0.19650  0.87450  Biso   1.000  C
  H13      1.0000 0.04050  0.33210  0.15080  Biso   1.000  H
  H14      1.0000 0.45950  0.66790  0.65080  Biso   1.000  H
  H15      1.0000 0.95950  0.83210  0.34920  Biso   1.000  H
  H16      1.0000 0.54050  0.16790  0.84920  Biso   1.000  H
  C25      1.0000 0.86590  0.96310  0.09300  Biso   1.000  C
  C26      1.0000 0.63410  0.03690  0.59300  Biso   1.000  C
  C27      1.0000 0.13410  0.46310  0.40700  Biso   1.000  C
  C28      1.0000 0.36590  0.53690  0.90700  Biso   1.000  C
  N5       1.0000 0.99920  0.19700  0.10053  Biso   1.000  N
  N6       1.0000 0.50080  0.80300  0.60053  Biso   1.000  N
  N7       1.0000 0.00080  0.69700  0.39947  Biso   1.000  N
  N8       1.0000 0.49920  0.30300  0.89947  Biso   1.000  N
  H17      1.0000 0.86510  0.22390  0.11240  Biso   1.000  H
  H18      1.0000 0.63490  0.77610  0.61240  Biso   1.000  H
  H19      1.0000 0.13490  0.72390  0.38760  Biso   1.000  H
  H20      1.0000 0.36510  0.27610  0.88760  Biso   1.000  H
  C29      1.0000 0.86970  0.74210  0.22300  Biso   1.000  C
  C30      1.0000 0.63030  0.25790  0.72300  Biso   1.000  C
  C31      1.0000 0.13030  0.24210  0.27700  Biso   1.000  C
  C32      1.0000 0.36970  0.75790  0.77700  Biso   1.000  C
  H21      1.0000 0.74700  0.68640  0.23090  Biso   1.000  H
  H22      1.0000 0.75300  0.31360  0.73090  Biso   1.000  H
  H23      1.0000 0.25300  0.18640  0.26910  Biso   1.000  H
  H24      1.0000 0.24700  0.81360  0.76910  Biso   1.000  H
  C33      1.0000 0.17730  0.43380  0.09850  Biso   1.000  C
  C34      1.0000 0.32270  0.56620  0.59850  Biso   1.000  C
  C35      1.0000 0.82270  0.93380  0.40150  Biso   1.000  C
  C36      1.0000 0.67730  0.06620  0.90150  Biso   1.000  C
  H25      1.0000 0.03560  0.47800  0.09050  Biso   1.000  H
  H26      1.0000 0.46440  0.52200  0.59050  Biso   1.000  H
  H27      1.0000 0.96440  0.97800  0.40950  Biso   1.000  H
  H28      1.0000 0.53560  0.02200  0.90950  Biso   1.000  H
  H29      1.0000 0.25580  0.40780  0.07190  Biso   1.000  H
  H30      1.0000 0.24420  0.59220  0.57190  Biso   1.000  H
  H31      1.0000 0.74420  0.90780  0.42810  Biso   1.000  H
  H32      1.0000 0.75580  0.09220  0.92810  Biso   1.000  H
  C37      1.0000 0.07540  0.72760  0.24070  Biso   1.000  C
  C38      1.0000 0.42460  0.27240  0.74070  Biso   1.000  C
  C39      1.0000 0.92460  0.22760  0.25930  Biso   1.000  C
  C40      1.0000 0.57540  0.77240  0.75930  Biso   1.000  C
  H33      1.0000 0.11330  0.66020  0.26150  Biso   1.000  H
  H34      1.0000 0.38670  0.33980  0.76150  Biso   1.000  H
  H35      1.0000 0.88670  0.16020  0.23850  Biso   1.000  H
  H36      1.0000 0.61330  0.83980  0.73850  Biso   1.000  H
  C41      1.0000 0.32200  0.53800  0.12490  Biso   1.000  C
  C42      1.0000 0.17800  0.46200  0.62490  Biso   1.000  C
  C43      1.0000 0.67800  0.03800  0.37510  Biso   1.000  C
  C44      1.0000 0.82200  0.96200  0.87510  Biso   1.000  C
  H37      1.0000 0.35760  0.61910  0.10690  Biso   1.000  H
  H38      1.0000 0.14240  0.38090  0.60690  Biso   1.000  H
  H39      1.0000 0.64240  0.11910  0.39310  Biso   1.000  H
  H40      1.0000 0.85760  0.88090  0.89310  Biso   1.000  H
  H41      1.0000 0.23690  0.57090  0.15000  Biso   1.000  H
  H42      1.0000 0.26310  0.42910  0.65000  Biso   1.000  H
  H43      1.0000 0.76310  0.07090  0.35000  Biso   1.000  H
  H44      1.0000 0.73690  0.92910  0.85000  Biso   1.000  H
  C45      1.0000 0.53680  0.47040  0.14020  Biso   1.000  C
  C46      1.0000 0.96320  0.52960  0.64020  Biso   1.000  C
  C47      1.0000 0.46320  0.97040  0.35980  Biso   1.000  C
  C48      1.0000 0.03680  0.02960  0.85980  Biso   1.000  C
  H45      1.0000 0.62330  0.53780  0.15720  Biso   1.000  H
  H46      1.0000 0.87670  0.46220  0.65720  Biso   1.000  H
  H47      1.0000 0.37670  0.03780  0.34280  Biso   1.000  H
  H48      1.0000 0.12330  0.96220  0.84280  Biso   1.000  H
  H49      1.0000 0.62670  0.44320  0.11500  Biso   1.000  H
  H50      1.0000 0.87330  0.55680  0.61500  Biso   1.000  H
  H51      1.0000 0.37330  0.94320  0.38500  Biso   1.000  H
  H52      1.0000 0.12670  0.05680  0.88500  Biso   1.000  H
  C49      1.0000 0.85700  0.85110  0.19100  Biso   1.000  C
  C50      1.0000 0.64300  0.14890  0.69100  Biso   1.000  C
  C51      1.0000 0.14300  0.35110  0.30900  Biso   1.000  C
  C52      1.0000 0.35700  0.64890  0.80900  Biso   1.000  C
  H53      1.0000 0.72650  0.87390  0.17570  Biso   1.000  H
  H54      1.0000 0.77350  0.12610  0.67570  Biso   1.000  H
  H55      1.0000 0.27350  0.37390  0.32430  Biso   1.000  H
  H56      1.0000 0.22650  0.62610  0.82430  Biso   1.000  H
  C53      1.0000 0.48720  0.34050  0.16810  Biso   1.000  C
  C54      1.0000 0.01280  0.65950  0.66810  Biso   1.000  C
  C55      1.0000 0.51280  0.84050  0.33190  Biso   1.000  C
  C56      1.0000 0.98720  0.15950  0.83190  Biso   1.000  C
  H57      1.0000 0.62760  0.29500  0.17630  Biso   1.000  H
  H58      1.0000 0.87240  0.70500  0.67630  Biso   1.000  H
  H59      1.0000 0.37240  0.79500  0.32370  Biso   1.000  H
  H60      1.0000 0.12760  0.20500  0.82370  Biso   1.000  H
  H61      1.0000 0.40930  0.36840  0.19470  Biso   1.000  H
  H62      1.0000 0.09070  0.63160  0.69470  Biso   1.000  H
  H63      1.0000 0.59070  0.86840  0.30530  Biso   1.000  H
  H64      1.0000 0.90930  0.13160  0.80530  Biso   1.000  H
  C57      1.0000 0.60830  0.84210  0.04310  Biso   1.000  C
  C58      1.0000 0.89170  0.15790  0.54310  Biso   1.000  C
  C59      1.0000 0.39170  0.34210  0.45690  Biso   1.000  C
  C60      1.0000 0.10830  0.65790  0.95690  Biso   1.000  C
  H65      1.0000 0.49570  0.81350  0.02380  Biso   1.000  H
  H66      1.0000 0.00430  0.18650  0.52380  Biso   1.000  H
  H67      1.0000 0.50430  0.31350  0.47620  Biso   1.000  H
  H68      1.0000 0.99570  0.68650  0.97620  Biso   1.000  H
  C61      1.0000 0.76610  0.75670  0.05870  Biso   1.000  C
  C62      1.0000 0.73390  0.24330  0.55870  Biso   1.000  C
  C63      1.0000 0.23390  0.25670  0.44130  Biso   1.000  C
  C64      1.0000 0.26610  0.74330  0.94130  Biso   1.000  C
  H69      1.0000 0.77540  0.66180  0.05130  Biso   1.000  H
  H70      1.0000 0.72460  0.33820  0.55130  Biso   1.000  H
  H71      1.0000 0.22460  0.16180  0.44870  Biso   1.000  H
  H72      1.0000 0.27540  0.83820  0.94870  Biso   1.000  H
