data_image0
_cell_length_a       29.738
_cell_length_b       10.2118
_cell_length_c       21.417
_cell_angle_alpha    90
_cell_angle_beta     133.185
_cell_angle_gamma    90

_symmetry_space_group_name_H-M    "P 1"
_symmetry_int_tables_number       1

loop_
  _symmetry_equiv_pos_as_xyz
  'x, y, z'

loop_
  _atom_site_label
  _atom_site_occupancy
  _atom_site_fract_x
  _atom_site_fract_y
  _atom_site_fract_z
  _atom_site_thermal_displace_type
  _atom_site_B_iso_or_equiv
  _atom_site_type_symbol
  Cu1      1.0000 0.99152  0.78466  0.35171  Biso   1.000  Cu
  Cu2      1.0000 0.00848  0.78466  0.14829  Biso   1.000  Cu
  Cu3      1.0000 0.49152  0.28466  0.35171  Biso   1.000  Cu
  Cu4      1.0000 0.50848  0.28466  0.14829  Biso   1.000  Cu
  Cu5      1.0000 0.00848  0.21534  0.64829  Biso   1.000  Cu
  Cu6      1.0000 0.99152  0.21534  0.85171  Biso   1.000  Cu
  Cu7      1.0000 0.50848  0.71534  0.64829  Biso   1.000  Cu
  Cu8      1.0000 0.49152  0.71534  0.85171  Biso   1.000  Cu
  Cu9      1.0000 0.07132  0.60326  0.34469  Biso   1.000  Cu
  Cu10     1.0000 0.92868  0.60326  0.15531  Biso   1.000  Cu
  Cu11     1.0000 0.57132  0.10326  0.34469  Biso   1.000  Cu
  Cu12     1.0000 0.42868  0.10326  0.15531  Biso   1.000  Cu
  Cu13     1.0000 0.92868  0.39674  0.65531  Biso   1.000  Cu
  Cu14     1.0000 0.07132  0.39674  0.84469  Biso   1.000  Cu
  Cu15     1.0000 0.42868  0.89674  0.65531  Biso   1.000  Cu
  Cu16     1.0000 0.57132  0.89674  0.84469  Biso   1.000  Cu
  C1       1.0000 0.89895  0.16250  0.41150  Biso   1.000  C
  C2       1.0000 0.10105  0.16250  0.08850  Biso   1.000  C
  C3       1.0000 0.39895  0.66250  0.41150  Biso   1.000  C
  C4       1.0000 0.60105  0.66250  0.08850  Biso   1.000  C
  C5       1.0000 0.10105  0.83750  0.58850  Biso   1.000  C
  C6       1.0000 0.89895  0.83750  0.91150  Biso   1.000  C
  C7       1.0000 0.60105  0.33750  0.58850  Biso   1.000  C
  C8       1.0000 0.39895  0.33750  0.91150  Biso   1.000  C
  H1       1.0000 0.88180  0.18220  0.43390  Biso   1.000  H
  H2       1.0000 0.11820  0.18220  0.06610  Biso   1.000  H
  H3       1.0000 0.38180  0.68220  0.43390  Biso   1.000  H
  H4       1.0000 0.61820  0.68220  0.06610  Biso   1.000  H
  H5       1.0000 0.11820  0.81780  0.56610  Biso   1.000  H
  H6       1.0000 0.88180  0.81780  0.93390  Biso   1.000  H
  H7       1.0000 0.61820  0.31780  0.56610  Biso   1.000  H
  H8       1.0000 0.38180  0.31780  0.93390  Biso   1.000  H
  C9       1.0000 0.91187  0.03440  0.40570  Biso   1.000  C
  C10      1.0000 0.08813  0.03440  0.09430  Biso   1.000  C
  C11      1.0000 0.41187  0.53440  0.40570  Biso   1.000  C
  C12      1.0000 0.58813  0.53440  0.09430  Biso   1.000  C
  C13      1.0000 0.08813  0.96560  0.59430  Biso   1.000  C
  C14      1.0000 0.91187  0.96560  0.90570  Biso   1.000  C
  C15      1.0000 0.58813  0.46560  0.59430  Biso   1.000  C
  C16      1.0000 0.41187  0.46560  0.90570  Biso   1.000  C
  C17      1.0000 0.94012  0.00550  0.37620  Biso   1.000  C
  C18      1.0000 0.05988  0.00550  0.12380  Biso   1.000  C
  C19      1.0000 0.44012  0.50550  0.37620  Biso   1.000  C
  C20      1.0000 0.55988  0.50550  0.12380  Biso   1.000  C
  C21      1.0000 0.05988  0.99450  0.62380  Biso   1.000  C
  C22      1.0000 0.94012  0.99450  0.87620  Biso   1.000  C
  C23      1.0000 0.55988  0.49450  0.62380  Biso   1.000  C
  C24      1.0000 0.44012  0.49450  0.87620  Biso   1.000  C
  C25      1.0000 0.95475  0.10350  0.34780  Biso   1.000  C
  C26      1.0000 0.04525  0.10350  0.15220  Biso   1.000  C
  C27      1.0000 0.45475  0.60350  0.34780  Biso   1.000  C
  C28      1.0000 0.54525  0.60350  0.15220  Biso   1.000  C
  C29      1.0000 0.04525  0.89650  0.65220  Biso   1.000  C
  C30      1.0000 0.95475  0.89650  0.84780  Biso   1.000  C
  C31      1.0000 0.54525  0.39650  0.65220  Biso   1.000  C
  C32      1.0000 0.45475  0.39650  0.84780  Biso   1.000  C
  H9       1.0000 0.97360  0.08490  0.32770  Biso   1.000  H
  H10      1.0000 0.02640  0.08490  0.17230  Biso   1.000  H
  H11      1.0000 0.47360  0.58490  0.32770  Biso   1.000  H
  H12      1.0000 0.52640  0.58490  0.17230  Biso   1.000  H
  H13      1.0000 0.02640  0.91510  0.67230  Biso   1.000  H
  H14      1.0000 0.97360  0.91510  0.82770  Biso   1.000  H
  H15      1.0000 0.52640  0.41510  0.67230  Biso   1.000  H
  H16      1.0000 0.47360  0.41510  0.82770  Biso   1.000  H
  C33      1.0000 0.94009  0.22910  0.35070  Biso   1.000  C
  C34      1.0000 0.05991  0.22910  0.14930  Biso   1.000  C
  C35      1.0000 0.44009  0.72910  0.35070  Biso   1.000  C
  C36      1.0000 0.55991  0.72910  0.14930  Biso   1.000  C
  C37      1.0000 0.05991  0.77090  0.64930  Biso   1.000  C
  C38      1.0000 0.94009  0.77090  0.85070  Biso   1.000  C
  C39      1.0000 0.55991  0.27090  0.64930  Biso   1.000  C
  C40      1.0000 0.44009  0.27090  0.85070  Biso   1.000  C
  H17      1.0000 0.94850  0.29700  0.33100  Biso   1.000  H
  H18      1.0000 0.05150  0.29700  0.16900  Biso   1.000  H
  H19      1.0000 0.44850  0.79700  0.33100  Biso   1.000  H
  H20      1.0000 0.55150  0.79700  0.16900  Biso   1.000  H
  H21      1.0000 0.05150  0.70300  0.66900  Biso   1.000  H
  H22      1.0000 0.94850  0.70300  0.83100  Biso   1.000  H
  H23      1.0000 0.55150  0.20300  0.66900  Biso   1.000  H
  H24      1.0000 0.44850  0.20300  0.83100  Biso   1.000  H
  C41      1.0000 0.91315  0.25840  0.38210  Biso   1.000  C
  C42      1.0000 0.08685  0.25840  0.11790  Biso   1.000  C
  C43      1.0000 0.41315  0.75840  0.38210  Biso   1.000  C
  C44      1.0000 0.58685  0.75840  0.11790  Biso   1.000  C
  C45      1.0000 0.08685  0.74160  0.61790  Biso   1.000  C
  C46      1.0000 0.91315  0.74160  0.88210  Biso   1.000  C
  C47      1.0000 0.58685  0.24160  0.61790  Biso   1.000  C
  C48      1.0000 0.41315  0.24160  0.88210  Biso   1.000  C
  H25      1.0000 0.90440  0.34530  0.38340  Biso   1.000  H
  H26      1.0000 0.09560  0.34530  0.11660  Biso   1.000  H
  H27      1.0000 0.40440  0.84530  0.38340  Biso   1.000  H
  H28      1.0000 0.59560  0.84530  0.11660  Biso   1.000  H
  H29      1.0000 0.09560  0.65470  0.61660  Biso   1.000  H
  H30      1.0000 0.90440  0.65470  0.88340  Biso   1.000  H
  H31      1.0000 0.59560  0.15470  0.61660  Biso   1.000  H
  H32      1.0000 0.40440  0.15470  0.88340  Biso   1.000  H
  C49      1.0000 0.92632  0.82140  0.41030  Biso   1.000  C
  C50      1.0000 0.07368  0.82140  0.08970  Biso   1.000  C
  C51      1.0000 0.42632  0.32140  0.41030  Biso   1.000  C
  C52      1.0000 0.57368  0.32140  0.08970  Biso   1.000  C
  C53      1.0000 0.07368  0.17860  0.58970  Biso   1.000  C
  C54      1.0000 0.92632  0.17860  0.91030  Biso   1.000  C
  C55      1.0000 0.57368  0.67860  0.58970  Biso   1.000  C
  C56      1.0000 0.42632  0.67860  0.91030  Biso   1.000  C
  C57      1.0000 0.87895  0.89470  0.46610  Biso   1.000  C
  C58      1.0000 0.12105  0.89470  0.03390  Biso   1.000  C
  C59      1.0000 0.37895  0.39470  0.46610  Biso   1.000  C
  C60      1.0000 0.62105  0.39470  0.03390  Biso   1.000  C
  C61      1.0000 0.12105  0.10530  0.53390  Biso   1.000  C
  C62      1.0000 0.87895  0.10530  0.96610  Biso   1.000  C
  C63      1.0000 0.62105  0.60530  0.53390  Biso   1.000  C
  C64      1.0000 0.37895  0.60530  0.96610  Biso   1.000  C
  H33      1.0000 0.89510  0.96440  0.50750  Biso   1.000  H
  H34      1.0000 0.10490  0.96440  0.99250  Biso   1.000  H
  H35      1.0000 0.39510  0.46440  0.50750  Biso   1.000  H
  H36      1.0000 0.60490  0.46440  0.99250  Biso   1.000  H
  H37      1.0000 0.10490  0.03560  0.49250  Biso   1.000  H
  H38      1.0000 0.89510  0.03560  0.00750  Biso   1.000  H
  H39      1.0000 0.60490  0.53560  0.49250  Biso   1.000  H
  H40      1.0000 0.39510  0.53560  0.00750  Biso   1.000  H
  H41      1.0000 0.89630  0.81340  0.49820  Biso   1.000  H
  H42      1.0000 0.10370  0.81340  0.00180  Biso   1.000  H
  H43      1.0000 0.39630  0.31340  0.49820  Biso   1.000  H
  H44      1.0000 0.60370  0.31340  0.00180  Biso   1.000  H
  H45      1.0000 0.10370  0.18660  0.50180  Biso   1.000  H
  H46      1.0000 0.89630  0.18660  0.99820  Biso   1.000  H
  H47      1.0000 0.60370  0.68660  0.50180  Biso   1.000  H
  H48      1.0000 0.39630  0.68660  0.99820  Biso   1.000  H
  C65      1.0000 0.80813  0.88870  0.40976  Biso   1.000  C
  C66      1.0000 0.19187  0.88870  0.09024  Biso   1.000  C
  C67      1.0000 0.30813  0.38870  0.40976  Biso   1.000  C
  C68      1.0000 0.69187  0.38870  0.09024  Biso   1.000  C
  C69      1.0000 0.19187  0.11130  0.59024  Biso   1.000  C
  C70      1.0000 0.80813  0.11130  0.90976  Biso   1.000  C
  C71      1.0000 0.69187  0.61130  0.59024  Biso   1.000  C
  C72      1.0000 0.30813  0.61130  0.90976  Biso   1.000  C
  C73      1.0000 0.77577  0.79290  0.33560  Biso   1.000  C
  C74      1.0000 0.22423  0.79290  0.16440  Biso   1.000  C
  C75      1.0000 0.27577  0.29290  0.33560  Biso   1.000  C
  C76      1.0000 0.72423  0.29290  0.16440  Biso   1.000  C
  C77      1.0000 0.22423  0.20710  0.66440  Biso   1.000  C
  C78      1.0000 0.77577  0.20710  0.83560  Biso   1.000  C
  C79      1.0000 0.72423  0.70710  0.66440  Biso   1.000  C
  C80      1.0000 0.27577  0.70710  0.83560  Biso   1.000  C
  H49      1.0000 0.73480  0.77590  0.31290  Biso   1.000  H
  H50      1.0000 0.26520  0.77590  0.18710  Biso   1.000  H
  H51      1.0000 0.23480  0.27590  0.31290  Biso   1.000  H
  H52      1.0000 0.76520  0.27590  0.18710  Biso   1.000  H
  H53      1.0000 0.26520  0.22410  0.68710  Biso   1.000  H
  H54      1.0000 0.73480  0.22410  0.81290  Biso   1.000  H
  H55      1.0000 0.76520  0.72410  0.68710  Biso   1.000  H
  H56      1.0000 0.23480  0.72410  0.81290  Biso   1.000  H
  H57      1.0000 0.79820  0.71070  0.35740  Biso   1.000  H
  H58      1.0000 0.20180  0.71070  0.14260  Biso   1.000  H
  H59      1.0000 0.29820  0.21070  0.35740  Biso   1.000  H
  H60      1.0000 0.70180  0.21070  0.14260  Biso   1.000  H
  H61      1.0000 0.20180  0.28930  0.64260  Biso   1.000  H
  H62      1.0000 0.79820  0.28930  0.85740  Biso   1.000  H
  H63      1.0000 0.70180  0.78930  0.64260  Biso   1.000  H
  H64      1.0000 0.29820  0.78930  0.85740  Biso   1.000  H
  C81      1.0000 0.78073  0.02560  0.37940  Biso   1.000  C
  C82      1.0000 0.21927  0.02560  0.12060  Biso   1.000  C
  C83      1.0000 0.28073  0.52560  0.37940  Biso   1.000  C
  C84      1.0000 0.71927  0.52560  0.12060  Biso   1.000  C
  C85      1.0000 0.21927  0.97440  0.62060  Biso   1.000  C
  C86      1.0000 0.78073  0.97440  0.87940  Biso   1.000  C
  C87      1.0000 0.71927  0.47440  0.62060  Biso   1.000  C
  C88      1.0000 0.28073  0.47440  0.87940  Biso   1.000  C
  H65      1.0000 0.78860  0.06060  0.34550  Biso   1.000  H
  H66      1.0000 0.21140  0.06060  0.15450  Biso   1.000  H
  H67      1.0000 0.28860  0.56060  0.34550  Biso   1.000  H
  H68      1.0000 0.71140  0.56060  0.15450  Biso   1.000  H
  H69      1.0000 0.21140  0.93940  0.65450  Biso   1.000  H
  H70      1.0000 0.78860  0.93940  0.84550  Biso   1.000  H
  H71      1.0000 0.71140  0.43940  0.65450  Biso   1.000  H
  H72      1.0000 0.28860  0.43940  0.84550  Biso   1.000  H
  H73      1.0000 0.80120  0.08190  0.42890  Biso   1.000  H
  H74      1.0000 0.19880  0.08190  0.07110  Biso   1.000  H
  H75      1.0000 0.30120  0.58190  0.42890  Biso   1.000  H
  H76      1.0000 0.69880  0.58190  0.07110  Biso   1.000  H
  H77      1.0000 0.19880  0.91810  0.57110  Biso   1.000  H
  H78      1.0000 0.80120  0.91810  0.92890  Biso   1.000  H
  H79      1.0000 0.69880  0.41810  0.57110  Biso   1.000  H
  H80      1.0000 0.30120  0.41810  0.92890  Biso   1.000  H
  C89      1.0000 0.92290  0.73070  0.64080  Biso   1.000  C
  C90      1.0000 0.07710  0.73070  0.85920  Biso   1.000  C
  C91      1.0000 0.42290  0.23070  0.64080  Biso   1.000  C
  C92      1.0000 0.57710  0.23070  0.85920  Biso   1.000  C
  C93      1.0000 0.07710  0.26930  0.35920  Biso   1.000  C
  C94      1.0000 0.92290  0.26930  0.14080  Biso   1.000  C
  C95      1.0000 0.57710  0.76930  0.35920  Biso   1.000  C
  C96      1.0000 0.42290  0.76930  0.14080  Biso   1.000  C
  H81      1.0000 0.91590  0.82200  0.62600  Biso   1.000  H
  H82      1.0000 0.08410  0.82200  0.87400  Biso   1.000  H
  H83      1.0000 0.41590  0.32200  0.62600  Biso   1.000  H
  H84      1.0000 0.58410  0.32200  0.87400  Biso   1.000  H
  H85      1.0000 0.08410  0.17800  0.37400  Biso   1.000  H
  H86      1.0000 0.91590  0.17800  0.12600  Biso   1.000  H
  H87      1.0000 0.58410  0.67800  0.37400  Biso   1.000  H
  H88      1.0000 0.41590  0.67800  0.12600  Biso   1.000  H
  H89      1.0000 0.95830  0.70170  0.65130  Biso   1.000  H
  H90      1.0000 0.04170  0.70170  0.84870  Biso   1.000  H
  H91      1.0000 0.45830  0.20170  0.65130  Biso   1.000  H
  H92      1.0000 0.54170  0.20170  0.84870  Biso   1.000  H
  H93      1.0000 0.04170  0.29830  0.34870  Biso   1.000  H
  H94      1.0000 0.95830  0.29830  0.15130  Biso   1.000  H
  H95      1.0000 0.54170  0.79830  0.34870  Biso   1.000  H
  H96      1.0000 0.45830  0.79830  0.15130  Biso   1.000  H
  H97      1.0000 0.93010  0.71810  0.69150  Biso   1.000  H
  H98      1.0000 0.06990  0.71810  0.80850  Biso   1.000  H
  H99      1.0000 0.43010  0.21810  0.69150  Biso   1.000  H
  H100     1.0000 0.56990  0.21810  0.80850  Biso   1.000  H
  H101     1.0000 0.06990  0.28190  0.30850  Biso   1.000  H
  H102     1.0000 0.93010  0.28190  0.19150  Biso   1.000  H
  H103     1.0000 0.56990  0.78190  0.30850  Biso   1.000  H
  H104     1.0000 0.43010  0.78190  0.19150  Biso   1.000  H
  C97      1.0000 0.86791  0.65400  0.56910  Biso   1.000  C
  C98      1.0000 0.13209  0.65400  0.93090  Biso   1.000  C
  C99      1.0000 0.36791  0.15400  0.56910  Biso   1.000  C
  C100     1.0000 0.63209  0.15400  0.93090  Biso   1.000  C
  C101     1.0000 0.13209  0.34600  0.43090  Biso   1.000  C
  C102     1.0000 0.86791  0.34600  0.06910  Biso   1.000  C
  C103     1.0000 0.63209  0.84600  0.43090  Biso   1.000  C
  C104     1.0000 0.36791  0.84600  0.06910  Biso   1.000  C
  C105     1.0000 0.80326  0.49400  0.49620  Biso   1.000  C
  C106     1.0000 0.19674  0.49400  0.00380  Biso   1.000  C
  C107     1.0000 0.30326  0.99400  0.49620  Biso   1.000  C
  C108     1.0000 0.69674  0.99400  0.00380  Biso   1.000  C
  C109     1.0000 0.19674  0.50600  0.50380  Biso   1.000  C
  C110     1.0000 0.80326  0.50600  0.99620  Biso   1.000  C
  C111     1.0000 0.69674  0.00600  0.50380  Biso   1.000  C
  C112     1.0000 0.30326  0.00600  0.99620  Biso   1.000  C
  C113     1.0000 0.77159  0.60700  0.45120  Biso   1.000  C
  C114     1.0000 0.22841  0.60700  0.04880  Biso   1.000  C
  C115     1.0000 0.27159  0.10700  0.45120  Biso   1.000  C
  C116     1.0000 0.72841  0.10700  0.04880  Biso   1.000  C
  C117     1.0000 0.22841  0.39300  0.54880  Biso   1.000  C
  C118     1.0000 0.77159  0.39300  0.95120  Biso   1.000  C
  C119     1.0000 0.72841  0.89300  0.54880  Biso   1.000  C
  C120     1.0000 0.27159  0.89300  0.95120  Biso   1.000  C
  C121     1.0000 0.70920  0.60560  0.37820  Biso   1.000  C
  C122     1.0000 0.29080  0.60560  0.12180  Biso   1.000  C
  C123     1.0000 0.20920  0.10560  0.37820  Biso   1.000  C
  C124     1.0000 0.79080  0.10560  0.12180  Biso   1.000  C
  C125     1.0000 0.29080  0.39440  0.62180  Biso   1.000  C
  C126     1.0000 0.70920  0.39440  0.87820  Biso   1.000  C
  C127     1.0000 0.79080  0.89440  0.62180  Biso   1.000  C
  C128     1.0000 0.20920  0.89440  0.87820  Biso   1.000  C
  H105     1.0000 0.68780  0.68180  0.34820  Biso   1.000  H
  H106     1.0000 0.31220  0.68180  0.15180  Biso   1.000  H
  H107     1.0000 0.18780  0.18180  0.34820  Biso   1.000  H
  H108     1.0000 0.81220  0.18180  0.15180  Biso   1.000  H
  H109     1.0000 0.31220  0.31820  0.65180  Biso   1.000  H
  H110     1.0000 0.68780  0.31820  0.84820  Biso   1.000  H
  H111     1.0000 0.81220  0.81820  0.65180  Biso   1.000  H
  H112     1.0000 0.18780  0.81820  0.84820  Biso   1.000  H
  C129     1.0000 0.68054  0.48590  0.35260  Biso   1.000  C
  C130     1.0000 0.31946  0.48590  0.14740  Biso   1.000  C
  C131     1.0000 0.18054  0.98590  0.35260  Biso   1.000  C
  C132     1.0000 0.81946  0.98590  0.14740  Biso   1.000  C
  C133     1.0000 0.31946  0.51410  0.64740  Biso   1.000  C
  C134     1.0000 0.68054  0.51410  0.85260  Biso   1.000  C
  C135     1.0000 0.81946  0.01410  0.64740  Biso   1.000  C
  C136     1.0000 0.18054  0.01410  0.85260  Biso   1.000  C
  H113     1.0000 0.63850  0.48130  0.30420  Biso   1.000  H
  H114     1.0000 0.36150  0.48130  0.19580  Biso   1.000  H
  H115     1.0000 0.13850  0.98130  0.30420  Biso   1.000  H
  H116     1.0000 0.86150  0.98130  0.19580  Biso   1.000  H
  H117     1.0000 0.36150  0.51870  0.69580  Biso   1.000  H
  H118     1.0000 0.63850  0.51870  0.80420  Biso   1.000  H
  H119     1.0000 0.86150  0.01870  0.69580  Biso   1.000  H
  H120     1.0000 0.13850  0.01870  0.80420  Biso   1.000  H
  C137     1.0000 0.71194  0.37260  0.39610  Biso   1.000  C
  C138     1.0000 0.28806  0.37260  0.10390  Biso   1.000  C
  C139     1.0000 0.21194  0.87260  0.39610  Biso   1.000  C
  C140     1.0000 0.78806  0.87260  0.10390  Biso   1.000  C
  C141     1.0000 0.28806  0.62740  0.60390  Biso   1.000  C
  C142     1.0000 0.71194  0.62740  0.89610  Biso   1.000  C
  C143     1.0000 0.78806  0.12740  0.60390  Biso   1.000  C
  C144     1.0000 0.21194  0.12740  0.89610  Biso   1.000  C
  H121     1.0000 0.69070  0.29350  0.37610  Biso   1.000  H
  H122     1.0000 0.30930  0.29350  0.12390  Biso   1.000  H
  H123     1.0000 0.19070  0.79350  0.37610  Biso   1.000  H
  H124     1.0000 0.80930  0.79350  0.12390  Biso   1.000  H
  H125     1.0000 0.30930  0.70650  0.62390  Biso   1.000  H
  H126     1.0000 0.69070  0.70650  0.87610  Biso   1.000  H
  H127     1.0000 0.80930  0.20650  0.62390  Biso   1.000  H
  H128     1.0000 0.19070  0.20650  0.87610  Biso   1.000  H
  C145     1.0000 0.77395  0.37330  0.46840  Biso   1.000  C
  C146     1.0000 0.22605  0.37330  0.03160  Biso   1.000  C
  C147     1.0000 0.27395  0.87330  0.46840  Biso   1.000  C
  C148     1.0000 0.72605  0.87330  0.03160  Biso   1.000  C
  C149     1.0000 0.22605  0.62670  0.53160  Biso   1.000  C
  C150     1.0000 0.77395  0.62670  0.96840  Biso   1.000  C
  C151     1.0000 0.72605  0.12670  0.53160  Biso   1.000  C
  C152     1.0000 0.27395  0.12670  0.96840  Biso   1.000  C
  H129     1.0000 0.79530  0.29640  0.49720  Biso   1.000  H
  H130     1.0000 0.20470  0.29640  0.00280  Biso   1.000  H
  H131     1.0000 0.29530  0.79640  0.49720  Biso   1.000  H
  H132     1.0000 0.70470  0.79640  0.00280  Biso   1.000  H
  H133     1.0000 0.20470  0.70360  0.50280  Biso   1.000  H
  H134     1.0000 0.79530  0.70360  0.99720  Biso   1.000  H
  H135     1.0000 0.70470  0.20360  0.50280  Biso   1.000  H
  H136     1.0000 0.29530  0.20360  0.99720  Biso   1.000  H
  C153     1.0000 0.92640  0.67920  0.42480  Biso   1.000  C
  C154     1.0000 0.07360  0.67920  0.07520  Biso   1.000  C
  C155     1.0000 0.42640  0.17920  0.42480  Biso   1.000  C
  C156     1.0000 0.57360  0.17920  0.07520  Biso   1.000  C
  C157     1.0000 0.07360  0.32080  0.57520  Biso   1.000  C
  C158     1.0000 0.92640  0.32080  0.92480  Biso   1.000  C
  C159     1.0000 0.57360  0.82080  0.57520  Biso   1.000  C
  C160     1.0000 0.42640  0.82080  0.92480  Biso   1.000  C
  H137     1.0000 0.90780  0.66500  0.44720  Biso   1.000  H
  H138     1.0000 0.09220  0.66500  0.05280  Biso   1.000  H
  H139     1.0000 0.40780  0.16500  0.44720  Biso   1.000  H
  H140     1.0000 0.59220  0.16500  0.05280  Biso   1.000  H
  H141     1.0000 0.09220  0.33500  0.55280  Biso   1.000  H
  H142     1.0000 0.90780  0.33500  0.94720  Biso   1.000  H
  H143     1.0000 0.59220  0.83500  0.55280  Biso   1.000  H
  H144     1.0000 0.40780  0.83500  0.94720  Biso   1.000  H
  H145     1.0000 0.96810  0.64750  0.46500  Biso   1.000  H
  H146     1.0000 0.03190  0.64750  0.03500  Biso   1.000  H
  H147     1.0000 0.46810  0.14750  0.46500  Biso   1.000  H
  H148     1.0000 0.53190  0.14750  0.03500  Biso   1.000  H
  H149     1.0000 0.03190  0.35250  0.53500  Biso   1.000  H
  H150     1.0000 0.96810  0.35250  0.96500  Biso   1.000  H
  H151     1.0000 0.53190  0.85250  0.53500  Biso   1.000  H
  H152     1.0000 0.46810  0.85250  0.96500  Biso   1.000  H
  H153     1.0000 0.90340  0.63300  0.37160  Biso   1.000  H
  H154     1.0000 0.09660  0.63300  0.12840  Biso   1.000  H
  H155     1.0000 0.40340  0.13300  0.37160  Biso   1.000  H
  H156     1.0000 0.59660  0.13300  0.12840  Biso   1.000  H
  H157     1.0000 0.09660  0.36700  0.62840  Biso   1.000  H
  H158     1.0000 0.90340  0.36700  0.87160  Biso   1.000  H
  H159     1.0000 0.59660  0.86700  0.62840  Biso   1.000  H
  H160     1.0000 0.40340  0.86700  0.87160  Biso   1.000  H
  C161     1.0000 0.79997  0.84500  0.47090  Biso   1.000  C
  C162     1.0000 0.20003  0.84500  0.02910  Biso   1.000  C
  C163     1.0000 0.29997  0.34500  0.47090  Biso   1.000  C
  C164     1.0000 0.70003  0.34500  0.02910  Biso   1.000  C
  C165     1.0000 0.20003  0.15500  0.52910  Biso   1.000  C
  C166     1.0000 0.79997  0.15500  0.97090  Biso   1.000  C
  C167     1.0000 0.70003  0.65500  0.52910  Biso   1.000  C
  C168     1.0000 0.29997  0.65500  0.97090  Biso   1.000  C
  H161     1.0000 0.82640  0.89910  0.52190  Biso   1.000  H
  H162     1.0000 0.17360  0.89910  0.97810  Biso   1.000  H
  H163     1.0000 0.32640  0.39910  0.52190  Biso   1.000  H
  H164     1.0000 0.67360  0.39910  0.97810  Biso   1.000  H
  H165     1.0000 0.17360  0.10090  0.47810  Biso   1.000  H
  H166     1.0000 0.82640  0.10090  0.02190  Biso   1.000  H
  H167     1.0000 0.67360  0.60090  0.47810  Biso   1.000  H
  H168     1.0000 0.32640  0.60090  0.02190  Biso   1.000  H
  H169     1.0000 0.75770  0.86230  0.44300  Biso   1.000  H
  H170     1.0000 0.24230  0.86230  0.05700  Biso   1.000  H
  H171     1.0000 0.25770  0.36230  0.44300  Biso   1.000  H
  H172     1.0000 0.74230  0.36230  0.05700  Biso   1.000  H
  H173     1.0000 0.24230  0.13770  0.55700  Biso   1.000  H
  H174     1.0000 0.75770  0.13770  0.94300  Biso   1.000  H
  H175     1.0000 0.74230  0.63770  0.55700  Biso   1.000  H
  H176     1.0000 0.25770  0.63770  0.94300  Biso   1.000  H
  N1       1.0000 0.94862  0.87100  0.37925  Biso   1.000  N
  N2       1.0000 0.05138  0.87100  0.12075  Biso   1.000  N
  N3       1.0000 0.44862  0.37100  0.37925  Biso   1.000  N
  N4       1.0000 0.55138  0.37100  0.12075  Biso   1.000  N
  N5       1.0000 0.05138  0.12900  0.62075  Biso   1.000  N
  N6       1.0000 0.94862  0.12900  0.87925  Biso   1.000  N
  N7       1.0000 0.55138  0.62900  0.62075  Biso   1.000  N
  N8       1.0000 0.44862  0.62900  0.87925  Biso   1.000  N
  N9       1.0000 0.90299  0.91460  0.42644  Biso   1.000  N
  N10      1.0000 0.09701  0.91460  0.07356  Biso   1.000  N
  N11      1.0000 0.40299  0.41460  0.42644  Biso   1.000  N
  N12      1.0000 0.59701  0.41460  0.07356  Biso   1.000  N
  N13      1.0000 0.09701  0.08540  0.57356  Biso   1.000  N
  N14      1.0000 0.90299  0.08540  0.92644  Biso   1.000  N
  N15      1.0000 0.59701  0.58540  0.57356  Biso   1.000  N
  N16      1.0000 0.40299  0.58540  0.92644  Biso   1.000  N
  N17      1.0000 0.81368  0.70790  0.49733  Biso   1.000  N
  N18      1.0000 0.18632  0.70790  0.00267  Biso   1.000  N
  N19      1.0000 0.31368  0.20790  0.49733  Biso   1.000  N
  N20      1.0000 0.68632  0.20790  0.00267  Biso   1.000  N
  N21      1.0000 0.18632  0.29210  0.50267  Biso   1.000  N
  N22      1.0000 0.81368  0.29210  0.99733  Biso   1.000  N
  N23      1.0000 0.68632  0.79210  0.50267  Biso   1.000  N
  N24      1.0000 0.31368  0.79210  0.99733  Biso   1.000  N
  N25      1.0000 0.86374  0.52480  0.56996  Biso   1.000  N
  N26      1.0000 0.13626  0.52480  0.93004  Biso   1.000  N
  N27      1.0000 0.36374  0.02480  0.56996  Biso   1.000  N
  N28      1.0000 0.63626  0.02480  0.93004  Biso   1.000  N
  N29      1.0000 0.13626  0.47520  0.43004  Biso   1.000  N
  N30      1.0000 0.86374  0.47520  0.06996  Biso   1.000  N
  N31      1.0000 0.63626  0.97520  0.43004  Biso   1.000  N
  N32      1.0000 0.36374  0.97520  0.06996  Biso   1.000  N
  Br1      1.0000 0.76835  0.85194  0.24221  Biso   1.000  Br
  Br2      1.0000 0.23165  0.85194  0.25779  Biso   1.000  Br
  Br3      1.0000 0.26835  0.35194  0.24221  Biso   1.000  Br
  Br4      1.0000 0.73165  0.35194  0.25779  Biso   1.000  Br
  Br5      1.0000 0.23165  0.14806  0.75779  Biso   1.000  Br
  Br6      1.0000 0.76835  0.14806  0.74221  Biso   1.000  Br
  Br7      1.0000 0.73165  0.64806  0.75779  Biso   1.000  Br
  Br8      1.0000 0.26835  0.64806  0.74221  Biso   1.000  Br
  Br9      1.0000 0.69202  0.02884  0.31096  Biso   1.000  Br
  Br10     1.0000 0.30798  0.02884  0.18904  Biso   1.000  Br
  Br11     1.0000 0.19202  0.52884  0.31096  Biso   1.000  Br
  Br12     1.0000 0.80798  0.52884  0.18904  Biso   1.000  Br
  Br13     1.0000 0.30798  0.97116  0.68904  Biso   1.000  Br
  Br14     1.0000 0.69202  0.97116  0.81096  Biso   1.000  Br
  Br15     1.0000 0.80798  0.47116  0.68904  Biso   1.000  Br
  Br16     1.0000 0.19202  0.47116  0.81096  Biso   1.000  Br
  Br17     1.0000 0.07821  0.84132  0.37267  Biso   1.000  Br
  Br18     1.0000 0.92179  0.84132  0.12733  Biso   1.000  Br
  Br19     1.0000 0.57821  0.34132  0.37267  Biso   1.000  Br
  Br20     1.0000 0.42179  0.34132  0.12733  Biso   1.000  Br
  Br21     1.0000 0.92179  0.15868  0.62733  Biso   1.000  Br
  Br22     1.0000 0.07821  0.15868  0.87267  Biso   1.000  Br
  Br23     1.0000 0.42179  0.65868  0.62733  Biso   1.000  Br
  Br24     1.0000 0.57821  0.65868  0.87267  Biso   1.000  Br
  Br25     1.0000 0.96575  0.55760  0.30102  Biso   1.000  Br
  Br26     1.0000 0.03425  0.55760  0.19898  Biso   1.000  Br
  Br27     1.0000 0.46575  0.05760  0.30102  Biso   1.000  Br
  Br28     1.0000 0.53425  0.05760  0.19898  Biso   1.000  Br
  Br29     1.0000 0.03425  0.44240  0.69898  Biso   1.000  Br
  Br30     1.0000 0.96575  0.44240  0.80102  Biso   1.000  Br
  Br31     1.0000 0.53425  0.94240  0.69898  Biso   1.000  Br
  Br32     1.0000 0.46575  0.94240  0.80102  Biso   1.000  Br
