data_image0
_cell_length_a       8.8445
_cell_length_b       8.1955
_cell_length_c       27.029
_cell_angle_alpha    90
_cell_angle_beta     102.78
_cell_angle_gamma    90

_symmetry_space_group_name_H-M    "P 1"
_symmetry_int_tables_number       1

loop_
  _symmetry_equiv_pos_as_xyz
  'x, y, z'

loop_
  _atom_site_label
  _atom_site_occupancy
  _atom_site_fract_x
  _atom_site_fract_y
  _atom_site_fract_z
  _atom_site_thermal_displace_type
  _atom_site_B_iso_or_equiv
  _atom_site_type_symbol
  Cu1      1.0000 0.74636  0.13688  0.99192  Biso   1.000  Cu
  Cu2      1.0000 0.25364  0.63688  0.50808  Biso   1.000  Cu
  Cu3      1.0000 0.25364  0.86312  0.00808  Biso   1.000  Cu
  Cu4      1.0000 0.74636  0.36312  0.49192  Biso   1.000  Cu
  N1       1.0000 0.72760  0.35720  0.02645  Biso   1.000  N
  N2       1.0000 0.27240  0.85720  0.47355  Biso   1.000  N
  N3       1.0000 0.27240  0.64280  0.97355  Biso   1.000  N
  N4       1.0000 0.72760  0.14280  0.52645  Biso   1.000  N
  N5       1.0000 0.73410  0.33450  0.92605  Biso   1.000  N
  N6       1.0000 0.26590  0.83450  0.57395  Biso   1.000  N
  N7       1.0000 0.26590  0.66550  0.07395  Biso   1.000  N
  N8       1.0000 0.73410  0.16550  0.42605  Biso   1.000  N
  N9       1.0000 0.60990  0.05220  0.87070  Biso   1.000  N
  N10      1.0000 0.39010  0.55220  0.62930  Biso   1.000  N
  N11      1.0000 0.39010  0.94780  0.12930  Biso   1.000  N
  N12      1.0000 0.60990  0.44780  0.37070  Biso   1.000  N
  N13      1.0000 0.26320  0.20280  0.79190  Biso   1.000  N
  N14      1.0000 0.73680  0.70280  0.70810  Biso   1.000  N
  N15      1.0000 0.73680  0.79720  0.20810  Biso   1.000  N
  N16      1.0000 0.26320  0.29720  0.29190  Biso   1.000  N
  N17      1.0000 0.94140  0.03390  0.99666  Biso   1.000  N
  N18      1.0000 0.05860  0.53390  0.50334  Biso   1.000  N
  N19      1.0000 0.05860  0.96610  0.00334  Biso   1.000  N
  N20      1.0000 0.94140  0.46610  0.49666  Biso   1.000  N
  N21      1.0000 0.55510  0.02920  0.99621  Biso   1.000  N
  N22      1.0000 0.44490  0.52920  0.50379  Biso   1.000  N
  N23      1.0000 0.44490  0.97080  0.00379  Biso   1.000  N
  N24      1.0000 0.55510  0.47080  0.49621  Biso   1.000  N
  C1       1.0000 0.68630  0.37060  0.07076  Biso   1.000  C
  C2       1.0000 0.31370  0.87060  0.42924  Biso   1.000  C
  C3       1.0000 0.31370  0.62940  0.92924  Biso   1.000  C
  C4       1.0000 0.68630  0.12940  0.57076  Biso   1.000  C
  H1       1.0000 0.67520  0.27520  0.08820  Biso   1.000  H
  H2       1.0000 0.32480  0.77520  0.41180  Biso   1.000  H
  H3       1.0000 0.32480  0.72480  0.91180  Biso   1.000  H
  H4       1.0000 0.67520  0.22480  0.58820  Biso   1.000  H
  C5       1.0000 0.65960  0.51510  0.09212  Biso   1.000  C
  C6       1.0000 0.34040  0.01510  0.40788  Biso   1.000  C
  C7       1.0000 0.34040  0.48490  0.90788  Biso   1.000  C
  C8       1.0000 0.65960  0.98490  0.59212  Biso   1.000  C
  H5       1.0000 0.62880  0.51830  0.12290  Biso   1.000  H
  H6       1.0000 0.37120  0.01830  0.37710  Biso   1.000  H
  H7       1.0000 0.37120  0.48170  0.87710  Biso   1.000  H
  H8       1.0000 0.62880  0.98170  0.62290  Biso   1.000  H
  C9       1.0000 0.67960  0.65720  0.06659  Biso   1.000  C
  C10      1.0000 0.32040  0.15720  0.43341  Biso   1.000  C
  C11      1.0000 0.32040  0.34280  0.93341  Biso   1.000  C
  C12      1.0000 0.67960  0.84280  0.56659  Biso   1.000  C
  H9       1.0000 0.66420  0.75850  0.08020  Biso   1.000  H
  H10      1.0000 0.33580  0.25850  0.41980  Biso   1.000  H
  H11      1.0000 0.33580  0.24150  0.91980  Biso   1.000  H
  H12      1.0000 0.66420  0.74150  0.58020  Biso   1.000  H
  C13      1.0000 0.72270  0.64620  0.02080  Biso   1.000  C
  C14      1.0000 0.27730  0.14620  0.47920  Biso   1.000  C
  C15      1.0000 0.27730  0.35380  0.97920  Biso   1.000  C
  C16      1.0000 0.72270  0.85380  0.52080  Biso   1.000  C
  H13      1.0000 0.73630  0.74030  0.00310  Biso   1.000  H
  H14      1.0000 0.26370  0.24030  0.49690  Biso   1.000  H
  H15      1.0000 0.26370  0.25970  0.99690  Biso   1.000  H
  H16      1.0000 0.73630  0.75970  0.50310  Biso   1.000  H
  C17      1.0000 0.74550  0.49530  0.00139  Biso   1.000  C
  C18      1.0000 0.25450  0.99530  0.49861  Biso   1.000  C
  C19      1.0000 0.25450  0.50470  0.99861  Biso   1.000  C
  C20      1.0000 0.74550  0.00470  0.50139  Biso   1.000  C
  C21      1.0000 0.78300  0.47480  0.95055  Biso   1.000  C
  C22      1.0000 0.21700  0.97480  0.54945  Biso   1.000  C
  C23      1.0000 0.21700  0.52520  0.04945  Biso   1.000  C
  C24      1.0000 0.78300  0.02520  0.45055  Biso   1.000  C
  C25      1.0000 0.85910  0.59510  0.93034  Biso   1.000  C
  C26      1.0000 0.14090  0.09510  0.56966  Biso   1.000  C
  C27      1.0000 0.14090  0.40490  0.06966  Biso   1.000  C
  C28      1.0000 0.85910  0.90490  0.43034  Biso   1.000  C
  H17      1.0000 0.89580  0.68680  0.94950  Biso   1.000  H
  H18      1.0000 0.10420  0.18680  0.55050  Biso   1.000  H
  H19      1.0000 0.10420  0.31320  0.05050  Biso   1.000  H
  H20      1.0000 0.89580  0.81320  0.44950  Biso   1.000  H
  C29      1.0000 0.88130  0.57980  0.88110  Biso   1.000  C
  C30      1.0000 0.11870  0.07980  0.61890  Biso   1.000  C
  C31      1.0000 0.11870  0.42020  0.11890  Biso   1.000  C
  C32      1.0000 0.88130  0.92020  0.38110  Biso   1.000  C
  C33      1.0000 0.82340  0.44110  0.85462  Biso   1.000  C
  C34      1.0000 0.17660  0.94110  0.64538  Biso   1.000  C
  C35      1.0000 0.17660  0.55890  0.14538  Biso   1.000  C
  C36      1.0000 0.82340  0.05890  0.35462  Biso   1.000  C
  H21      1.0000 0.83260  0.42760  0.82120  Biso   1.000  H
  H22      1.0000 0.16740  0.92760  0.67880  Biso   1.000  H
  H23      1.0000 0.16740  0.57240  0.17880  Biso   1.000  H
  H24      1.0000 0.83260  0.07240  0.32120  Biso   1.000  H
  C37      1.0000 0.75090  0.32090  0.87786  Biso   1.000  C
  C38      1.0000 0.24910  0.82090  0.62214  Biso   1.000  C
  C39      1.0000 0.24910  0.67910  0.12214  Biso   1.000  C
  C40      1.0000 0.75090  0.17910  0.37786  Biso   1.000  C
  C41      1.0000 0.69030  0.16940  0.84873  Biso   1.000  C
  C42      1.0000 0.30970  0.66940  0.65127  Biso   1.000  C
  C43      1.0000 0.30970  0.83060  0.15127  Biso   1.000  C
  C44      1.0000 0.69030  0.33060  0.34873  Biso   1.000  C
  C45      1.0000 0.71370  0.15510  0.80259  Biso   1.000  C
  C46      1.0000 0.28630  0.65510  0.69741  Biso   1.000  C
  C47      1.0000 0.28630  0.84490  0.19741  Biso   1.000  C
  C48      1.0000 0.71370  0.34490  0.30259  Biso   1.000  C
  H25      1.0000 0.76370  0.23720  0.78860  Biso   1.000  H
  H26      1.0000 0.23630  0.73720  0.71140  Biso   1.000  H
  H27      1.0000 0.23630  0.76280  0.21140  Biso   1.000  H
  H28      1.0000 0.76370  0.26280  0.28860  Biso   1.000  H
  C49      1.0000 0.66570  0.02360  0.77680  Biso   1.000  C
  C50      1.0000 0.33430  0.52360  0.72320  Biso   1.000  C
  C51      1.0000 0.33430  0.97640  0.22320  Biso   1.000  C
  C52      1.0000 0.66570  0.47640  0.27680  Biso   1.000  C
  H29      1.0000 0.68450  0.01450  0.74440  Biso   1.000  H
  H30      1.0000 0.31550  0.51450  0.75560  Biso   1.000  H
  H31      1.0000 0.31550  0.98550  0.25560  Biso   1.000  H
  H32      1.0000 0.68450  0.48550  0.24440  Biso   1.000  H
  C53      1.0000 0.58800  0.89560  0.79440  Biso   1.000  C
  C54      1.0000 0.41200  0.39560  0.70560  Biso   1.000  C
  C55      1.0000 0.41200  0.10440  0.20560  Biso   1.000  C
  C56      1.0000 0.58800  0.60440  0.29440  Biso   1.000  C
  H33      1.0000 0.55720  0.80320  0.77480  Biso   1.000  H
  H34      1.0000 0.44280  0.30320  0.72520  Biso   1.000  H
  H35      1.0000 0.44280  0.19680  0.22520  Biso   1.000  H
  H36      1.0000 0.55720  0.69680  0.27480  Biso   1.000  H
  C57      1.0000 0.55930  0.91220  0.84190  Biso   1.000  C
  C58      1.0000 0.44070  0.41220  0.65810  Biso   1.000  C
  C59      1.0000 0.44070  0.08780  0.15810  Biso   1.000  C
  C60      1.0000 0.55930  0.58780  0.34190  Biso   1.000  C
  H37      1.0000 0.50630  0.83080  0.85510  Biso   1.000  H
  H38      1.0000 0.49370  0.33080  0.64490  Biso   1.000  H
  H39      1.0000 0.49370  0.16920  0.14490  Biso   1.000  H
  H40      1.0000 0.50630  0.66920  0.35510  Biso   1.000  H
  C61      1.0000 0.96290  0.71000  0.85871  Biso   1.000  C
  C62      1.0000 0.03710  0.21000  0.64129  Biso   1.000  C
  C63      1.0000 0.03710  0.29000  0.14129  Biso   1.000  C
  C64      1.0000 0.96290  0.79000  0.35871  Biso   1.000  C
  C65      1.0000 0.97040  0.86820  0.87887  Biso   1.000  C
  C66      1.0000 0.02960  0.36820  0.62113  Biso   1.000  C
  C67      1.0000 0.02960  0.13180  0.12113  Biso   1.000  C
  C68      1.0000 0.97040  0.63180  0.37887  Biso   1.000  C
  H41      1.0000 0.92090  0.89080  0.90510  Biso   1.000  H
  H42      1.0000 0.07910  0.39080  0.59490  Biso   1.000  H
  H43      1.0000 0.07910  0.10920  0.09490  Biso   1.000  H
  H44      1.0000 0.92090  0.60920  0.40510  Biso   1.000  H
  C69      1.0000 0.04940  0.99080  0.86065  Biso   1.000  C
  C70      1.0000 0.95060  0.49080  0.63935  Biso   1.000  C
  C71      1.0000 0.95060  0.00920  0.13935  Biso   1.000  C
  C72      1.0000 0.04940  0.50920  0.36065  Biso   1.000  C
  H45      1.0000 0.05460  0.09440  0.87490  Biso   1.000  H
  H46      1.0000 0.94540  0.59440  0.62510  Biso   1.000  H
  H47      1.0000 0.94540  0.90560  0.12510  Biso   1.000  H
  H48      1.0000 0.05460  0.40560  0.37490  Biso   1.000  H
  C73      1.0000 0.12100  0.95990  0.82118  Biso   1.000  C
  C74      1.0000 0.87900  0.45990  0.67882  Biso   1.000  C
  C75      1.0000 0.87900  0.04010  0.17882  Biso   1.000  C
  C76      1.0000 0.12100  0.54010  0.32118  Biso   1.000  C
  C77      1.0000 0.11380  0.80430  0.79981  Biso   1.000  C
  C78      1.0000 0.88620  0.30430  0.70019  Biso   1.000  C
  C79      1.0000 0.88620  0.19570  0.20019  Biso   1.000  C
  C80      1.0000 0.11380  0.69570  0.29981  Biso   1.000  C
  H49      1.0000 0.16070  0.78350  0.77290  Biso   1.000  H
  H50      1.0000 0.83930  0.28350  0.72710  Biso   1.000  H
  H51      1.0000 0.83930  0.21650  0.22710  Biso   1.000  H
  H52      1.0000 0.16070  0.71650  0.27290  Biso   1.000  H
  C81      1.0000 0.03670  0.68170  0.81893  Biso   1.000  C
  C82      1.0000 0.96330  0.18170  0.68107  Biso   1.000  C
  C83      1.0000 0.96330  0.31830  0.18107  Biso   1.000  C
  C84      1.0000 0.03670  0.81830  0.31893  Biso   1.000  C
  H53      1.0000 0.03370  0.57770  0.80500  Biso   1.000  H
  H54      1.0000 0.96630  0.07770  0.69500  Biso   1.000  H
  H55      1.0000 0.96630  0.42230  0.19500  Biso   1.000  H
  H56      1.0000 0.03370  0.92230  0.30500  Biso   1.000  H
  C85      1.0000 0.20220  0.09350  0.80320  Biso   1.000  C
  C86      1.0000 0.79780  0.59350  0.69680  Biso   1.000  C
  C87      1.0000 0.79780  0.90650  0.19680  Biso   1.000  C
  C88      1.0000 0.20220  0.40650  0.30320  Biso   1.000  C
