data_image0
_cell_length_a       18.189
_cell_length_b       10.568
_cell_length_c       19.533
_cell_angle_alpha    90
_cell_angle_beta     90
_cell_angle_gamma    90

_symmetry_space_group_name_H-M    "P 1"
_symmetry_int_tables_number       1

loop_
  _symmetry_equiv_pos_as_xyz
  'x, y, z'

loop_
  _atom_site_label
  _atom_site_occupancy
  _atom_site_fract_x
  _atom_site_fract_y
  _atom_site_fract_z
  _atom_site_thermal_displace_type
  _atom_site_B_iso_or_equiv
  _atom_site_type_symbol
  C1       1.0000 0.12034  0.26192  0.41741  Biso   1.000  C
  C2       1.0000 0.62034  0.23808  0.58259  Biso   1.000  C
  C3       1.0000 0.87966  0.76192  0.08259  Biso   1.000  C
  C4       1.0000 0.37966  0.73808  0.91741  Biso   1.000  C
  C5       1.0000 0.87966  0.73808  0.58259  Biso   1.000  C
  C6       1.0000 0.37966  0.76192  0.41741  Biso   1.000  C
  C7       1.0000 0.12034  0.23808  0.91741  Biso   1.000  C
  C8       1.0000 0.62034  0.26192  0.08259  Biso   1.000  C
  C9       1.0000 0.19135  0.30892  0.41105  Biso   1.000  C
  C10      1.0000 0.69135  0.19108  0.58895  Biso   1.000  C
  C11      1.0000 0.80865  0.80892  0.08895  Biso   1.000  C
  C12      1.0000 0.30865  0.69108  0.91105  Biso   1.000  C
  C13      1.0000 0.80865  0.69108  0.58895  Biso   1.000  C
  C14      1.0000 0.30865  0.80892  0.41105  Biso   1.000  C
  C15      1.0000 0.19135  0.19108  0.91105  Biso   1.000  C
  C16      1.0000 0.69135  0.30892  0.08895  Biso   1.000  C
  H1       1.0000 0.22520  0.26970  0.38070  Biso   1.000  H
  H2       1.0000 0.72520  0.23030  0.61930  Biso   1.000  H
  H3       1.0000 0.77480  0.76970  0.11930  Biso   1.000  H
  H4       1.0000 0.27480  0.73030  0.88070  Biso   1.000  H
  H5       1.0000 0.77480  0.73030  0.61930  Biso   1.000  H
  H6       1.0000 0.27480  0.76970  0.38070  Biso   1.000  H
  H7       1.0000 0.22520  0.23030  0.88070  Biso   1.000  H
  H8       1.0000 0.72520  0.26970  0.11930  Biso   1.000  H
  C17      1.0000 0.21263  0.41392  0.44938  Biso   1.000  C
  C18      1.0000 0.71263  0.08608  0.55062  Biso   1.000  C
  C19      1.0000 0.78737  0.91392  0.05062  Biso   1.000  C
  C20      1.0000 0.28737  0.58608  0.94938  Biso   1.000  C
  C21      1.0000 0.78737  0.58608  0.55062  Biso   1.000  C
  C22      1.0000 0.28737  0.91392  0.44938  Biso   1.000  C
  C23      1.0000 0.21263  0.08608  0.94938  Biso   1.000  C
  C24      1.0000 0.71263  0.41392  0.05062  Biso   1.000  C
  H9       1.0000 0.26160  0.44460  0.44570  Biso   1.000  H
  H10      1.0000 0.76160  0.05540  0.55430  Biso   1.000  H
  H11      1.0000 0.73840  0.94460  0.05430  Biso   1.000  H
  H12      1.0000 0.23840  0.55540  0.94570  Biso   1.000  H
  H13      1.0000 0.73840  0.55540  0.55430  Biso   1.000  H
  H14      1.0000 0.23840  0.94460  0.44570  Biso   1.000  H
  H15      1.0000 0.26160  0.05540  0.94570  Biso   1.000  H
  H16      1.0000 0.76160  0.44460  0.05430  Biso   1.000  H
  C25      1.0000 0.16335  0.47470  0.49306  Biso   1.000  C
  C26      1.0000 0.66335  0.02530  0.50694  Biso   1.000  C
  C27      1.0000 0.83665  0.97470  0.00694  Biso   1.000  C
  C28      1.0000 0.33665  0.52530  0.99306  Biso   1.000  C
  C29      1.0000 0.83665  0.52530  0.50694  Biso   1.000  C
  C30      1.0000 0.33665  0.97470  0.49306  Biso   1.000  C
  C31      1.0000 0.16335  0.02530  0.99306  Biso   1.000  C
  C32      1.0000 0.66335  0.47470  0.00694  Biso   1.000  C
  C33      1.0000 0.09304  0.42487  0.49919  Biso   1.000  C
  C34      1.0000 0.59304  0.07513  0.50081  Biso   1.000  C
  C35      1.0000 0.90696  0.92487  0.00081  Biso   1.000  C
  C36      1.0000 0.40696  0.57513  0.99919  Biso   1.000  C
  C37      1.0000 0.90696  0.57513  0.50081  Biso   1.000  C
  C38      1.0000 0.40696  0.92487  0.49919  Biso   1.000  C
  C39      1.0000 0.09304  0.07513  0.99919  Biso   1.000  C
  C40      1.0000 0.59304  0.42487  0.00081  Biso   1.000  C
  H17      1.0000 0.05900  0.46410  0.52940  Biso   1.000  H
  H18      1.0000 0.55900  0.03590  0.47060  Biso   1.000  H
  H19      1.0000 0.94100  0.96410  0.97060  Biso   1.000  H
  H20      1.0000 0.44100  0.53590  0.02940  Biso   1.000  H
  H21      1.0000 0.94100  0.53590  0.47060  Biso   1.000  H
  H22      1.0000 0.44100  0.96410  0.52940  Biso   1.000  H
  H23      1.0000 0.05900  0.03590  0.02940  Biso   1.000  H
  H24      1.0000 0.55900  0.46410  0.97060  Biso   1.000  H
  C41      1.0000 0.07124  0.31924  0.46229  Biso   1.000  C
  C42      1.0000 0.57124  0.18076  0.53771  Biso   1.000  C
  C43      1.0000 0.92876  0.81924  0.03771  Biso   1.000  C
  C44      1.0000 0.42876  0.68076  0.96229  Biso   1.000  C
  C45      1.0000 0.92876  0.68076  0.53771  Biso   1.000  C
  C46      1.0000 0.42876  0.81924  0.46229  Biso   1.000  C
  C47      1.0000 0.07124  0.18076  0.96229  Biso   1.000  C
  C48      1.0000 0.57124  0.31924  0.03771  Biso   1.000  C
  H25      1.0000 0.02300  0.28620  0.46760  Biso   1.000  H
  H26      1.0000 0.52300  0.21380  0.53240  Biso   1.000  H
  H27      1.0000 0.97700  0.78620  0.03240  Biso   1.000  H
  H28      1.0000 0.47700  0.71380  0.96760  Biso   1.000  H
  H29      1.0000 0.97700  0.71380  0.53240  Biso   1.000  H
  H30      1.0000 0.47700  0.78620  0.46760  Biso   1.000  H
  H31      1.0000 0.02300  0.21380  0.96760  Biso   1.000  H
  H32      1.0000 0.52300  0.28620  0.03240  Biso   1.000  H
  C49      1.0000 0.18465  0.59410  0.53047  Biso   1.000  C
  C50      1.0000 0.68465  0.90590  0.46953  Biso   1.000  C
  C51      1.0000 0.81535  0.09410  0.96953  Biso   1.000  C
  C52      1.0000 0.31535  0.40590  0.03047  Biso   1.000  C
  C53      1.0000 0.81535  0.40590  0.46953  Biso   1.000  C
  C54      1.0000 0.31535  0.09410  0.53047  Biso   1.000  C
  C55      1.0000 0.18465  0.90590  0.03047  Biso   1.000  C
  C56      1.0000 0.68465  0.59410  0.96953  Biso   1.000  C
  H33      1.0000 0.17570  0.66740  0.50090  Biso   1.000  H
  H34      1.0000 0.67570  0.83260  0.49910  Biso   1.000  H
  H35      1.0000 0.82430  0.16740  0.99910  Biso   1.000  H
  H36      1.0000 0.32430  0.33260  0.00090  Biso   1.000  H
  H37      1.0000 0.82430  0.33260  0.49910  Biso   1.000  H
  H38      1.0000 0.32430  0.16740  0.50090  Biso   1.000  H
  H39      1.0000 0.17570  0.83260  0.00090  Biso   1.000  H
  H40      1.0000 0.67570  0.66740  0.99910  Biso   1.000  H
  H41      1.0000 0.23690  0.59060  0.54250  Biso   1.000  H
  H42      1.0000 0.73690  0.90940  0.45750  Biso   1.000  H
  H43      1.0000 0.76310  0.09060  0.95750  Biso   1.000  H
  H44      1.0000 0.26310  0.40940  0.04250  Biso   1.000  H
  H45      1.0000 0.76310  0.40940  0.45750  Biso   1.000  H
  H46      1.0000 0.26310  0.09060  0.54250  Biso   1.000  H
  H47      1.0000 0.23690  0.90940  0.04250  Biso   1.000  H
  H48      1.0000 0.73690  0.59060  0.95750  Biso   1.000  H
  H49      1.0000 0.15520  0.60190  0.57230  Biso   1.000  H
  H50      1.0000 0.65520  0.89810  0.42770  Biso   1.000  H
  H51      1.0000 0.84480  0.10190  0.92770  Biso   1.000  H
  H52      1.0000 0.34480  0.39810  0.07230  Biso   1.000  H
  H53      1.0000 0.84480  0.39810  0.42770  Biso   1.000  H
  H54      1.0000 0.34480  0.10190  0.57230  Biso   1.000  H
  H55      1.0000 0.15520  0.89810  0.07230  Biso   1.000  H
  H56      1.0000 0.65520  0.60190  0.92770  Biso   1.000  H
  C57      1.0000 0.89100  0.24253  0.17100  Biso   1.000  C
  C58      1.0000 0.39100  0.25747  0.82900  Biso   1.000  C
  C59      1.0000 0.10900  0.74253  0.32900  Biso   1.000  C
  C60      1.0000 0.60900  0.75747  0.67100  Biso   1.000  C
  C61      1.0000 0.10900  0.75747  0.82900  Biso   1.000  C
  C62      1.0000 0.60900  0.74253  0.17100  Biso   1.000  C
  C63      1.0000 0.89100  0.25747  0.67100  Biso   1.000  C
  C64      1.0000 0.39100  0.24253  0.32900  Biso   1.000  C
  C65      1.0000 0.85948  0.12276  0.17342  Biso   1.000  C
  C66      1.0000 0.35948  0.37724  0.82658  Biso   1.000  C
  C67      1.0000 0.14052  0.62276  0.32658  Biso   1.000  C
  C68      1.0000 0.64052  0.87724  0.67342  Biso   1.000  C
  C69      1.0000 0.14052  0.87724  0.82658  Biso   1.000  C
  C70      1.0000 0.64052  0.62276  0.17342  Biso   1.000  C
  C71      1.0000 0.85948  0.37724  0.67342  Biso   1.000  C
  C72      1.0000 0.35948  0.12276  0.32658  Biso   1.000  C
  H57      1.0000 0.87350  0.06030  0.14100  Biso   1.000  H
  H58      1.0000 0.37350  0.43970  0.85900  Biso   1.000  H
  H59      1.0000 0.12650  0.56030  0.35900  Biso   1.000  H
  H60      1.0000 0.62650  0.93970  0.64100  Biso   1.000  H
  H61      1.0000 0.12650  0.93970  0.85900  Biso   1.000  H
  H62      1.0000 0.62650  0.56030  0.14100  Biso   1.000  H
  H63      1.0000 0.87350  0.43970  0.64100  Biso   1.000  H
  H64      1.0000 0.37350  0.06030  0.35900  Biso   1.000  H
  C73      1.0000 0.80753  0.09409  0.22316  Biso   1.000  C
  C74      1.0000 0.30753  0.40591  0.77684  Biso   1.000  C
  C75      1.0000 0.19247  0.59409  0.27684  Biso   1.000  C
  C76      1.0000 0.69247  0.90591  0.72316  Biso   1.000  C
  C77      1.0000 0.19247  0.90591  0.77684  Biso   1.000  C
  C78      1.0000 0.69247  0.59409  0.22316  Biso   1.000  C
  C79      1.0000 0.80753  0.40591  0.72316  Biso   1.000  C
  C80      1.0000 0.30753  0.09409  0.27684  Biso   1.000  C
  H65      1.0000 0.78620  0.01210  0.22430  Biso   1.000  H
  H66      1.0000 0.28620  0.48790  0.77570  Biso   1.000  H
  H67      1.0000 0.21380  0.51210  0.27570  Biso   1.000  H
  H68      1.0000 0.71380  0.98790  0.72430  Biso   1.000  H
  H69      1.0000 0.21380  0.98790  0.77570  Biso   1.000  H
  H70      1.0000 0.71380  0.51210  0.22430  Biso   1.000  H
  H71      1.0000 0.78620  0.48790  0.72430  Biso   1.000  H
  H72      1.0000 0.28620  0.01210  0.27570  Biso   1.000  H
  C81      1.0000 0.78635  0.18402  0.27137  Biso   1.000  C
  C82      1.0000 0.28635  0.31598  0.72863  Biso   1.000  C
  C83      1.0000 0.21365  0.68402  0.22863  Biso   1.000  C
  C84      1.0000 0.71365  0.81598  0.77137  Biso   1.000  C
  C85      1.0000 0.21365  0.81598  0.72863  Biso   1.000  C
  C86      1.0000 0.71365  0.68402  0.27137  Biso   1.000  C
  C87      1.0000 0.78635  0.31598  0.77137  Biso   1.000  C
  C88      1.0000 0.28635  0.18402  0.22863  Biso   1.000  C
  C89      1.0000 0.81805  0.30335  0.26818  Biso   1.000  C
  C90      1.0000 0.31805  0.19665  0.73182  Biso   1.000  C
  C91      1.0000 0.18195  0.80335  0.23182  Biso   1.000  C
  C92      1.0000 0.68195  0.69665  0.76818  Biso   1.000  C
  C93      1.0000 0.18195  0.69665  0.73182  Biso   1.000  C
  C94      1.0000 0.68195  0.80335  0.26818  Biso   1.000  C
  C95      1.0000 0.81805  0.19665  0.76818  Biso   1.000  C
  C96      1.0000 0.31805  0.30335  0.23182  Biso   1.000  C
  H73      1.0000 0.80400  0.36580  0.30060  Biso   1.000  H
  H74      1.0000 0.30400  0.13420  0.69940  Biso   1.000  H
  H75      1.0000 0.19600  0.86580  0.19940  Biso   1.000  H
  H76      1.0000 0.69600  0.63420  0.80060  Biso   1.000  H
  H77      1.0000 0.19600  0.63420  0.69940  Biso   1.000  H
  H78      1.0000 0.69600  0.86580  0.30060  Biso   1.000  H
  H79      1.0000 0.80400  0.13420  0.80060  Biso   1.000  H
  H80      1.0000 0.30400  0.36580  0.19940  Biso   1.000  H
  C97      1.0000 0.86984  0.33347  0.21857  Biso   1.000  C
  C98      1.0000 0.36984  0.16653  0.78143  Biso   1.000  C
  C99      1.0000 0.13016  0.83347  0.28143  Biso   1.000  C
  C100     1.0000 0.63016  0.66653  0.71857  Biso   1.000  C
  C101     1.0000 0.13016  0.66653  0.78143  Biso   1.000  C
  C102     1.0000 0.63016  0.83347  0.21857  Biso   1.000  C
  C103     1.0000 0.86984  0.16653  0.71857  Biso   1.000  C
  C104     1.0000 0.36984  0.33347  0.28143  Biso   1.000  C
  H81      1.0000 0.89070  0.41580  0.21710  Biso   1.000  H
  H82      1.0000 0.39070  0.08420  0.78290  Biso   1.000  H
  H83      1.0000 0.10930  0.91580  0.28290  Biso   1.000  H
  H84      1.0000 0.60930  0.58420  0.71710  Biso   1.000  H
  H85      1.0000 0.10930  0.58420  0.78290  Biso   1.000  H
  H86      1.0000 0.60930  0.91580  0.21710  Biso   1.000  H
  H87      1.0000 0.89070  0.08420  0.71710  Biso   1.000  H
  H88      1.0000 0.39070  0.41580  0.28290  Biso   1.000  H
  C105     1.0000 0.73004  0.15330  0.32560  Biso   1.000  C
  C106     1.0000 0.23004  0.34670  0.67440  Biso   1.000  C
  C107     1.0000 0.26996  0.65330  0.17440  Biso   1.000  C
  C108     1.0000 0.76996  0.84670  0.82560  Biso   1.000  C
  C109     1.0000 0.26996  0.84670  0.67440  Biso   1.000  C
  C110     1.0000 0.76996  0.65330  0.32560  Biso   1.000  C
  C111     1.0000 0.73004  0.34670  0.82560  Biso   1.000  C
  C112     1.0000 0.23004  0.15330  0.17440  Biso   1.000  C
  H89      1.0000 0.68580  0.11900  0.30390  Biso   1.000  H
  H90      1.0000 0.18580  0.38100  0.69610  Biso   1.000  H
  H91      1.0000 0.31420  0.61900  0.19610  Biso   1.000  H
  H92      1.0000 0.81420  0.88100  0.80390  Biso   1.000  H
  H93      1.0000 0.31420  0.88100  0.69610  Biso   1.000  H
  H94      1.0000 0.81420  0.61900  0.30390  Biso   1.000  H
  H95      1.0000 0.68580  0.38100  0.80390  Biso   1.000  H
  H96      1.0000 0.18580  0.11900  0.19610  Biso   1.000  H
  H97      1.0000 0.71740  0.23050  0.35080  Biso   1.000  H
  H98      1.0000 0.21740  0.26950  0.64920  Biso   1.000  H
  H99      1.0000 0.28260  0.73050  0.14920  Biso   1.000  H
  H100     1.0000 0.78260  0.76950  0.85080  Biso   1.000  H
  H101     1.0000 0.28260  0.76950  0.64920  Biso   1.000  H
  H102     1.0000 0.78260  0.73050  0.35080  Biso   1.000  H
  H103     1.0000 0.71740  0.26950  0.85080  Biso   1.000  H
  H104     1.0000 0.21740  0.23050  0.14920  Biso   1.000  H
  H105     1.0000 0.75040  0.09060  0.35730  Biso   1.000  H
  H106     1.0000 0.25040  0.40940  0.64270  Biso   1.000  H
  H107     1.0000 0.24960  0.59060  0.14270  Biso   1.000  H
  H108     1.0000 0.74960  0.90940  0.85730  Biso   1.000  H
  H109     1.0000 0.24960  0.90940  0.64270  Biso   1.000  H
  H110     1.0000 0.74960  0.59060  0.35730  Biso   1.000  H
  H111     1.0000 0.75040  0.40940  0.85730  Biso   1.000  H
  H112     1.0000 0.25040  0.09060  0.14270  Biso   1.000  H
  C113     1.0000 0.04266  0.23977  0.15576  Biso   1.000  C
  C114     1.0000 0.54266  0.26023  0.84424  Biso   1.000  C
  C115     1.0000 0.95734  0.73977  0.34424  Biso   1.000  C
  C116     1.0000 0.45734  0.76023  0.65576  Biso   1.000  C
  C117     1.0000 0.95734  0.76023  0.84424  Biso   1.000  C
  C118     1.0000 0.45734  0.73977  0.15576  Biso   1.000  C
  C119     1.0000 0.04266  0.26023  0.65576  Biso   1.000  C
  C120     1.0000 0.54266  0.23977  0.34424  Biso   1.000  C
  H113     1.0000 0.03900  0.15440  0.17630  Biso   1.000  H
  H114     1.0000 0.53900  0.34560  0.82370  Biso   1.000  H
  H115     1.0000 0.96100  0.65440  0.32370  Biso   1.000  H
  H116     1.0000 0.46100  0.84560  0.67630  Biso   1.000  H
  H117     1.0000 0.96100  0.84560  0.82370  Biso   1.000  H
  H118     1.0000 0.46100  0.65440  0.17630  Biso   1.000  H
  H119     1.0000 0.03900  0.34560  0.67630  Biso   1.000  H
  H120     1.0000 0.53900  0.15440  0.32370  Biso   1.000  H
  H121     1.0000 0.08510  0.23990  0.12410  Biso   1.000  H
  H122     1.0000 0.58510  0.26010  0.87590  Biso   1.000  H
  H123     1.0000 0.91490  0.73990  0.37590  Biso   1.000  H
  H124     1.0000 0.41490  0.76010  0.62410  Biso   1.000  H
  H125     1.0000 0.91490  0.76010  0.87590  Biso   1.000  H
  H126     1.0000 0.41490  0.73990  0.12410  Biso   1.000  H
  H127     1.0000 0.08510  0.26010  0.62410  Biso   1.000  H
  H128     1.0000 0.58510  0.23990  0.37590  Biso   1.000  H
  C121     1.0000 0.05586  0.33413  0.21112  Biso   1.000  C
  C122     1.0000 0.55586  0.16587  0.78888  Biso   1.000  C
  C123     1.0000 0.94414  0.83413  0.28888  Biso   1.000  C
  C124     1.0000 0.44414  0.66587  0.71112  Biso   1.000  C
  C125     1.0000 0.94414  0.66587  0.78888  Biso   1.000  C
  C126     1.0000 0.44414  0.83413  0.21112  Biso   1.000  C
  C127     1.0000 0.05586  0.16587  0.71112  Biso   1.000  C
  C128     1.0000 0.55586  0.33413  0.28888  Biso   1.000  C
  H129     1.0000 0.07300  0.41500  0.19720  Biso   1.000  H
  H130     1.0000 0.57300  0.08500  0.80280  Biso   1.000  H
  H131     1.0000 0.92700  0.91500  0.30280  Biso   1.000  H
  H132     1.0000 0.42700  0.58500  0.69720  Biso   1.000  H
  H133     1.0000 0.92700  0.58500  0.80280  Biso   1.000  H
  H134     1.0000 0.42700  0.91500  0.19720  Biso   1.000  H
  H135     1.0000 0.07300  0.08500  0.69720  Biso   1.000  H
  H136     1.0000 0.57300  0.41500  0.30280  Biso   1.000  H
  C129     1.0000 0.04627  0.31716  0.27780  Biso   1.000  C
  C130     1.0000 0.54627  0.18284  0.72220  Biso   1.000  C
  C131     1.0000 0.95373  0.81716  0.22220  Biso   1.000  C
  C132     1.0000 0.45373  0.68284  0.77780  Biso   1.000  C
  C133     1.0000 0.95373  0.68284  0.72220  Biso   1.000  C
  C134     1.0000 0.45373  0.81716  0.27780  Biso   1.000  C
  C135     1.0000 0.04627  0.18284  0.77780  Biso   1.000  C
  C136     1.0000 0.54627  0.31716  0.22220  Biso   1.000  C
  H137     1.0000 0.05690  0.38790  0.30620  Biso   1.000  H
  H138     1.0000 0.55690  0.11210  0.69380  Biso   1.000  H
  H139     1.0000 0.94310  0.88790  0.19380  Biso   1.000  H
  H140     1.0000 0.44310  0.61210  0.80620  Biso   1.000  H
  H141     1.0000 0.94310  0.61210  0.69380  Biso   1.000  H
  H142     1.0000 0.44310  0.88790  0.30620  Biso   1.000  H
  H143     1.0000 0.05690  0.11210  0.80620  Biso   1.000  H
  H144     1.0000 0.55690  0.38790  0.19380  Biso   1.000  H
  C137     1.0000 0.02072  0.20024  0.31378  Biso   1.000  C
  C138     1.0000 0.52072  0.29976  0.68622  Biso   1.000  C
  C139     1.0000 0.97928  0.70024  0.18622  Biso   1.000  C
  C140     1.0000 0.47928  0.79976  0.81378  Biso   1.000  C
  C141     1.0000 0.97928  0.79976  0.68622  Biso   1.000  C
  C142     1.0000 0.47928  0.70024  0.31378  Biso   1.000  C
  C143     1.0000 0.02072  0.29976  0.81378  Biso   1.000  C
  C144     1.0000 0.52072  0.20024  0.18622  Biso   1.000  C
  H145     1.0000 0.00380  0.13770  0.27950  Biso   1.000  H
  H146     1.0000 0.50380  0.36230  0.72050  Biso   1.000  H
  H147     1.0000 0.99620  0.63770  0.22050  Biso   1.000  H
  H148     1.0000 0.49620  0.86230  0.77950  Biso   1.000  H
  H149     1.0000 0.99620  0.86230  0.72050  Biso   1.000  H
  H150     1.0000 0.49620  0.63770  0.27950  Biso   1.000  H
  H151     1.0000 0.00380  0.36230  0.77950  Biso   1.000  H
  H152     1.0000 0.50380  0.13770  0.22050  Biso   1.000  H
  H153     1.0000 0.97850  0.22150  0.34360  Biso   1.000  H
  H154     1.0000 0.47850  0.27850  0.65640  Biso   1.000  H
  H155     1.0000 0.02150  0.72150  0.15640  Biso   1.000  H
  H156     1.0000 0.52150  0.77850  0.84360  Biso   1.000  H
  H157     1.0000 0.02150  0.77850  0.65640  Biso   1.000  H
  H158     1.0000 0.52150  0.72150  0.34360  Biso   1.000  H
  H159     1.0000 0.97850  0.27850  0.84360  Biso   1.000  H
  H160     1.0000 0.47850  0.22150  0.15640  Biso   1.000  H
  S1       1.0000 0.09421  0.12991  0.36595  Biso   1.000  S
  S2       1.0000 0.59421  0.37009  0.63405  Biso   1.000  S
  S3       1.0000 0.90579  0.62991  0.13405  Biso   1.000  S
  S4       1.0000 0.40579  0.87009  0.86595  Biso   1.000  S
  S5       1.0000 0.90579  0.87009  0.63405  Biso   1.000  S
  S6       1.0000 0.40579  0.62991  0.36595  Biso   1.000  S
  S7       1.0000 0.09421  0.37009  0.86595  Biso   1.000  S
  S8       1.0000 0.59421  0.12991  0.13405  Biso   1.000  S
  S9       1.0000 0.95841  0.27258  0.10699  Biso   1.000  S
  S10      1.0000 0.45841  0.22742  0.89301  Biso   1.000  S
  S11      1.0000 0.04159  0.77258  0.39301  Biso   1.000  S
  S12      1.0000 0.54159  0.72742  0.60699  Biso   1.000  S
  S13      1.0000 0.04159  0.72742  0.89301  Biso   1.000  S
  S14      1.0000 0.54159  0.77258  0.10699  Biso   1.000  S
  S15      1.0000 0.95841  0.22742  0.60699  Biso   1.000  S
  S16      1.0000 0.45841  0.27258  0.39301  Biso   1.000  S
  Cu1      1.0000 0.96361  0.48000  0.06667  Biso   1.000  Cu
  Cu2      1.0000 0.46361  0.02000  0.93333  Biso   1.000  Cu
  Cu3      1.0000 0.03639  0.98000  0.43333  Biso   1.000  Cu
  Cu4      1.0000 0.53639  0.52000  0.56667  Biso   1.000  Cu
  Cu5      1.0000 0.03639  0.52000  0.93333  Biso   1.000  Cu
  Cu6      1.0000 0.53639  0.98000  0.06667  Biso   1.000  Cu
  Cu7      1.0000 0.96361  0.02000  0.56667  Biso   1.000  Cu
  Cu8      1.0000 0.46361  0.48000  0.43333  Biso   1.000  Cu
  I1       1.0000 0.89657  0.46465  0.94761  Biso   1.000  I
  I2       1.0000 0.39657  0.03535  0.05239  Biso   1.000  I
  I3       1.0000 0.10343  0.96465  0.55239  Biso   1.000  I
  I4       1.0000 0.60343  0.53535  0.44761  Biso   1.000  I
  I5       1.0000 0.10343  0.53535  0.05239  Biso   1.000  I
  I6       1.0000 0.60343  0.96465  0.94761  Biso   1.000  I
  I7       1.0000 0.89657  0.03535  0.44761  Biso   1.000  I
  I8       1.0000 0.39657  0.46465  0.55239  Biso   1.000  I
