data_image0
_cell_length_a       15.031
_cell_length_b       27.899
_cell_length_c       11.378
_cell_angle_alpha    90
_cell_angle_beta     90
_cell_angle_gamma    90

_symmetry_space_group_name_H-M    "P 1"
_symmetry_int_tables_number       1

loop_
  _symmetry_equiv_pos_as_xyz
  'x, y, z'

loop_
  _atom_site_label
  _atom_site_occupancy
  _atom_site_fract_x
  _atom_site_fract_y
  _atom_site_fract_z
  _atom_site_thermal_displace_type
  _atom_site_B_iso_or_equiv
  _atom_site_type_symbol
  Cu1      1.0000 0.37576  0.49278  0.22287  Biso   1.000  Cu
  Cu2      1.0000 0.62424  0.50722  0.22287  Biso   1.000  Cu
  Cu3      1.0000 0.12424  0.99278  0.77713  Biso   1.000  Cu
  Cu4      1.0000 0.87576  0.00722  0.77713  Biso   1.000  Cu
  Cu5      1.0000 0.35148  0.57737  0.29938  Biso   1.000  Cu
  Cu6      1.0000 0.64852  0.42263  0.29938  Biso   1.000  Cu
  Cu7      1.0000 0.14852  0.07737  0.70062  Biso   1.000  Cu
  Cu8      1.0000 0.85148  0.92263  0.70062  Biso   1.000  Cu
  Na1      1.0000 0.50000  0.50000  0.73050  Biso   1.000  Na
  Na2      1.0000 0.00000  0.00000  0.26950  Biso   1.000  Na
  O1       1.0000 0.39150  0.49920  0.86790  Biso   1.000  O
  O2       1.0000 0.60850  0.50080  0.86790  Biso   1.000  O
  O3       1.0000 0.10850  0.99920  0.13210  Biso   1.000  O
  O4       1.0000 0.89150  0.00080  0.13210  Biso   1.000  O
  N1       1.0000 0.43150  0.43370  0.13020  Biso   1.000  N
  N2       1.0000 0.56850  0.56630  0.13020  Biso   1.000  N
  N3       1.0000 0.06850  0.93370  0.86980  Biso   1.000  N
  N4       1.0000 0.93150  0.06630  0.86980  Biso   1.000  N
  N5       1.0000 0.36810  0.52120  0.06490  Biso   1.000  N
  N6       1.0000 0.63190  0.47880  0.06490  Biso   1.000  N
  N7       1.0000 0.13190  0.02120  0.93510  Biso   1.000  N
  N8       1.0000 0.86810  0.97880  0.93510  Biso   1.000  N
  N9       1.0000 0.32580  0.59460  0.13960  Biso   1.000  N
  N10      1.0000 0.67420  0.40540  0.13960  Biso   1.000  N
  N11      1.0000 0.17420  0.09460  0.86040  Biso   1.000  N
  N12      1.0000 0.82580  0.90540  0.86040  Biso   1.000  N
  C1       1.0000 0.45910  0.39010  0.16410  Biso   1.000  C
  C2       1.0000 0.54090  0.60990  0.16410  Biso   1.000  C
  C3       1.0000 0.04090  0.89010  0.83590  Biso   1.000  C
  C4       1.0000 0.95910  0.10990  0.83590  Biso   1.000  C
  H1       1.0000 0.46920  0.38460  0.24540  Biso   1.000  H
  H2       1.0000 0.53080  0.61540  0.24540  Biso   1.000  H
  H3       1.0000 0.03080  0.88460  0.75460  Biso   1.000  H
  H4       1.0000 0.96920  0.11540  0.75460  Biso   1.000  H
  C5       1.0000 0.47340  0.35290  0.08660  Biso   1.000  C
  C6       1.0000 0.52660  0.64710  0.08660  Biso   1.000  C
  C7       1.0000 0.02660  0.85290  0.91340  Biso   1.000  C
  C8       1.0000 0.97340  0.14710  0.91340  Biso   1.000  C
  H5       1.0000 0.49380  0.32260  0.11330  Biso   1.000  H
  H6       1.0000 0.50620  0.67740  0.11330  Biso   1.000  H
  H7       1.0000 0.00620  0.82260  0.88670  Biso   1.000  H
  H8       1.0000 0.99380  0.17740  0.88670  Biso   1.000  H
  C9       1.0000 0.45700  0.36130  0.96790  Biso   1.000  C
  C10      1.0000 0.54300  0.63870  0.96790  Biso   1.000  C
  C11      1.0000 0.04300  0.86130  0.03210  Biso   1.000  C
  C12      1.0000 0.95700  0.13870  0.03210  Biso   1.000  C
  H9       1.0000 0.46370  0.33610  0.91240  Biso   1.000  H
  H10      1.0000 0.53630  0.66390  0.91240  Biso   1.000  H
  H11      1.0000 0.03630  0.83610  0.08760  Biso   1.000  H
  H12      1.0000 0.96370  0.16390  0.08760  Biso   1.000  H
  C13      1.0000 0.43150  0.40540  0.93240  Biso   1.000  C
  C14      1.0000 0.56850  0.59460  0.93240  Biso   1.000  C
  C15      1.0000 0.06850  0.90540  0.06760  Biso   1.000  C
  C16      1.0000 0.93150  0.09460  0.06760  Biso   1.000  C
  H13      1.0000 0.42210  0.41170  0.85130  Biso   1.000  H
  H14      1.0000 0.57790  0.58830  0.85130  Biso   1.000  H
  H15      1.0000 0.07790  0.91170  0.14870  Biso   1.000  H
  H16      1.0000 0.92210  0.08830  0.14870  Biso   1.000  H
  C17      1.0000 0.41920  0.44120  0.01410  Biso   1.000  C
  C18      1.0000 0.58080  0.55880  0.01410  Biso   1.000  C
  C19      1.0000 0.08080  0.94120  0.98590  Biso   1.000  C
  C20      1.0000 0.91920  0.05880  0.98590  Biso   1.000  C
  C21      1.0000 0.39120  0.49110  0.97550  Biso   1.000  C
  C22      1.0000 0.60880  0.50890  0.97550  Biso   1.000  C
  C23      1.0000 0.10880  0.99110  0.02450  Biso   1.000  C
  C24      1.0000 0.89120  0.00890  0.02450  Biso   1.000  C
  C25      1.0000 0.34220  0.56790  0.04210  Biso   1.000  C
  C26      1.0000 0.65780  0.43210  0.04210  Biso   1.000  C
  C27      1.0000 0.15780  0.06790  0.95790  Biso   1.000  C
  C28      1.0000 0.84220  0.93210  0.95790  Biso   1.000  C
  C29      1.0000 0.33370  0.58910  0.93120  Biso   1.000  C
  C30      1.0000 0.66630  0.41090  0.93120  Biso   1.000  C
  C31      1.0000 0.16630  0.08910  0.06880  Biso   1.000  C
  C32      1.0000 0.83370  0.91090  0.06880  Biso   1.000  C
  H17      1.0000 0.34460  0.57060  0.86260  Biso   1.000  H
  H18      1.0000 0.65540  0.42940  0.86260  Biso   1.000  H
  H19      1.0000 0.15540  0.07060  0.13740  Biso   1.000  H
  H20      1.0000 0.84460  0.92940  0.13740  Biso   1.000  H
  C33      1.0000 0.30980  0.63640  0.92020  Biso   1.000  C
  C34      1.0000 0.69020  0.36360  0.92020  Biso   1.000  C
  C35      1.0000 0.19020  0.13640  0.07980  Biso   1.000  C
  C36      1.0000 0.80980  0.86360  0.07980  Biso   1.000  C
  H21      1.0000 0.30670  0.65090  0.84480  Biso   1.000  H
  H22      1.0000 0.69330  0.34910  0.84480  Biso   1.000  H
  H23      1.0000 0.19330  0.15090  0.15520  Biso   1.000  H
  H24      1.0000 0.80670  0.84910  0.15520  Biso   1.000  H
  C37      1.0000 0.29030  0.66280  0.01960  Biso   1.000  C
  C38      1.0000 0.70970  0.33720  0.01960  Biso   1.000  C
  C39      1.0000 0.20970  0.16280  0.98040  Biso   1.000  C
  C40      1.0000 0.79030  0.83720  0.98040  Biso   1.000  C
  H25      1.0000 0.27200  0.69530  0.01390  Biso   1.000  H
  H26      1.0000 0.72800  0.30470  0.01390  Biso   1.000  H
  H27      1.0000 0.22800  0.19530  0.98610  Biso   1.000  H
  H28      1.0000 0.77200  0.80470  0.98610  Biso   1.000  H
  C41      1.0000 0.29810  0.64070  0.12690  Biso   1.000  C
  C42      1.0000 0.70190  0.35930  0.12690  Biso   1.000  C
  C43      1.0000 0.20190  0.14070  0.87310  Biso   1.000  C
  C44      1.0000 0.79810  0.85930  0.87310  Biso   1.000  C
  H29      1.0000 0.28350  0.65840  0.19540  Biso   1.000  H
  H30      1.0000 0.71650  0.34160  0.19540  Biso   1.000  H
  H31      1.0000 0.21650  0.15840  0.80460  Biso   1.000  H
  H32      1.0000 0.78350  0.84160  0.80460  Biso   1.000  H
  O5       1.0000 0.45200  0.56270  0.62700  Biso   1.000  O
  O6       1.0000 0.54800  0.43730  0.62700  Biso   1.000  O
  O7       1.0000 0.04800  0.06270  0.37300  Biso   1.000  O
  O8       1.0000 0.95200  0.93730  0.37300  Biso   1.000  O
  N13      1.0000 0.35100  0.47340  0.38350  Biso   1.000  N
  N14      1.0000 0.64900  0.52660  0.38350  Biso   1.000  N
  N15      1.0000 0.14900  0.97340  0.61650  Biso   1.000  N
  N16      1.0000 0.85100  0.02660  0.61650  Biso   1.000  N
  N17      1.0000 0.37690  0.54980  0.44990  Biso   1.000  N
  N18      1.0000 0.62310  0.45020  0.44990  Biso   1.000  N
  N19      1.0000 0.12310  0.04980  0.55010  Biso   1.000  N
  N20      1.0000 0.87690  0.95020  0.55010  Biso   1.000  N
  N21      1.0000 0.40450  0.64360  0.39480  Biso   1.000  N
  N22      1.0000 0.59550  0.35640  0.39480  Biso   1.000  N
  N23      1.0000 0.09550  0.14360  0.60520  Biso   1.000  N
  N24      1.0000 0.90450  0.85640  0.60520  Biso   1.000  N
  C45      1.0000 0.32820  0.42680  0.40260  Biso   1.000  C
  C46      1.0000 0.67180  0.57320  0.40260  Biso   1.000  C
  C47      1.0000 0.17180  0.92680  0.59740  Biso   1.000  C
  C48      1.0000 0.82820  0.07320  0.59740  Biso   1.000  C
  H33      1.0000 0.32620  0.40590  0.33660  Biso   1.000  H
  H34      1.0000 0.67380  0.59410  0.33660  Biso   1.000  H
  H35      1.0000 0.17380  0.90590  0.66340  Biso   1.000  H
  H36      1.0000 0.82620  0.09410  0.66340  Biso   1.000  H
  C49      1.0000 0.30810  0.40820  0.50950  Biso   1.000  C
  C50      1.0000 0.69190  0.59180  0.50950  Biso   1.000  C
  C51      1.0000 0.19190  0.90820  0.49050  Biso   1.000  C
  C52      1.0000 0.80810  0.09180  0.49050  Biso   1.000  C
  H37      1.0000 0.29270  0.37540  0.51840  Biso   1.000  H
  H38      1.0000 0.70730  0.62460  0.51840  Biso   1.000  H
  H39      1.0000 0.20730  0.87540  0.48160  Biso   1.000  H
  H40      1.0000 0.79270  0.12460  0.48160  Biso   1.000  H
  C53      1.0000 0.31090  0.43890  0.60520  Biso   1.000  C
  C54      1.0000 0.68910  0.56110  0.60520  Biso   1.000  C
  C55      1.0000 0.18910  0.93890  0.39480  Biso   1.000  C
  C56      1.0000 0.81090  0.06110  0.39480  Biso   1.000  C
  H41      1.0000 0.29790  0.42730  0.68180  Biso   1.000  H
  H42      1.0000 0.70210  0.57270  0.68180  Biso   1.000  H
  H43      1.0000 0.20210  0.92730  0.31820  Biso   1.000  H
  H44      1.0000 0.79790  0.07270  0.31820  Biso   1.000  H
  C57      1.0000 0.33230  0.48580  0.58890  Biso   1.000  C
  C58      1.0000 0.66770  0.51420  0.58890  Biso   1.000  C
  C59      1.0000 0.16770  0.98580  0.41110  Biso   1.000  C
  C60      1.0000 0.83230  0.01420  0.41110  Biso   1.000  C
  H45      1.0000 0.33190  0.50700  0.65400  Biso   1.000  H
  H46      1.0000 0.66810  0.49300  0.65400  Biso   1.000  H
  H47      1.0000 0.16810  0.00700  0.34600  Biso   1.000  H
  H48      1.0000 0.83190  0.99300  0.34600  Biso   1.000  H
  C61      1.0000 0.35520  0.50330  0.47660  Biso   1.000  C
  C62      1.0000 0.64480  0.49670  0.47660  Biso   1.000  C
  C63      1.0000 0.14480  0.00330  0.52340  Biso   1.000  C
  C64      1.0000 0.85520  0.99670  0.52340  Biso   1.000  C
  C65      1.0000 0.42130  0.57630  0.53210  Biso   1.000  C
  C66      1.0000 0.57870  0.42370  0.53210  Biso   1.000  C
  C67      1.0000 0.07870  0.07630  0.46790  Biso   1.000  C
  C68      1.0000 0.92130  0.92370  0.46790  Biso   1.000  C
  C69      1.0000 0.43700  0.62800  0.49680  Biso   1.000  C
  C70      1.0000 0.56300  0.37200  0.49680  Biso   1.000  C
  C71      1.0000 0.06300  0.12800  0.50320  Biso   1.000  C
  C72      1.0000 0.93700  0.87200  0.50320  Biso   1.000  C
  C73      1.0000 0.48630  0.65710  0.57150  Biso   1.000  C
  C74      1.0000 0.51370  0.34290  0.57150  Biso   1.000  C
  C75      1.0000 0.01370  0.15710  0.42850  Biso   1.000  C
  C76      1.0000 0.98630  0.84290  0.42850  Biso   1.000  C
  H49      1.0000 0.50940  0.64480  0.64320  Biso   1.000  H
  H50      1.0000 0.49060  0.35520  0.64320  Biso   1.000  H
  H51      1.0000 0.99060  0.14480  0.35680  Biso   1.000  H
  H52      1.0000 0.00940  0.85520  0.35680  Biso   1.000  H
  C77      1.0000 0.50110  0.70420  0.53970  Biso   1.000  C
  C78      1.0000 0.49890  0.29580  0.53970  Biso   1.000  C
  C79      1.0000 0.99890  0.20420  0.46030  Biso   1.000  C
  C80      1.0000 0.00110  0.79580  0.46030  Biso   1.000  C
  H53      1.0000 0.53580  0.72460  0.58840  Biso   1.000  H
  H54      1.0000 0.46420  0.27540  0.58840  Biso   1.000  H
  H55      1.0000 0.96420  0.22460  0.41160  Biso   1.000  H
  H56      1.0000 0.03580  0.77540  0.41160  Biso   1.000  H
  C81      1.0000 0.46440  0.72150  0.43500  Biso   1.000  C
  C82      1.0000 0.53560  0.27850  0.43500  Biso   1.000  C
  C83      1.0000 0.03560  0.22150  0.56500  Biso   1.000  C
  C84      1.0000 0.96440  0.77850  0.56500  Biso   1.000  C
  H57      1.0000 0.47170  0.75400  0.41170  Biso   1.000  H
  H58      1.0000 0.52830  0.24600  0.41170  Biso   1.000  H
  H59      1.0000 0.02830  0.25400  0.58830  Biso   1.000  H
  H60      1.0000 0.97170  0.74600  0.58830  Biso   1.000  H
  C85      1.0000 0.41730  0.68950  0.36710  Biso   1.000  C
  C86      1.0000 0.58270  0.31050  0.36710  Biso   1.000  C
  C87      1.0000 0.08270  0.18950  0.63290  Biso   1.000  C
  C88      1.0000 0.91730  0.81050  0.63290  Biso   1.000  C
  H61      1.0000 0.39220  0.70100  0.29580  Biso   1.000  H
  H62      1.0000 0.60780  0.29900  0.29580  Biso   1.000  H
  H63      1.0000 0.10780  0.20100  0.70420  Biso   1.000  H
  H64      1.0000 0.89220  0.79900  0.70420  Biso   1.000  H
  Cu9      1.0000 0.37316  0.99920  0.68446  Biso   1.000  Cu
  Cu10     1.0000 0.62684  0.00080  0.68446  Biso   1.000  Cu
  Cu11     1.0000 0.12684  0.49920  0.31554  Biso   1.000  Cu
  Cu12     1.0000 0.87316  0.50080  0.31554  Biso   1.000  Cu
  Cu13     1.0000 0.37566  0.08611  0.75704  Biso   1.000  Cu
  Cu14     1.0000 0.62434  0.91389  0.75704  Biso   1.000  Cu
  Cu15     1.0000 0.12434  0.58611  0.24296  Biso   1.000  Cu
  Cu16     1.0000 0.87566  0.41389  0.24296  Biso   1.000  Cu
  Na3      1.0000 0.50000  0.00000  0.18920  Biso   1.000  Na
  Na4      1.0000 0.00000  0.50000  0.81080  Biso   1.000  Na
  O9       1.0000 0.39390  0.00680  0.33090  Biso   1.000  O
  O10      1.0000 0.60610  0.99320  0.33090  Biso   1.000  O
  O11      1.0000 0.10610  0.50680  0.66910  Biso   1.000  O
  O12      1.0000 0.89390  0.49320  0.66910  Biso   1.000  O
  N25      1.0000 0.41310  0.93680  0.58970  Biso   1.000  N
  N26      1.0000 0.58690  0.06320  0.58970  Biso   1.000  N
  N27      1.0000 0.08690  0.43680  0.41030  Biso   1.000  N
  N28      1.0000 0.91310  0.56320  0.41030  Biso   1.000  N
  N29      1.0000 0.36790  0.02750  0.52600  Biso   1.000  N
  N30      1.0000 0.63210  0.97250  0.52600  Biso   1.000  N
  N31      1.0000 0.13210  0.52750  0.47400  Biso   1.000  N
  N32      1.0000 0.86790  0.47250  0.47400  Biso   1.000  N
  N33      1.0000 0.34370  0.10360  0.59960  Biso   1.000  N
  N34      1.0000 0.65630  0.89640  0.59960  Biso   1.000  N
  N35      1.0000 0.15630  0.60360  0.40040  Biso   1.000  N
  N36      1.0000 0.84370  0.39640  0.40040  Biso   1.000  N
  C89      1.0000 0.42960  0.89190  0.62110  Biso   1.000  C
  C90      1.0000 0.57040  0.10810  0.62110  Biso   1.000  C
  C91      1.0000 0.07040  0.39190  0.37890  Biso   1.000  C
  C92      1.0000 0.92960  0.60810  0.37890  Biso   1.000  C
  H65      1.0000 0.43310  0.88470  0.70250  Biso   1.000  H
  H66      1.0000 0.56690  0.11530  0.70250  Biso   1.000  H
  H67      1.0000 0.06690  0.38470  0.29750  Biso   1.000  H
  H68      1.0000 0.93310  0.61530  0.29750  Biso   1.000  H
  C93      1.0000 0.44230  0.85480  0.54130  Biso   1.000  C
  C94      1.0000 0.55770  0.14520  0.54130  Biso   1.000  C
  C95      1.0000 0.05770  0.35480  0.45870  Biso   1.000  C
  C96      1.0000 0.94230  0.64520  0.45870  Biso   1.000  C
  H69      1.0000 0.45240  0.82290  0.56720  Biso   1.000  H
  H70      1.0000 0.54760  0.17710  0.56720  Biso   1.000  H
  H71      1.0000 0.04760  0.32290  0.43280  Biso   1.000  H
  H72      1.0000 0.95240  0.67710  0.43280  Biso   1.000  H
  C97      1.0000 0.43950  0.86590  0.42260  Biso   1.000  C
  C98      1.0000 0.56050  0.13410  0.42260  Biso   1.000  C
  C99      1.0000 0.06050  0.36590  0.57740  Biso   1.000  C
  C100     1.0000 0.93950  0.63410  0.57740  Biso   1.000  C
  H73      1.0000 0.44860  0.84140  0.36580  Biso   1.000  H
  H74      1.0000 0.55140  0.15860  0.36580  Biso   1.000  H
  H75      1.0000 0.05140  0.34140  0.63420  Biso   1.000  H
  H76      1.0000 0.94860  0.65860  0.63420  Biso   1.000  H
  C101     1.0000 0.42400  0.91160  0.38710  Biso   1.000  C
  C102     1.0000 0.57600  0.08840  0.38710  Biso   1.000  C
  C103     1.0000 0.07600  0.41160  0.61290  Biso   1.000  C
  C104     1.0000 0.92400  0.58840  0.61290  Biso   1.000  C
  H77      1.0000 0.42270  0.91950  0.30590  Biso   1.000  H
  H78      1.0000 0.57730  0.08050  0.30590  Biso   1.000  H
  H79      1.0000 0.07730  0.41950  0.69410  Biso   1.000  H
  H80      1.0000 0.92270  0.58050  0.69410  Biso   1.000  H
  C105     1.0000 0.40980  0.94680  0.47330  Biso   1.000  C
  C106     1.0000 0.59020  0.05320  0.47330  Biso   1.000  C
  C107     1.0000 0.09020  0.44680  0.52670  Biso   1.000  C
  C108     1.0000 0.90980  0.55320  0.52670  Biso   1.000  C
  C109     1.0000 0.39070  0.99660  0.43740  Biso   1.000  C
  C110     1.0000 0.60930  0.00340  0.43740  Biso   1.000  C
  C111     1.0000 0.10930  0.49660  0.56260  Biso   1.000  C
  C112     1.0000 0.89070  0.50340  0.56260  Biso   1.000  C
  C113     1.0000 0.34500  0.07470  0.50460  Biso   1.000  C
  C114     1.0000 0.65500  0.92530  0.50460  Biso   1.000  C
  C115     1.0000 0.15500  0.57470  0.49540  Biso   1.000  C
  C116     1.0000 0.84500  0.42530  0.49540  Biso   1.000  C
  C117     1.0000 0.32150  0.09400  0.39280  Biso   1.000  C
  C118     1.0000 0.67850  0.90600  0.39280  Biso   1.000  C
  C119     1.0000 0.17850  0.59400  0.60720  Biso   1.000  C
  C120     1.0000 0.82150  0.40600  0.60720  Biso   1.000  C
  H81      1.0000 0.32170  0.07410  0.32510  Biso   1.000  H
  H82      1.0000 0.67830  0.92590  0.32510  Biso   1.000  H
  H83      1.0000 0.17830  0.57410  0.67490  Biso   1.000  H
  H84      1.0000 0.82170  0.42590  0.67490  Biso   1.000  H
  C121     1.0000 0.29880  0.14080  0.38360  Biso   1.000  C
  C122     1.0000 0.70120  0.85920  0.38360  Biso   1.000  C
  C123     1.0000 0.20120  0.64080  0.61640  Biso   1.000  C
  C124     1.0000 0.79880  0.35920  0.61640  Biso   1.000  C
  H85      1.0000 0.28310  0.15340  0.30880  Biso   1.000  H
  H86      1.0000 0.71690  0.84660  0.30880  Biso   1.000  H
  H87      1.0000 0.21690  0.65340  0.69120  Biso   1.000  H
  H88      1.0000 0.78310  0.34660  0.69120  Biso   1.000  H
  C125     1.0000 0.29800  0.17070  0.48080  Biso   1.000  C
  C126     1.0000 0.70200  0.82930  0.48080  Biso   1.000  C
  C127     1.0000 0.20200  0.67070  0.51920  Biso   1.000  C
  C128     1.0000 0.79800  0.32930  0.51920  Biso   1.000  C
  H89      1.0000 0.28220  0.20360  0.47530  Biso   1.000  H
  H90      1.0000 0.71780  0.79640  0.47530  Biso   1.000  H
  H91      1.0000 0.21780  0.70360  0.52470  Biso   1.000  H
  H92      1.0000 0.78220  0.29640  0.52470  Biso   1.000  H
  C129     1.0000 0.32120  0.15000  0.58540  Biso   1.000  C
  C130     1.0000 0.67880  0.85000  0.58540  Biso   1.000  C
  C131     1.0000 0.17880  0.65000  0.41460  Biso   1.000  C
  C132     1.0000 0.82120  0.35000  0.41460  Biso   1.000  C
  H93      1.0000 0.32150  0.16980  0.65330  Biso   1.000  H
  H94      1.0000 0.67850  0.83020  0.65330  Biso   1.000  H
  H95      1.0000 0.17850  0.66980  0.34670  Biso   1.000  H
  H96      1.0000 0.82150  0.33020  0.34670  Biso   1.000  H
  O13      1.0000 0.47270  0.06820  0.08560  Biso   1.000  O
  O14      1.0000 0.52730  0.93180  0.08560  Biso   1.000  O
  O15      1.0000 0.02730  0.56820  0.91440  Biso   1.000  O
  O16      1.0000 0.97270  0.43180  0.91440  Biso   1.000  O
  N37      1.0000 0.43830  0.14890  0.84870  Biso   1.000  N
  N38      1.0000 0.56170  0.85110  0.84870  Biso   1.000  N
  N39      1.0000 0.06170  0.64890  0.15130  Biso   1.000  N
  N40      1.0000 0.93830  0.35110  0.15130  Biso   1.000  N
  N41      1.0000 0.39460  0.05830  0.91120  Biso   1.000  N
  N42      1.0000 0.60540  0.94170  0.91120  Biso   1.000  N
  N43      1.0000 0.10540  0.55830  0.08880  Biso   1.000  N
  N44      1.0000 0.89460  0.44170  0.08880  Biso   1.000  N
  N45      1.0000 0.35050  0.98320  0.84710  Biso   1.000  N
  N46      1.0000 0.64950  0.01680  0.84710  Biso   1.000  N
  N47      1.0000 0.14950  0.48320  0.15290  Biso   1.000  N
  N48      1.0000 0.85050  0.51680  0.15290  Biso   1.000  N
  C133     1.0000 0.46260  0.19340  0.81490  Biso   1.000  C
  C134     1.0000 0.53740  0.80660  0.81490  Biso   1.000  C
  C135     1.0000 0.03740  0.69340  0.18510  Biso   1.000  C
  C136     1.0000 0.96260  0.30660  0.18510  Biso   1.000  C
  H97      1.0000 0.43880  0.20560  0.74350  Biso   1.000  H
  H98      1.0000 0.56120  0.79440  0.74350  Biso   1.000  H
  H99      1.0000 0.06120  0.70560  0.25650  Biso   1.000  H
  H100     1.0000 0.93880  0.29440  0.25650  Biso   1.000  H
  C137     1.0000 0.51980  0.22220  0.87810  Biso   1.000  C
  C138     1.0000 0.48020  0.77780  0.87810  Biso   1.000  C
  C139     1.0000 0.98020  0.72220  0.12190  Biso   1.000  C
  C140     1.0000 0.01980  0.27780  0.12190  Biso   1.000  C
  H101     1.0000 0.53600  0.25300  0.85000  Biso   1.000  H
  H102     1.0000 0.46400  0.74700  0.85000  Biso   1.000  H
  H103     1.0000 0.96400  0.75300  0.15000  Biso   1.000  H
  H104     1.0000 0.03600  0.24700  0.15000  Biso   1.000  H
  C141     1.0000 0.55340  0.20490  0.98410  Biso   1.000  C
  C142     1.0000 0.44660  0.79510  0.98410  Biso   1.000  C
  C143     1.0000 0.94660  0.70490  0.01590  Biso   1.000  C
  C144     1.0000 0.05340  0.29510  0.01590  Biso   1.000  C
  H105     1.0000 0.59240  0.22370  0.03090  Biso   1.000  H
  H106     1.0000 0.40760  0.77630  0.03090  Biso   1.000  H
  H107     1.0000 0.90760  0.72370  0.96910  Biso   1.000  H
  H108     1.0000 0.09240  0.27630  0.96910  Biso   1.000  H
  C145     1.0000 0.52800  0.15950  0.01910  Biso   1.000  C
  C146     1.0000 0.47200  0.84050  0.01910  Biso   1.000  C
  C147     1.0000 0.97200  0.65950  0.98090  Biso   1.000  C
  C148     1.0000 0.02800  0.34050  0.98090  Biso   1.000  C
  H109     1.0000 0.54990  0.14690  0.09100  Biso   1.000  H
  H110     1.0000 0.45010  0.85310  0.09100  Biso   1.000  H
  H111     1.0000 0.95010  0.64690  0.90900  Biso   1.000  H
  H112     1.0000 0.04990  0.35310  0.90900  Biso   1.000  H
  C149     1.0000 0.47160  0.13250  0.95130  Biso   1.000  C
  C150     1.0000 0.52840  0.86750  0.95130  Biso   1.000  C
  C151     1.0000 0.02840  0.63250  0.04870  Biso   1.000  C
  C152     1.0000 0.97160  0.36750  0.04870  Biso   1.000  C
  C153     1.0000 0.44550  0.08240  0.98810  Biso   1.000  C
  C154     1.0000 0.55450  0.91760  0.98810  Biso   1.000  C
  C155     1.0000 0.05450  0.58240  0.01190  Biso   1.000  C
  C156     1.0000 0.94550  0.41760  0.01190  Biso   1.000  C
  C157     1.0000 0.36290  0.01350  0.93930  Biso   1.000  C
  C158     1.0000 0.63710  0.98650  0.93930  Biso   1.000  C
  C159     1.0000 0.13710  0.51350  0.06070  Biso   1.000  C
  C160     1.0000 0.86290  0.48650  0.06070  Biso   1.000  C
  C161     1.0000 0.33750  0.99910  0.05270  Biso   1.000  C
  C162     1.0000 0.66250  0.00090  0.05270  Biso   1.000  C
  C163     1.0000 0.16250  0.49910  0.94730  Biso   1.000  C
  C164     1.0000 0.83750  0.50090  0.94730  Biso   1.000  C
  H113     1.0000 0.34220  0.02120  0.11600  Biso   1.000  H
  H114     1.0000 0.65780  0.97880  0.11600  Biso   1.000  H
  H115     1.0000 0.15780  0.52120  0.88400  Biso   1.000  H
  H116     1.0000 0.84220  0.47880  0.88400  Biso   1.000  H
  C165     1.0000 0.30620  0.95420  0.07350  Biso   1.000  C
  C166     1.0000 0.69380  0.04580  0.07350  Biso   1.000  C
  C167     1.0000 0.19380  0.45420  0.92650  Biso   1.000  C
  C168     1.0000 0.80620  0.54580  0.92650  Biso   1.000  C
  H117     1.0000 0.29050  0.94480  0.15110  Biso   1.000  H
  H118     1.0000 0.70950  0.05520  0.15110  Biso   1.000  H
  H119     1.0000 0.20950  0.44480  0.84890  Biso   1.000  H
  H120     1.0000 0.79050  0.55520  0.84890  Biso   1.000  H
  C169     1.0000 0.29720  0.92200  0.98070  Biso   1.000  C
  C170     1.0000 0.70280  0.07800  0.98070  Biso   1.000  C
  C171     1.0000 0.20280  0.42200  0.01930  Biso   1.000  C
  C172     1.0000 0.79720  0.57800  0.01930  Biso   1.000  C
  H121     1.0000 0.27780  0.89000  0.99280  Biso   1.000  H
  H122     1.0000 0.72220  0.11000  0.99280  Biso   1.000  H
  H123     1.0000 0.22220  0.39000  0.00720  Biso   1.000  H
  H124     1.0000 0.77780  0.61000  0.00720  Biso   1.000  H
  C173     1.0000 0.31790  0.93920  0.87010  Biso   1.000  C
  C174     1.0000 0.68210  0.06080  0.87010  Biso   1.000  C
  C175     1.0000 0.18210  0.43920  0.12990  Biso   1.000  C
  C176     1.0000 0.81790  0.56080  0.12990  Biso   1.000  C
  H125     1.0000 0.30850  0.91830  0.80520  Biso   1.000  H
  H126     1.0000 0.69150  0.08170  0.80520  Biso   1.000  H
  H127     1.0000 0.19150  0.41830  0.19480  Biso   1.000  H
  H128     1.0000 0.80850  0.58170  0.19480  Biso   1.000  H
  P1       1.0000 0.75576  0.20404  0.23570  Biso   1.000  P
  P2       1.0000 0.24424  0.79596  0.23570  Biso   1.000  P
  P3       1.0000 0.74424  0.70404  0.76430  Biso   1.000  P
  P4       1.0000 0.25576  0.29596  0.76430  Biso   1.000  P
  F1       1.0000 0.76180  0.20580  0.09500  Biso   1.000  F
  F2       1.0000 0.23820  0.79420  0.09500  Biso   1.000  F
  F3       1.0000 0.73820  0.70580  0.90500  Biso   1.000  F
  F4       1.0000 0.26180  0.29420  0.90500  Biso   1.000  F
  F5       1.0000 0.74920  0.20270  0.37520  Biso   1.000  F
  F6       1.0000 0.25080  0.79730  0.37520  Biso   1.000  F
  F7       1.0000 0.75080  0.70270  0.62480  Biso   1.000  F
  F8       1.0000 0.24920  0.29730  0.62480  Biso   1.000  F
  F9       1.0000 0.86020  0.19550  0.24250  Biso   1.000  F
  F10      1.0000 0.13980  0.80450  0.24250  Biso   1.000  F
  F11      1.0000 0.63980  0.69550  0.75750  Biso   1.000  F
  F12      1.0000 0.36020  0.30450  0.75750  Biso   1.000  F
  F13      1.0000 0.65100  0.21370  0.22900  Biso   1.000  F
  F14      1.0000 0.34900  0.78630  0.22900  Biso   1.000  F
  F15      1.0000 0.84900  0.71370  0.77100  Biso   1.000  F
  F16      1.0000 0.15100  0.28630  0.77100  Biso   1.000  F
  F17      1.0000 0.77160  0.26040  0.24170  Biso   1.000  F
  F18      1.0000 0.22840  0.73960  0.24170  Biso   1.000  F
  F19      1.0000 0.72840  0.76040  0.75830  Biso   1.000  F
  F20      1.0000 0.27160  0.23960  0.75830  Biso   1.000  F
  F21      1.0000 0.73820  0.14830  0.23050  Biso   1.000  F
  F22      1.0000 0.26180  0.85170  0.23050  Biso   1.000  F
  F23      1.0000 0.76180  0.64830  0.76950  Biso   1.000  F
  F24      1.0000 0.23820  0.35170  0.76950  Biso   1.000  F
  O17      1.0000 0.29030  0.73410  0.76100  Biso   1.000  O
  O18      1.0000 0.70970  0.26590  0.76100  Biso   1.000  O
  O19      1.0000 0.20970  0.23410  0.23900  Biso   1.000  O
  O20      1.0000 0.79030  0.76590  0.23900  Biso   1.000  O
  C177     1.0000 0.22660  0.75770  0.77920  Biso   1.000  C
  C178     1.0000 0.77340  0.24230  0.77920  Biso   1.000  C
  C179     1.0000 0.27340  0.25770  0.22080  Biso   1.000  C
  C180     1.0000 0.72660  0.74230  0.22080  Biso   1.000  C
  C181     1.0000 0.14400  0.74050  0.83630  Biso   1.000  C
  C182     1.0000 0.85600  0.25950  0.83630  Biso   1.000  C
  C183     1.0000 0.35600  0.24050  0.16370  Biso   1.000  C
  C184     1.0000 0.64400  0.75950  0.16370  Biso   1.000  C
  H129     1.0000 0.15180  0.70700  0.86040  Biso   1.000  H
  H130     1.0000 0.84820  0.29300  0.86040  Biso   1.000  H
  H131     1.0000 0.34820  0.20700  0.13960  Biso   1.000  H
  H132     1.0000 0.65180  0.79300  0.13960  Biso   1.000  H
  H133     1.0000 0.09440  0.74270  0.78070  Biso   1.000  H
  H134     1.0000 0.90560  0.25730  0.78070  Biso   1.000  H
  H135     1.0000 0.40560  0.24270  0.21930  Biso   1.000  H
  H136     1.0000 0.59440  0.75730  0.21930  Biso   1.000  H
  H137     1.0000 0.13130  0.76020  0.90550  Biso   1.000  H
  H138     1.0000 0.86870  0.23980  0.90550  Biso   1.000  H
  H139     1.0000 0.36870  0.26020  0.09450  Biso   1.000  H
  H140     1.0000 0.63130  0.73980  0.09450  Biso   1.000  H
  C185     1.0000 0.23210  0.80910  0.74390  Biso   1.000  C
  C186     1.0000 0.76790  0.19090  0.74390  Biso   1.000  C
  C187     1.0000 0.26790  0.30910  0.25610  Biso   1.000  C
  C188     1.0000 0.73210  0.69090  0.25610  Biso   1.000  C
  H141     1.0000 0.24800  0.82860  0.81250  Biso   1.000  H
  H142     1.0000 0.75200  0.17140  0.81250  Biso   1.000  H
  H143     1.0000 0.25200  0.32860  0.18750  Biso   1.000  H
  H144     1.0000 0.74800  0.67140  0.18750  Biso   1.000  H
  H145     1.0000 0.17440  0.81960  0.71320  Biso   1.000  H
  H146     1.0000 0.82560  0.18040  0.71320  Biso   1.000  H
  H147     1.0000 0.32560  0.31960  0.28680  Biso   1.000  H
  H148     1.0000 0.67440  0.68040  0.28680  Biso   1.000  H
  H149     1.0000 0.27760  0.81290  0.68300  Biso   1.000  H
  H150     1.0000 0.72240  0.18710  0.68300  Biso   1.000  H
  H151     1.0000 0.22240  0.31290  0.31700  Biso   1.000  H
  H152     1.0000 0.77760  0.68710  0.31700  Biso   1.000  H
