data_image0
_cell_length_a       7.933
_cell_length_b       15.061
_cell_length_c       10.383
_cell_angle_alpha    90
_cell_angle_beta     112.43
_cell_angle_gamma    90

_symmetry_space_group_name_H-M    "P 1"
_symmetry_int_tables_number       1

loop_
  _symmetry_equiv_pos_as_xyz
  'x, y, z'

loop_
  _atom_site_label
  _atom_site_occupancy
  _atom_site_fract_x
  _atom_site_fract_y
  _atom_site_fract_z
  _atom_site_thermal_displace_type
  _atom_site_B_iso_or_equiv
  _atom_site_type_symbol
  Cu1      1.0000 0.47956  0.46325  0.36262  Biso   1.000  Cu
  Cu2      1.0000 0.97956  0.03675  0.86262  Biso   1.000  Cu
  Cu3      1.0000 0.52044  0.53675  0.63738  Biso   1.000  Cu
  Cu4      1.0000 0.02044  0.96325  0.13738  Biso   1.000  Cu
  Cl1      1.0000 0.27886  0.44607  0.48155  Biso   1.000  Cl
  Cl2      1.0000 0.77886  0.05393  0.98155  Biso   1.000  Cl
  Cl3      1.0000 0.72114  0.55393  0.51845  Biso   1.000  Cl
  Cl4      1.0000 0.22114  0.94607  0.01845  Biso   1.000  Cl
  S1       1.0000 0.28538  0.65206  0.31993  Biso   1.000  S
  S2       1.0000 0.78538  0.84794  0.81993  Biso   1.000  S
  S3       1.0000 0.71462  0.34794  0.68007  Biso   1.000  S
  S4       1.0000 0.21462  0.15206  0.18007  Biso   1.000  S
  S5       1.0000 0.19920  0.77912  0.26471  Biso   1.000  S
  S6       1.0000 0.69920  0.72088  0.76471  Biso   1.000  S
  S7       1.0000 0.80080  0.22088  0.73529  Biso   1.000  S
  S8       1.0000 0.30080  0.27912  0.23529  Biso   1.000  S
  N1       1.0000 0.34090  0.52350  0.17230  Biso   1.000  N
  N2       1.0000 0.84090  0.97650  0.67230  Biso   1.000  N
  N3       1.0000 0.65910  0.47650  0.82770  Biso   1.000  N
  N4       1.0000 0.15910  0.02350  0.32770  Biso   1.000  N
  N5       1.0000 0.87800  0.85220  0.16040  Biso   1.000  N
  N6       1.0000 0.37800  0.64780  0.66040  Biso   1.000  N
  N7       1.0000 0.12200  0.14780  0.83960  Biso   1.000  N
  N8       1.0000 0.62200  0.35220  0.33960  Biso   1.000  N
  C1       1.0000 0.24750  0.60000  0.15780  Biso   1.000  C
  C2       1.0000 0.74750  0.90000  0.65780  Biso   1.000  C
  C3       1.0000 0.75250  0.40000  0.84220  Biso   1.000  C
  C4       1.0000 0.25250  0.10000  0.34220  Biso   1.000  C
  C5       1.0000 0.13120  0.63160  0.02930  Biso   1.000  C
  C6       1.0000 0.63120  0.86840  0.52930  Biso   1.000  C
  C7       1.0000 0.86880  0.36840  0.97070  Biso   1.000  C
  C8       1.0000 0.36880  0.13160  0.47070  Biso   1.000  C
  C9       1.0000 0.11220  0.58370  0.91150  Biso   1.000  C
  C10      1.0000 0.61220  0.91630  0.41150  Biso   1.000  C
  C11      1.0000 0.88780  0.41630  0.08850  Biso   1.000  C
  C12      1.0000 0.38780  0.08370  0.58850  Biso   1.000  C
  C13      1.0000 0.21170  0.50780  0.92370  Biso   1.000  C
  C14      1.0000 0.71170  0.99220  0.42370  Biso   1.000  C
  C15      1.0000 0.78830  0.49220  0.07630  Biso   1.000  C
  C16      1.0000 0.28830  0.00780  0.57630  Biso   1.000  C
  C17      1.0000 0.32240  0.47950  0.05450  Biso   1.000  C
  C18      1.0000 0.82240  0.02050  0.55450  Biso   1.000  C
  C19      1.0000 0.67760  0.52050  0.94550  Biso   1.000  C
  C20      1.0000 0.17760  0.97950  0.44550  Biso   1.000  C
  C21      1.0000 0.95950  0.77670  0.22220  Biso   1.000  C
  C22      1.0000 0.45950  0.72330  0.72220  Biso   1.000  C
  C23      1.0000 0.04050  0.22330  0.77780  Biso   1.000  C
  C24      1.0000 0.54050  0.27670  0.27780  Biso   1.000  C
  C25      1.0000 0.86680  0.70630  0.24930  Biso   1.000  C
  C26      1.0000 0.36680  0.79370  0.74930  Biso   1.000  C
  C27      1.0000 0.13320  0.29370  0.75070  Biso   1.000  C
  C28      1.0000 0.63320  0.20630  0.25070  Biso   1.000  C
  C29      1.0000 0.67950  0.71100  0.20270  Biso   1.000  C
  C30      1.0000 0.17950  0.78900  0.70270  Biso   1.000  C
  C31      1.0000 0.32050  0.28900  0.79730  Biso   1.000  C
  C32      1.0000 0.82050  0.21100  0.29730  Biso   1.000  C
  C33      1.0000 0.59140  0.78590  0.13260  Biso   1.000  C
  C34      1.0000 0.09140  0.71410  0.63260  Biso   1.000  C
  C35      1.0000 0.40860  0.21410  0.86740  Biso   1.000  C
  C36      1.0000 0.90860  0.28590  0.36740  Biso   1.000  C
  C37      1.0000 0.69490  0.85540  0.11600  Biso   1.000  C
  C38      1.0000 0.19490  0.64460  0.61600  Biso   1.000  C
  C39      1.0000 0.30510  0.14460  0.88400  Biso   1.000  C
  C40      1.0000 0.80510  0.35540  0.38400  Biso   1.000  C
  H1       1.0000 0.06500  0.68100  0.02300  Biso   1.000  H
  H2       1.0000 0.56500  0.81900  0.52300  Biso   1.000  H
  H3       1.0000 0.93500  0.31900  0.97700  Biso   1.000  H
  H4       1.0000 0.43500  0.18100  0.47700  Biso   1.000  H
  H5       1.0000 0.03400  0.60200  0.82500  Biso   1.000  H
  H6       1.0000 0.53400  0.89800  0.32500  Biso   1.000  H
  H7       1.0000 0.96600  0.39800  0.17500  Biso   1.000  H
  H8       1.0000 0.46600  0.10200  0.67500  Biso   1.000  H
  H9       1.0000 0.20500  0.47900  0.84600  Biso   1.000  H
  H10      1.0000 0.70500  0.02100  0.34600  Biso   1.000  H
  H11      1.0000 0.79500  0.52100  0.15400  Biso   1.000  H
  H12      1.0000 0.29500  0.97900  0.65400  Biso   1.000  H
  H13      1.0000 0.39300  0.42400  0.06800  Biso   1.000  H
  H14      1.0000 0.89300  0.07600  0.56800  Biso   1.000  H
  H15      1.0000 0.60700  0.57600  0.93200  Biso   1.000  H
  H16      1.0000 0.10700  0.92400  0.43200  Biso   1.000  H
  H17      1.0000 0.93200  0.65600  0.29800  Biso   1.000  H
  H18      1.0000 0.43200  0.84400  0.79800  Biso   1.000  H
  H19      1.0000 0.06800  0.34400  0.70200  Biso   1.000  H
  H20      1.0000 0.56800  0.15600  0.20200  Biso   1.000  H
  H21      1.0000 0.61600  0.66600  0.22100  Biso   1.000  H
  H22      1.0000 0.11600  0.83400  0.72100  Biso   1.000  H
  H23      1.0000 0.38400  0.33400  0.77900  Biso   1.000  H
  H24      1.0000 0.88400  0.16600  0.27900  Biso   1.000  H
  H25      1.0000 0.47200  0.79500  0.10400  Biso   1.000  H
  H26      1.0000 0.97200  0.70500  0.60400  Biso   1.000  H
  H27      1.0000 0.52800  0.20500  0.89600  Biso   1.000  H
  H28      1.0000 0.02800  0.29500  0.39600  Biso   1.000  H
  H29      1.0000 0.64100  0.90700  0.07300  Biso   1.000  H
  H30      1.0000 0.14100  0.59300  0.57300  Biso   1.000  H
  H31      1.0000 0.35900  0.09300  0.92700  Biso   1.000  H
  H32      1.0000 0.85900  0.40700  0.42700  Biso   1.000  H
