data_image0
_cell_length_a       7.655
_cell_length_b       8.821
_cell_length_c       9.4081
_cell_angle_alpha    72.237
_cell_angle_beta     72.262
_cell_angle_gamma    67.494

_symmetry_space_group_name_H-M    "P 1"
_symmetry_int_tables_number       1

loop_
  _symmetry_equiv_pos_as_xyz
  'x, y, z'

loop_
  _atom_site_label
  _atom_site_occupancy
  _atom_site_fract_x
  _atom_site_fract_y
  _atom_site_fract_z
  _atom_site_thermal_displace_type
  _atom_site_B_iso_or_equiv
  _atom_site_type_symbol
  Br1      1.0000 0.72356  0.09603  0.54504  Biso   1.000  Br
  Br2      1.0000 0.27644  0.90397  0.45496  Biso   1.000  Br
  Cu1      1.0000 0.99401  0.01584  0.67158  Biso   1.000  Cu
  Cu2      1.0000 0.00599  0.98416  0.32842  Biso   1.000  Cu
  S1       1.0000 0.98460  0.83529  0.90170  Biso   1.000  S
  S2       1.0000 0.01540  0.16471  0.09830  Biso   1.000  S
  N1       1.0000 0.95500  0.76720  0.31760  Biso   1.000  N
  N2       1.0000 0.04500  0.23280  0.68240  Biso   1.000  N
  N3       1.0000 0.21130  0.72530  0.10290  Biso   1.000  N
  N4       1.0000 0.78870  0.27470  0.89710  Biso   1.000  N
  C1       1.0000 0.05510  0.67300  0.21460  Biso   1.000  C
  C2       1.0000 0.94490  0.32700  0.78540  Biso   1.000  C
  C3       1.0000 0.02470  0.53030  0.21050  Biso   1.000  C
  C4       1.0000 0.97530  0.46970  0.78950  Biso   1.000  C
  C5       1.0000 0.87630  0.48300  0.32010  Biso   1.000  C
  C6       1.0000 0.12370  0.51700  0.67990  Biso   1.000  C
  C7       1.0000 0.76570  0.58080  0.42390  Biso   1.000  C
  C8       1.0000 0.23430  0.41920  0.57610  Biso   1.000  C
  C9       1.0000 0.80860  0.71970  0.42110  Biso   1.000  C
  C10      1.0000 0.19140  0.28030  0.57890  Biso   1.000  C
  C11      1.0000 0.19300  0.79920  0.95450  Biso   1.000  C
  C12      1.0000 0.80700  0.20080  0.04550  Biso   1.000  C
  C13      1.0000 0.35440  0.84500  0.85530  Biso   1.000  C
  C14      1.0000 0.64560  0.15500  0.14470  Biso   1.000  C
  C15      1.0000 0.51240  0.82280  0.90560  Biso   1.000  C
  C16      1.0000 0.48760  0.17720  0.09440  Biso   1.000  C
  C17      1.0000 0.52090  0.75070  0.05880  Biso   1.000  C
  C18      1.0000 0.47910  0.24930  0.94120  Biso   1.000  C
  C19      1.0000 0.36930  0.70410  0.15430  Biso   1.000  C
  C20      1.0000 0.63070  0.29590  0.84570  Biso   1.000  C
  H1       1.0000 0.10800  0.46900  0.13100  Biso   1.000  H
  H2       1.0000 0.89200  0.53100  0.86900  Biso   1.000  H
  H3       1.0000 0.85600  0.38000  0.32000  Biso   1.000  H
  H4       1.0000 0.14400  0.62000  0.68000  Biso   1.000  H
  H5       1.0000 0.65700  0.55300  0.49700  Biso   1.000  H
  H6       1.0000 0.34300  0.44700  0.50300  Biso   1.000  H
  H7       1.0000 0.73300  0.78500  0.49600  Biso   1.000  H
  H8       1.0000 0.26700  0.21500  0.50400  Biso   1.000  H
  H9       1.0000 0.34300  0.89200  0.76100  Biso   1.000  H
  H10      1.0000 0.65700  0.10800  0.23900  Biso   1.000  H
  H11      1.0000 0.61200  0.85500  0.83400  Biso   1.000  H
  H12      1.0000 0.38800  0.14500  0.16600  Biso   1.000  H
  H13      1.0000 0.62500  0.73000  0.09700  Biso   1.000  H
  H14      1.0000 0.37500  0.27000  0.90300  Biso   1.000  H
  H15      1.0000 0.36700  0.65600  0.25900  Biso   1.000  H
  H16      1.0000 0.63300  0.34400  0.74100  Biso   1.000  H
