data_image0
_cell_length_a       3.805
_cell_length_b       6.915
_cell_length_c       11.851
_cell_angle_alpha    90
_cell_angle_beta     90
_cell_angle_gamma    90

_symmetry_space_group_name_H-M    "P 1"
_symmetry_int_tables_number       1

loop_
  _symmetry_equiv_pos_as_xyz
  'x, y, z'

loop_
  _atom_site_label
  _atom_site_occupancy
  _atom_site_fract_x
  _atom_site_fract_y
  _atom_site_fract_z
  _atom_site_thermal_displace_type
  _atom_site_B_iso_or_equiv
  _atom_site_type_symbol
  Br1      1.0000 0.00000  0.90110  0.00000  Biso   1.000  Br
  Br2      1.0000 0.00000  0.90110  0.50000  Biso   1.000  Br
  Cu1      1.0000 0.50000  0.65600  0.00000  Biso   1.000  Cu
  Cu2      1.0000 0.50000  0.65600  0.50000  Biso   1.000  Cu
  C1       1.0000 0.51020  0.59900  0.75000  Biso   1.000  C
  C2       1.0000 0.48980  0.59900  0.25000  Biso   1.000  C
  N1       1.0000 0.44910  0.51350  0.85140  Biso   1.000  N
  N2       1.0000 0.44910  0.51350  0.64860  Biso   1.000  N
  N3       1.0000 0.55090  0.51350  0.35140  Biso   1.000  N
  N4       1.0000 0.55090  0.51350  0.14860  Biso   1.000  N
  C3       1.0000 0.32090  0.33390  0.84760  Biso   1.000  C
  C4       1.0000 0.32090  0.33390  0.65240  Biso   1.000  C
  C5       1.0000 0.67910  0.33390  0.34760  Biso   1.000  C
  C6       1.0000 0.67910  0.33390  0.15240  Biso   1.000  C
  C7       1.0000 0.24910  0.23810  0.75000  Biso   1.000  C
  C8       1.0000 0.75090  0.23810  0.25000  Biso   1.000  C
  N5       1.0000 0.64150  0.77400  0.75000  Biso   1.000  N
  N6       1.0000 0.35850  0.77400  0.25000  Biso   1.000  N
