data_image0
_cell_length_a       14.518
_cell_length_b       14.014
_cell_length_c       3.949
_cell_angle_alpha    90
_cell_angle_beta     90
_cell_angle_gamma    90

_symmetry_space_group_name_H-M    "P 1"
_symmetry_int_tables_number       1

loop_
  _symmetry_equiv_pos_as_xyz
  'x, y, z'

loop_
  _atom_site_label
  _atom_site_occupancy
  _atom_site_fract_x
  _atom_site_fract_y
  _atom_site_fract_z
  _atom_site_thermal_displace_type
  _atom_site_B_iso_or_equiv
  _atom_site_type_symbol
  Br1      1.0000 0.36140  0.05350  0.59980  Biso   1.000  Br
  Br2      1.0000 0.13860  0.94650  0.09980  Biso   1.000  Br
  Br3      1.0000 0.86140  0.44650  0.90020  Biso   1.000  Br
  Br4      1.0000 0.63860  0.55350  0.40020  Biso   1.000  Br
  Br5      1.0000 0.63860  0.94650  0.40020  Biso   1.000  Br
  Br6      1.0000 0.86140  0.05350  0.90020  Biso   1.000  Br
  Br7      1.0000 0.13860  0.55350  0.09980  Biso   1.000  Br
  Br8      1.0000 0.36140  0.44650  0.59980  Biso   1.000  Br
  Cu1      1.0000 0.19290  0.03730  0.61960  Biso   1.000  Cu
  Cu2      1.0000 0.30710  0.96270  0.11960  Biso   1.000  Cu
  Cu3      1.0000 0.69290  0.46270  0.88040  Biso   1.000  Cu
  Cu4      1.0000 0.80710  0.53730  0.38040  Biso   1.000  Cu
  Cu5      1.0000 0.80710  0.96270  0.38040  Biso   1.000  Cu
  Cu6      1.0000 0.69290  0.03730  0.88040  Biso   1.000  Cu
  Cu7      1.0000 0.30710  0.53730  0.11960  Biso   1.000  Cu
  Cu8      1.0000 0.19290  0.46270  0.61960  Biso   1.000  Cu
  N1       1.0000 0.37300  0.83590  0.09490  Biso   1.000  N
  N2       1.0000 0.12700  0.16410  0.59490  Biso   1.000  N
  N3       1.0000 0.87300  0.66410  0.40510  Biso   1.000  N
  N4       1.0000 0.62700  0.33590  0.90510  Biso   1.000  N
  N5       1.0000 0.62700  0.16410  0.90510  Biso   1.000  N
  N6       1.0000 0.87300  0.83590  0.40510  Biso   1.000  N
  N7       1.0000 0.12700  0.33590  0.59490  Biso   1.000  N
  N8       1.0000 0.37300  0.66410  0.09490  Biso   1.000  N
  N9       1.0000 0.26510  0.75000  0.35910  Biso   1.000  N
  N10      1.0000 0.23490  0.25000  0.85910  Biso   1.000  N
  N11      1.0000 0.76510  0.75000  0.14090  Biso   1.000  N
  N12      1.0000 0.73490  0.25000  0.64090  Biso   1.000  N
  C1       1.0000 0.33230  0.75000  0.17890  Biso   1.000  C
  C2       1.0000 0.16770  0.25000  0.67890  Biso   1.000  C
  C3       1.0000 0.83230  0.75000  0.32110  Biso   1.000  C
  C4       1.0000 0.66770  0.25000  0.82110  Biso   1.000  C
  C5       1.0000 0.50100  0.75000  0.82460  Biso   1.000  C
  C6       1.0000 0.99900  0.25000  0.32460  Biso   1.000  C
  C7       1.0000 0.00100  0.75000  0.67540  Biso   1.000  C
  C8       1.0000 0.49900  0.25000  0.17540  Biso   1.000  C
  C9       1.0000 0.45540  0.66590  0.91110  Biso   1.000  C
  C10      1.0000 0.04460  0.33410  0.41110  Biso   1.000  C
  C11      1.0000 0.95540  0.83410  0.58890  Biso   1.000  C
  C12      1.0000 0.54460  0.16590  0.08890  Biso   1.000  C
  C13      1.0000 0.54460  0.33410  0.08890  Biso   1.000  C
  C14      1.0000 0.95540  0.66590  0.58890  Biso   1.000  C
  C15      1.0000 0.04460  0.16590  0.41110  Biso   1.000  C
  C16      1.0000 0.45540  0.83410  0.91110  Biso   1.000  C
