data_image0
_cell_length_a       3.983
_cell_length_b       13.229
_cell_length_c       14.468
_cell_angle_alpha    90
_cell_angle_beta     91.37
_cell_angle_gamma    90

_symmetry_space_group_name_H-M    "P 1"
_symmetry_int_tables_number       1

loop_
  _symmetry_equiv_pos_as_xyz
  'x, y, z'

loop_
  _atom_site_label
  _atom_site_occupancy
  _atom_site_fract_x
  _atom_site_fract_y
  _atom_site_fract_z
  _atom_site_thermal_displace_type
  _atom_site_B_iso_or_equiv
  _atom_site_type_symbol
  Br1      1.0000 0.89340  0.07890  0.64630  Biso   1.000  Br
  Br2      1.0000 0.60660  0.57890  0.85370  Biso   1.000  Br
  Br3      1.0000 0.10660  0.92110  0.35370  Biso   1.000  Br
  Br4      1.0000 0.39340  0.42110  0.14630  Biso   1.000  Br
  Br5      1.0000 0.50620  0.94980  0.85940  Biso   1.000  Br
  Br6      1.0000 0.99380  0.44980  0.64060  Biso   1.000  Br
  Br7      1.0000 0.49380  0.05020  0.14060  Biso   1.000  Br
  Br8      1.0000 0.00620  0.55020  0.35940  Biso   1.000  Br
  Cu1      1.0000 0.38530  0.98190  0.69700  Biso   1.000  Cu
  Cu2      1.0000 0.11470  0.48190  0.80300  Biso   1.000  Cu
  Cu3      1.0000 0.61470  0.01810  0.30300  Biso   1.000  Cu
  Cu4      1.0000 0.88530  0.51810  0.19700  Biso   1.000  Cu
  N1       1.0000 0.39160  0.84510  0.62690  Biso   1.000  N
  N2       1.0000 0.10840  0.34510  0.87310  Biso   1.000  N
  N3       1.0000 0.60840  0.15490  0.37310  Biso   1.000  N
  N4       1.0000 0.89160  0.65490  0.12690  Biso   1.000  N
  C1       1.0000 0.27390  0.75890  0.66110  Biso   1.000  C
  C2       1.0000 0.22610  0.25890  0.83890  Biso   1.000  C
  C3       1.0000 0.72610  0.24110  0.33890  Biso   1.000  C
  C4       1.0000 0.77390  0.74110  0.16110  Biso   1.000  C
  N5       1.0000 0.33450  0.66960  0.62150  Biso   1.000  N
  N6       1.0000 0.16550  0.16960  0.87850  Biso   1.000  N
  N7       1.0000 0.66550  0.33040  0.37850  Biso   1.000  N
  N8       1.0000 0.83450  0.83040  0.12150  Biso   1.000  N
  C5       1.0000 0.51600  0.66440  0.54150  Biso   1.000  C
  C6       1.0000 0.98400  0.16440  0.95850  Biso   1.000  C
  C7       1.0000 0.48400  0.33560  0.45850  Biso   1.000  C
  C8       1.0000 0.01600  0.83560  0.04150  Biso   1.000  C
  C9       1.0000 0.63080  0.74960  0.50350  Biso   1.000  C
  C10      1.0000 0.86920  0.24960  0.99650  Biso   1.000  C
  C11      1.0000 0.36920  0.25040  0.49650  Biso   1.000  C
  C12      1.0000 0.13080  0.75040  0.00350  Biso   1.000  C
  C13      1.0000 0.57090  0.84060  0.54900  Biso   1.000  C
  C14      1.0000 0.92910  0.34060  0.95100  Biso   1.000  C
  C15      1.0000 0.42910  0.15940  0.45100  Biso   1.000  C
  C16      1.0000 0.07090  0.65940  0.04900  Biso   1.000  C
  N9       1.0000 0.08850  0.76210  0.73510  Biso   1.000  N
  N10      1.0000 0.41150  0.26210  0.76490  Biso   1.000  N
  N11      1.0000 0.91150  0.23790  0.26490  Biso   1.000  N
  N12      1.0000 0.58850  0.73790  0.23510  Biso   1.000  N
