data_image0
_cell_length_a       7.659
_cell_length_b       15.722
_cell_length_c       8.21
_cell_angle_alpha    90
_cell_angle_beta     111.51
_cell_angle_gamma    90

_symmetry_space_group_name_H-M    "P 1"
_symmetry_int_tables_number       1

loop_
  _symmetry_equiv_pos_as_xyz
  'x, y, z'

loop_
  _atom_site_label
  _atom_site_occupancy
  _atom_site_fract_x
  _atom_site_fract_y
  _atom_site_fract_z
  _atom_site_thermal_displace_type
  _atom_site_B_iso_or_equiv
  _atom_site_type_symbol
  I1       1.0000 0.44722  0.61516  0.63109  Biso   1.000  I
  I2       1.0000 0.44722  0.88484  0.13109  Biso   1.000  I
  I3       1.0000 0.55278  0.38484  0.36891  Biso   1.000  I
  I4       1.0000 0.55278  0.11516  0.86891  Biso   1.000  I
  Cu1      1.0000 0.33195  0.46243  0.51545  Biso   1.000  Cu
  Cu2      1.0000 0.33195  0.03757  0.01545  Biso   1.000  Cu
  Cu3      1.0000 0.66805  0.53757  0.48455  Biso   1.000  Cu
  Cu4      1.0000 0.66805  0.96243  0.98455  Biso   1.000  Cu
  N1       1.0000 0.07470  0.46260  0.32330  Biso   1.000  N
  N2       1.0000 0.07470  0.03740  0.82330  Biso   1.000  N
  N3       1.0000 0.92530  0.53740  0.67670  Biso   1.000  N
  N4       1.0000 0.92530  0.96260  0.17670  Biso   1.000  N
  C1       1.0000 0.94350  0.46030  0.20080  Biso   1.000  C
  C2       1.0000 0.94350  0.03970  0.70080  Biso   1.000  C
  C3       1.0000 0.05650  0.53970  0.79920  Biso   1.000  C
  C4       1.0000 0.05650  0.96030  0.29920  Biso   1.000  C
  C5       1.0000 0.78080  0.45720  0.03520  Biso   1.000  C
  C6       1.0000 0.78080  0.04280  0.53520  Biso   1.000  C
  C7       1.0000 0.21920  0.54280  0.96480  Biso   1.000  C
  C8       1.0000 0.21920  0.95720  0.46480  Biso   1.000  C
  H1       1.0000 0.78570  0.50500  0.96230  Biso   1.000  H
  H2       1.0000 0.78570  0.99500  0.46230  Biso   1.000  H
  H3       1.0000 0.21430  0.49500  0.03770  Biso   1.000  H
  H4       1.0000 0.21430  0.00500  0.53770  Biso   1.000  H
  H5       1.0000 0.66620  0.46170  0.05910  Biso   1.000  H
  H6       1.0000 0.66620  0.03830  0.55910  Biso   1.000  H
  H7       1.0000 0.33380  0.53830  0.94090  Biso   1.000  H
  H8       1.0000 0.33380  0.96170  0.44090  Biso   1.000  H
  C9       1.0000 0.77890  0.37420  0.93780  Biso   1.000  C
  C10      1.0000 0.77890  0.12580  0.43780  Biso   1.000  C
  C11      1.0000 0.22110  0.62580  0.06220  Biso   1.000  C
  C12      1.0000 0.22110  0.87420  0.56220  Biso   1.000  C
  H9       1.0000 0.73930  0.32750  0.99340  Biso   1.000  H
  H10      1.0000 0.73930  0.17250  0.49340  Biso   1.000  H
  H11      1.0000 0.26070  0.67250  0.00660  Biso   1.000  H
  H12      1.0000 0.26070  0.82750  0.50660  Biso   1.000  H
  H13      1.0000 0.69190  0.37850  0.81750  Biso   1.000  H
  H14      1.0000 0.69190  0.12150  0.31750  Biso   1.000  H
  H15      1.0000 0.30810  0.62150  0.18250  Biso   1.000  H
  H16      1.0000 0.30810  0.87850  0.68250  Biso   1.000  H
  O1       1.0000 0.96230  0.35930  0.94210  Biso   1.000  O
  O2       1.0000 0.96230  0.14070  0.44210  Biso   1.000  O
  O3       1.0000 0.03770  0.64070  0.05790  Biso   1.000  O
  O4       1.0000 0.03770  0.85930  0.55790  Biso   1.000  O
  C13      1.0000 0.97360  0.28600  0.84800  Biso   1.000  C
  C14      1.0000 0.97360  0.21400  0.34800  Biso   1.000  C
  C15      1.0000 0.02640  0.71400  0.15200  Biso   1.000  C
  C16      1.0000 0.02640  0.78600  0.65200  Biso   1.000  C
  H17      1.0000 0.89640  0.29280  0.72520  Biso   1.000  H
  H18      1.0000 0.89640  0.20720  0.22520  Biso   1.000  H
  H19      1.0000 0.10360  0.70720  0.27480  Biso   1.000  H
  H20      1.0000 0.10360  0.79280  0.77480  Biso   1.000  H
  H21      1.0000 0.92880  0.23690  0.89270  Biso   1.000  H
  H22      1.0000 0.92880  0.26310  0.39270  Biso   1.000  H
  H23      1.0000 0.07120  0.76310  0.10730  Biso   1.000  H
  H24      1.0000 0.07120  0.73690  0.60730  Biso   1.000  H
  C17      1.0000 0.17740  0.27330  0.86930  Biso   1.000  C
  C18      1.0000 0.17740  0.22670  0.36930  Biso   1.000  C
  C19      1.0000 0.82260  0.72670  0.13070  Biso   1.000  C
  C20      1.0000 0.82260  0.77330  0.63070  Biso   1.000  C
  H25      1.0000 0.25520  0.27610  0.99270  Biso   1.000  H
  H26      1.0000 0.25520  0.22390  0.49270  Biso   1.000  H
  H27      1.0000 0.74480  0.72390  0.00730  Biso   1.000  H
  H28      1.0000 0.74480  0.77610  0.50730  Biso   1.000  H
  H29      1.0000 0.19190  0.21700  0.82740  Biso   1.000  H
  H30      1.0000 0.19190  0.28300  0.32740  Biso   1.000  H
  H31      1.0000 0.80810  0.78300  0.17260  Biso   1.000  H
  H32      1.0000 0.80810  0.71700  0.67260  Biso   1.000  H
  C21      1.0000 0.24280  0.33670  0.77420  Biso   1.000  C
  C22      1.0000 0.24280  0.16330  0.27420  Biso   1.000  C
  C23      1.0000 0.75720  0.66330  0.22580  Biso   1.000  C
  C24      1.0000 0.75720  0.83670  0.72580  Biso   1.000  C
  N5       1.0000 0.29410  0.38499  0.69870  Biso   1.000  N
  N6       1.0000 0.29410  0.11501  0.19870  Biso   1.000  N
  N7       1.0000 0.70590  0.61501  0.30130  Biso   1.000  N
  N8       1.0000 0.70590  0.88499  0.80130  Biso   1.000  N
