data_image0
_cell_length_a       23.283
_cell_length_b       16.63
_cell_length_c       16.578
_cell_angle_alpha    90
_cell_angle_beta     131.76
_cell_angle_gamma    90

_symmetry_space_group_name_H-M    "P 1"
_symmetry_int_tables_number       1

loop_
  _symmetry_equiv_pos_as_xyz
  'x, y, z'

loop_
  _atom_site_label
  _atom_site_occupancy
  _atom_site_fract_x
  _atom_site_fract_y
  _atom_site_fract_z
  _atom_site_thermal_displace_type
  _atom_site_B_iso_or_equiv
  _atom_site_type_symbol
  I1       1.0000 0.13335  0.78180  0.95891  Biso   1.000  I
  I2       1.0000 0.63335  0.28180  0.95891  Biso   1.000  I
  I3       1.0000 0.13335  0.21820  0.45891  Biso   1.000  I
  I4       1.0000 0.63335  0.71820  0.45891  Biso   1.000  I
  I5       1.0000 0.86665  0.21820  0.04109  Biso   1.000  I
  I6       1.0000 0.36665  0.71820  0.04109  Biso   1.000  I
  I7       1.0000 0.86665  0.78180  0.54109  Biso   1.000  I
  I8       1.0000 0.36665  0.28180  0.54109  Biso   1.000  I
  I9       1.0000 0.24955  0.81006  0.30310  Biso   1.000  I
  I10      1.0000 0.74955  0.31006  0.30310  Biso   1.000  I
  I11      1.0000 0.24955  0.18994  0.80310  Biso   1.000  I
  I12      1.0000 0.74955  0.68994  0.80310  Biso   1.000  I
  I13      1.0000 0.75045  0.18994  0.69690  Biso   1.000  I
  I14      1.0000 0.25045  0.68994  0.69690  Biso   1.000  I
  I15      1.0000 0.75045  0.81006  0.19690  Biso   1.000  I
  I16      1.0000 0.25045  0.31006  0.19690  Biso   1.000  I
  I17      1.0000 0.99225  0.81704  0.04443  Biso   1.000  I
  I18      1.0000 0.49225  0.31704  0.04443  Biso   1.000  I
  I19      1.0000 0.99225  0.18296  0.54443  Biso   1.000  I
  I20      1.0000 0.49225  0.68296  0.54443  Biso   1.000  I
  I21      1.0000 0.00775  0.18296  0.95557  Biso   1.000  I
  I22      1.0000 0.50775  0.68296  0.95557  Biso   1.000  I
  I23      1.0000 0.00775  0.81704  0.45557  Biso   1.000  I
  I24      1.0000 0.50775  0.31704  0.45557  Biso   1.000  I
  I25      1.0000 0.11554  0.58768  0.13520  Biso   1.000  I
  I26      1.0000 0.61554  0.08768  0.13520  Biso   1.000  I
  I27      1.0000 0.11554  0.41232  0.63520  Biso   1.000  I
  I28      1.0000 0.61554  0.91232  0.63520  Biso   1.000  I
  I29      1.0000 0.88446  0.41232  0.86480  Biso   1.000  I
  I30      1.0000 0.38446  0.91232  0.86480  Biso   1.000  I
  I31      1.0000 0.88446  0.58768  0.36480  Biso   1.000  I
  I32      1.0000 0.38446  0.08768  0.36480  Biso   1.000  I
  Cu1      1.0000 0.11787  0.73480  0.20802  Biso   1.000  Cu
  Cu2      1.0000 0.61787  0.23480  0.20802  Biso   1.000  Cu
  Cu3      1.0000 0.11787  0.26520  0.70802  Biso   1.000  Cu
  Cu4      1.0000 0.61787  0.76520  0.70802  Biso   1.000  Cu
  Cu5      1.0000 0.88213  0.26520  0.79198  Biso   1.000  Cu
  Cu6      1.0000 0.38213  0.76520  0.79198  Biso   1.000  Cu
  Cu7      1.0000 0.88213  0.73480  0.29198  Biso   1.000  Cu
  Cu8      1.0000 0.38213  0.23480  0.29198  Biso   1.000  Cu
  Cu9      1.0000 0.12515  0.85134  0.09786  Biso   1.000  Cu
  Cu10     1.0000 0.62515  0.35134  0.09786  Biso   1.000  Cu
  Cu11     1.0000 0.12515  0.14866  0.59786  Biso   1.000  Cu
  Cu12     1.0000 0.62515  0.64866  0.59786  Biso   1.000  Cu
  Cu13     1.0000 0.87485  0.14866  0.90214  Biso   1.000  Cu
  Cu14     1.0000 0.37485  0.64866  0.90214  Biso   1.000  Cu
  Cu15     1.0000 0.87485  0.85134  0.40214  Biso   1.000  Cu
  Cu16     1.0000 0.37485  0.35134  0.40214  Biso   1.000  Cu
  Cu17     1.0000 0.20095  0.70324  0.14517  Biso   1.000  Cu
  Cu18     1.0000 0.70095  0.20324  0.14517  Biso   1.000  Cu
  Cu19     1.0000 0.20095  0.29676  0.64517  Biso   1.000  Cu
  Cu20     1.0000 0.70095  0.79676  0.64517  Biso   1.000  Cu
  Cu21     1.0000 0.79905  0.29676  0.85483  Biso   1.000  Cu
  Cu22     1.0000 0.29905  0.79676  0.85483  Biso   1.000  Cu
  Cu23     1.0000 0.79905  0.70324  0.35483  Biso   1.000  Cu
  Cu24     1.0000 0.29905  0.20324  0.35483  Biso   1.000  Cu
  Cu25     1.0000 0.04774  0.70690  0.98968  Biso   1.000  Cu
  Cu26     1.0000 0.54774  0.20690  0.98968  Biso   1.000  Cu
  Cu27     1.0000 0.04774  0.29310  0.48968  Biso   1.000  Cu
  Cu28     1.0000 0.54774  0.79310  0.48968  Biso   1.000  Cu
  Cu29     1.0000 0.95226  0.29310  0.01032  Biso   1.000  Cu
  Cu30     1.0000 0.45226  0.79310  0.01032  Biso   1.000  Cu
  Cu31     1.0000 0.95226  0.70690  0.51032  Biso   1.000  Cu
  Cu32     1.0000 0.45226  0.20690  0.51032  Biso   1.000  Cu
  N1       1.0000 0.04000  0.34200  0.14660  Biso   1.000  N
  N2       1.0000 0.54000  0.84200  0.14660  Biso   1.000  N
  N3       1.0000 0.04000  0.65800  0.64660  Biso   1.000  N
  N4       1.0000 0.54000  0.15800  0.64660  Biso   1.000  N
  N5       1.0000 0.96000  0.65800  0.85340  Biso   1.000  N
  N6       1.0000 0.46000  0.15800  0.85340  Biso   1.000  N
  N7       1.0000 0.96000  0.34200  0.35340  Biso   1.000  N
  N8       1.0000 0.46000  0.84200  0.35340  Biso   1.000  N
  C1       1.0000 0.09330  0.36630  0.22620  Biso   1.000  C
  C2       1.0000 0.59330  0.86630  0.22620  Biso   1.000  C
  C3       1.0000 0.09330  0.63370  0.72620  Biso   1.000  C
  C4       1.0000 0.59330  0.13370  0.72620  Biso   1.000  C
  C5       1.0000 0.90670  0.63370  0.77380  Biso   1.000  C
  C6       1.0000 0.40670  0.13370  0.77380  Biso   1.000  C
  C7       1.0000 0.90670  0.36630  0.27380  Biso   1.000  C
  C8       1.0000 0.40670  0.86630  0.27380  Biso   1.000  C
  C9       1.0000 0.16490  0.39750  0.32800  Biso   1.000  C
  C10      1.0000 0.66490  0.89750  0.32800  Biso   1.000  C
  C11      1.0000 0.16490  0.60250  0.82800  Biso   1.000  C
  C12      1.0000 0.66490  0.10250  0.82800  Biso   1.000  C
  C13      1.0000 0.83510  0.60250  0.67200  Biso   1.000  C
  C14      1.0000 0.33510  0.10250  0.67200  Biso   1.000  C
  C15      1.0000 0.83510  0.39750  0.17200  Biso   1.000  C
  C16      1.0000 0.33510  0.89750  0.17200  Biso   1.000  C
  H1       1.0000 0.20270  0.35460  0.36370  Biso   1.000  H
  H2       1.0000 0.70270  0.85460  0.36370  Biso   1.000  H
  H3       1.0000 0.20270  0.64540  0.86370  Biso   1.000  H
  H4       1.0000 0.70270  0.14540  0.86370  Biso   1.000  H
  H5       1.0000 0.79730  0.64540  0.63630  Biso   1.000  H
  H6       1.0000 0.29730  0.14540  0.63630  Biso   1.000  H
  H7       1.0000 0.79730  0.35460  0.13630  Biso   1.000  H
  H8       1.0000 0.29730  0.85460  0.13630  Biso   1.000  H
  H9       1.0000 0.18430  0.43970  0.31130  Biso   1.000  H
  H10      1.0000 0.68430  0.93970  0.31130  Biso   1.000  H
  H11      1.0000 0.18430  0.56030  0.81130  Biso   1.000  H
  H12      1.0000 0.68430  0.06030  0.81130  Biso   1.000  H
  H13      1.0000 0.81570  0.56030  0.68870  Biso   1.000  H
  H14      1.0000 0.31570  0.06030  0.68870  Biso   1.000  H
  H15      1.0000 0.81570  0.43970  0.18870  Biso   1.000  H
  H16      1.0000 0.31570  0.93970  0.18870  Biso   1.000  H
  C17      1.0000 0.15810  0.43100  0.40680  Biso   1.000  C
  C18      1.0000 0.65810  0.93100  0.40680  Biso   1.000  C
  C19      1.0000 0.15810  0.56900  0.90680  Biso   1.000  C
  C20      1.0000 0.65810  0.06900  0.90680  Biso   1.000  C
  C21      1.0000 0.84190  0.56900  0.59320  Biso   1.000  C
  C22      1.0000 0.34190  0.06900  0.59320  Biso   1.000  C
  C23      1.0000 0.84190  0.43100  0.09320  Biso   1.000  C
  C24      1.0000 0.34190  0.93100  0.09320  Biso   1.000  C
  H17      1.0000 0.20770  0.44930  0.47270  Biso   1.000  H
  H18      1.0000 0.70770  0.94930  0.47270  Biso   1.000  H
  H19      1.0000 0.20770  0.55070  0.97270  Biso   1.000  H
  H20      1.0000 0.70770  0.05070  0.97270  Biso   1.000  H
  H21      1.0000 0.79230  0.55070  0.52730  Biso   1.000  H
  H22      1.0000 0.29230  0.05070  0.52730  Biso   1.000  H
  H23      1.0000 0.79230  0.44930  0.02730  Biso   1.000  H
  H24      1.0000 0.29230  0.94930  0.02730  Biso   1.000  H
  H25      1.0000 0.13840  0.39040  0.42510  Biso   1.000  H
  H26      1.0000 0.63840  0.89040  0.42510  Biso   1.000  H
  H27      1.0000 0.13840  0.60960  0.92510  Biso   1.000  H
  H28      1.0000 0.63840  0.10960  0.92510  Biso   1.000  H
  H29      1.0000 0.86160  0.60960  0.57490  Biso   1.000  H
  H30      1.0000 0.36160  0.10960  0.57490  Biso   1.000  H
  H31      1.0000 0.86160  0.39040  0.07490  Biso   1.000  H
  H32      1.0000 0.36160  0.89040  0.07490  Biso   1.000  H
  O1       1.0000 0.10580  0.49610  0.35120  Biso   1.000  O
  O2       1.0000 0.60580  0.99610  0.35120  Biso   1.000  O
  O3       1.0000 0.10580  0.50390  0.85120  Biso   1.000  O
  O4       1.0000 0.60580  0.00390  0.85120  Biso   1.000  O
  O5       1.0000 0.89420  0.50390  0.64880  Biso   1.000  O
  O6       1.0000 0.39420  0.00390  0.64880  Biso   1.000  O
  O7       1.0000 0.89420  0.49610  0.14880  Biso   1.000  O
  O8       1.0000 0.39420  0.99610  0.14880  Biso   1.000  O
  C25      1.0000 0.05660  0.52580  0.36600  Biso   1.000  C
  C26      1.0000 0.55660  0.02580  0.36600  Biso   1.000  C
  C27      1.0000 0.05660  0.47420  0.86600  Biso   1.000  C
  C28      1.0000 0.55660  0.97420  0.86600  Biso   1.000  C
  C29      1.0000 0.94340  0.47420  0.63400  Biso   1.000  C
  C30      1.0000 0.44340  0.97420  0.63400  Biso   1.000  C
  C31      1.0000 0.94340  0.52580  0.13400  Biso   1.000  C
  C32      1.0000 0.44340  0.02580  0.13400  Biso   1.000  C
  H33      1.0000 0.00400  0.52800  0.29720  Biso   1.000  H
  H34      1.0000 0.50400  0.02800  0.29720  Biso   1.000  H
  H35      1.0000 0.00400  0.47200  0.79720  Biso   1.000  H
  H36      1.0000 0.50400  0.97200  0.79720  Biso   1.000  H
  H37      1.0000 0.99600  0.47200  0.70280  Biso   1.000  H
  H38      1.0000 0.49600  0.97200  0.70280  Biso   1.000  H
  H39      1.0000 0.99600  0.52800  0.20280  Biso   1.000  H
  H40      1.0000 0.49600  0.02800  0.20280  Biso   1.000  H
  H41      1.0000 0.05800  0.49040  0.41400  Biso   1.000  H
  H42      1.0000 0.55800  0.99040  0.41400  Biso   1.000  H
  H43      1.0000 0.05800  0.50960  0.91400  Biso   1.000  H
  H44      1.0000 0.55800  0.00960  0.91400  Biso   1.000  H
  H45      1.0000 0.94200  0.50960  0.58600  Biso   1.000  H
  H46      1.0000 0.44200  0.00960  0.58600  Biso   1.000  H
  H47      1.0000 0.94200  0.49040  0.08600  Biso   1.000  H
  H48      1.0000 0.44200  0.99040  0.08600  Biso   1.000  H
  O9       1.0000 0.86310  0.48800  0.61870  Biso   1.000  O
  O10      1.0000 0.36310  0.98800  0.61870  Biso   1.000  O
  O11      1.0000 0.86310  0.51200  0.11870  Biso   1.000  O
  O12      1.0000 0.36310  0.01200  0.11870  Biso   1.000  O
  O13      1.0000 0.13690  0.51200  0.38130  Biso   1.000  O
  O14      1.0000 0.63690  0.01200  0.38130  Biso   1.000  O
  O15      1.0000 0.13690  0.48800  0.88130  Biso   1.000  O
  O16      1.0000 0.63690  0.98800  0.88130  Biso   1.000  O
  C33      1.0000 0.86290  0.46310  0.53700  Biso   1.000  C
  C34      1.0000 0.36290  0.96310  0.53700  Biso   1.000  C
  C35      1.0000 0.86290  0.53690  0.03700  Biso   1.000  C
  C36      1.0000 0.36290  0.03690  0.03700  Biso   1.000  C
  C37      1.0000 0.13710  0.53690  0.46300  Biso   1.000  C
  C38      1.0000 0.63710  0.03690  0.46300  Biso   1.000  C
  C39      1.0000 0.13710  0.46310  0.96300  Biso   1.000  C
  C40      1.0000 0.63710  0.96310  0.96300  Biso   1.000  C
  H49      1.0000 0.88180  0.50550  0.52020  Biso   1.000  H
  H50      1.0000 0.38180  0.00550  0.52020  Biso   1.000  H
  H51      1.0000 0.88180  0.49450  0.02020  Biso   1.000  H
  H52      1.0000 0.38180  0.99450  0.02020  Biso   1.000  H
  H53      1.0000 0.11820  0.49450  0.47980  Biso   1.000  H
  H54      1.0000 0.61820  0.99450  0.47980  Biso   1.000  H
  H55      1.0000 0.11820  0.50550  0.97980  Biso   1.000  H
  H56      1.0000 0.61820  0.00550  0.97980  Biso   1.000  H
  H57      1.0000 0.81140  0.44830  0.47220  Biso   1.000  H
  H58      1.0000 0.31140  0.94830  0.47220  Biso   1.000  H
  H59      1.0000 0.81140  0.55170  0.97220  Biso   1.000  H
  H60      1.0000 0.31140  0.05170  0.97220  Biso   1.000  H
  H61      1.0000 0.18860  0.55170  0.52780  Biso   1.000  H
  H62      1.0000 0.68860  0.05170  0.52780  Biso   1.000  H
  H63      1.0000 0.18860  0.44830  0.02780  Biso   1.000  H
  H64      1.0000 0.68860  0.94830  0.02780  Biso   1.000  H
  C41      1.0000 0.08360  0.60940  0.41490  Biso   1.000  C
  C42      1.0000 0.58360  0.10940  0.41490  Biso   1.000  C
  C43      1.0000 0.08360  0.39060  0.91490  Biso   1.000  C
  C44      1.0000 0.58360  0.89060  0.91490  Biso   1.000  C
  C45      1.0000 0.91640  0.39060  0.58510  Biso   1.000  C
  C46      1.0000 0.41640  0.89060  0.58510  Biso   1.000  C
  C47      1.0000 0.91640  0.60940  0.08510  Biso   1.000  C
  C48      1.0000 0.41640  0.10940  0.08510  Biso   1.000  C
  H65      1.0000 0.13090  0.60460  0.48990  Biso   1.000  H
  H66      1.0000 0.63090  0.10460  0.48990  Biso   1.000  H
  H67      1.0000 0.13090  0.39540  0.98990  Biso   1.000  H
  H68      1.0000 0.63090  0.89540  0.98990  Biso   1.000  H
  H69      1.0000 0.86910  0.39540  0.51010  Biso   1.000  H
  H70      1.0000 0.36910  0.89540  0.51010  Biso   1.000  H
  H71      1.0000 0.86910  0.60460  0.01010  Biso   1.000  H
  H72      1.0000 0.36910  0.10460  0.01010  Biso   1.000  H
  H73      1.0000 0.04520  0.63360  0.41400  Biso   1.000  H
  H74      1.0000 0.54520  0.13360  0.41400  Biso   1.000  H
  H75      1.0000 0.04520  0.36640  0.91400  Biso   1.000  H
  H76      1.0000 0.54520  0.86640  0.91400  Biso   1.000  H
  H77      1.0000 0.95480  0.36640  0.58600  Biso   1.000  H
  H78      1.0000 0.45480  0.86640  0.58600  Biso   1.000  H
  H79      1.0000 0.95480  0.63360  0.08600  Biso   1.000  H
  H80      1.0000 0.45480  0.13360  0.08600  Biso   1.000  H
  C49      1.0000 0.09730  0.66360  0.35920  Biso   1.000  C
  C50      1.0000 0.59730  0.16360  0.35920  Biso   1.000  C
  C51      1.0000 0.09730  0.33640  0.85920  Biso   1.000  C
  C52      1.0000 0.59730  0.83640  0.85920  Biso   1.000  C
  C53      1.0000 0.90270  0.33640  0.64080  Biso   1.000  C
  C54      1.0000 0.40270  0.83640  0.64080  Biso   1.000  C
  C55      1.0000 0.90270  0.66360  0.14080  Biso   1.000  C
  C56      1.0000 0.40270  0.16360  0.14080  Biso   1.000  C
  N9       1.0000 0.10900  0.70390  0.31590  Biso   1.000  N
  N10      1.0000 0.60900  0.20390  0.31590  Biso   1.000  N
  N11      1.0000 0.10900  0.29610  0.81590  Biso   1.000  N
  N12      1.0000 0.60900  0.79610  0.81590  Biso   1.000  N
  N13      1.0000 0.89100  0.29610  0.68410  Biso   1.000  N
  N14      1.0000 0.39100  0.79610  0.68410  Biso   1.000  N
  N15      1.0000 0.89100  0.70390  0.18410  Biso   1.000  N
  N16      1.0000 0.39100  0.20390  0.18410  Biso   1.000  N
  N17      1.0000 0.20560  0.85400  0.80540  Biso   1.000  N
  N18      1.0000 0.70560  0.35400  0.80540  Biso   1.000  N
  N19      1.0000 0.20560  0.14600  0.30540  Biso   1.000  N
  N20      1.0000 0.70560  0.64600  0.30540  Biso   1.000  N
  N21      1.0000 0.79440  0.14600  0.19460  Biso   1.000  N
  N22      1.0000 0.29440  0.64600  0.19460  Biso   1.000  N
  N23      1.0000 0.79440  0.85400  0.69460  Biso   1.000  N
  N24      1.0000 0.29440  0.35400  0.69460  Biso   1.000  N
  C57      1.0000 0.15220  0.88790  0.77140  Biso   1.000  C
  C58      1.0000 0.65220  0.38790  0.77140  Biso   1.000  C
  C59      1.0000 0.15220  0.11210  0.27140  Biso   1.000  C
  C60      1.0000 0.65220  0.61210  0.27140  Biso   1.000  C
  C61      1.0000 0.84780  0.11210  0.22860  Biso   1.000  C
  C62      1.0000 0.34780  0.61210  0.22860  Biso   1.000  C
  C63      1.0000 0.84780  0.88790  0.72860  Biso   1.000  C
  C64      1.0000 0.34780  0.38790  0.72860  Biso   1.000  C
  C65      1.0000 0.08170  0.93090  0.72860  Biso   1.000  C
  C66      1.0000 0.58170  0.43090  0.72860  Biso   1.000  C
  C67      1.0000 0.08170  0.06910  0.22860  Biso   1.000  C
  C68      1.0000 0.58170  0.56910  0.22860  Biso   1.000  C
  C69      1.0000 0.91830  0.06910  0.27140  Biso   1.000  C
  C70      1.0000 0.41830  0.56910  0.27140  Biso   1.000  C
  C71      1.0000 0.91830  0.93090  0.77140  Biso   1.000  C
  C72      1.0000 0.41830  0.43090  0.77140  Biso   1.000  C
  H81      1.0000 0.04660  0.93130  0.65020  Biso   1.000  H
  H82      1.0000 0.54660  0.43130  0.65020  Biso   1.000  H
  H83      1.0000 0.04660  0.06870  0.15020  Biso   1.000  H
  H84      1.0000 0.54660  0.56870  0.15020  Biso   1.000  H
  H85      1.0000 0.95340  0.06870  0.34980  Biso   1.000  H
  H86      1.0000 0.45340  0.56870  0.34980  Biso   1.000  H
  H87      1.0000 0.95340  0.93130  0.84980  Biso   1.000  H
  H88      1.0000 0.45340  0.43130  0.84980  Biso   1.000  H
  H89      1.0000 0.05690  0.90220  0.74920  Biso   1.000  H
  H90      1.0000 0.55690  0.40220  0.74920  Biso   1.000  H
  H91      1.0000 0.05690  0.09780  0.24920  Biso   1.000  H
  H92      1.0000 0.55690  0.59780  0.24920  Biso   1.000  H
  H93      1.0000 0.94310  0.09780  0.25080  Biso   1.000  H
  H94      1.0000 0.44310  0.59780  0.25080  Biso   1.000  H
  H95      1.0000 0.94310  0.90220  0.75080  Biso   1.000  H
  H96      1.0000 0.44310  0.40220  0.75080  Biso   1.000  H
  C73      1.0000 0.09690  0.01760  0.76930  Biso   1.000  C
  C74      1.0000 0.59690  0.51760  0.76930  Biso   1.000  C
  C75      1.0000 0.09690  0.98240  0.26930  Biso   1.000  C
  C76      1.0000 0.59690  0.48240  0.26930  Biso   1.000  C
  C77      1.0000 0.90310  0.98240  0.23070  Biso   1.000  C
  C78      1.0000 0.40310  0.48240  0.23070  Biso   1.000  C
  C79      1.0000 0.90310  0.01760  0.73070  Biso   1.000  C
  C80      1.0000 0.40310  0.51760  0.73070  Biso   1.000  C
  H97      1.0000 0.04860  0.04480  0.73510  Biso   1.000  H
  H98      1.0000 0.54860  0.54480  0.73510  Biso   1.000  H
  H99      1.0000 0.04860  0.95520  0.23510  Biso   1.000  H
  H100     1.0000 0.54860  0.45520  0.23510  Biso   1.000  H
  H101     1.0000 0.95140  0.95520  0.26490  Biso   1.000  H
  H102     1.0000 0.45140  0.45520  0.26490  Biso   1.000  H
  H103     1.0000 0.95140  0.04480  0.76490  Biso   1.000  H
  H104     1.0000 0.45140  0.54480  0.76490  Biso   1.000  H
  H105     1.0000 0.12360  0.04670  0.75190  Biso   1.000  H
  H106     1.0000 0.62360  0.54670  0.75190  Biso   1.000  H
  H107     1.0000 0.12360  0.95330  0.25190  Biso   1.000  H
  H108     1.0000 0.62360  0.45330  0.25190  Biso   1.000  H
  H109     1.0000 0.87640  0.95330  0.24810  Biso   1.000  H
  H110     1.0000 0.37640  0.45330  0.24810  Biso   1.000  H
  H111     1.0000 0.87640  0.04670  0.74810  Biso   1.000  H
  H112     1.0000 0.37640  0.54670  0.74810  Biso   1.000  H
  O17      1.0000 0.14250  0.01510  0.88200  Biso   1.000  O
  O18      1.0000 0.64250  0.51510  0.88200  Biso   1.000  O
  O19      1.0000 0.14250  0.98490  0.38200  Biso   1.000  O
  O20      1.0000 0.64250  0.48490  0.38200  Biso   1.000  O
  O21      1.0000 0.85750  0.98490  0.11800  Biso   1.000  O
  O22      1.0000 0.35750  0.48490  0.11800  Biso   1.000  O
  O23      1.0000 0.85750  0.01510  0.61800  Biso   1.000  O
  O24      1.0000 0.35750  0.51510  0.61800  Biso   1.000  O
  C81      1.0000 0.14560  0.09130  0.92090  Biso   1.000  C
  C82      1.0000 0.64560  0.59130  0.92090  Biso   1.000  C
  C83      1.0000 0.14560  0.90870  0.42090  Biso   1.000  C
  C84      1.0000 0.64560  0.40870  0.42090  Biso   1.000  C
  C85      1.0000 0.85440  0.90870  0.07910  Biso   1.000  C
  C86      1.0000 0.35440  0.40870  0.07910  Biso   1.000  C
  C87      1.0000 0.85440  0.09130  0.57910  Biso   1.000  C
  C88      1.0000 0.35440  0.59130  0.57910  Biso   1.000  C
  H113     1.0000 0.17040  0.12930  0.90800  Biso   1.000  H
  H114     1.0000 0.67040  0.62930  0.90800  Biso   1.000  H
  H115     1.0000 0.17040  0.87070  0.40800  Biso   1.000  H
  H116     1.0000 0.67040  0.37070  0.40800  Biso   1.000  H
  H117     1.0000 0.82960  0.87070  0.09200  Biso   1.000  H
  H118     1.0000 0.32960  0.37070  0.09200  Biso   1.000  H
  H119     1.0000 0.82960  0.12930  0.59200  Biso   1.000  H
  H120     1.0000 0.32960  0.62930  0.59200  Biso   1.000  H
  H121     1.0000 0.09400  0.11050  0.88420  Biso   1.000  H
  H122     1.0000 0.59400  0.61050  0.88420  Biso   1.000  H
  H123     1.0000 0.09400  0.88950  0.38420  Biso   1.000  H
  H124     1.0000 0.59400  0.38950  0.38420  Biso   1.000  H
  H125     1.0000 0.90600  0.88950  0.11580  Biso   1.000  H
  H126     1.0000 0.40600  0.38950  0.11580  Biso   1.000  H
  H127     1.0000 0.90600  0.11050  0.61580  Biso   1.000  H
  H128     1.0000 0.40600  0.61050  0.61580  Biso   1.000  H
  C89      1.0000 0.19150  0.08380  0.04170  Biso   1.000  C
  C90      1.0000 0.69150  0.58380  0.04170  Biso   1.000  C
  C91      1.0000 0.19150  0.91620  0.54170  Biso   1.000  C
  C92      1.0000 0.69150  0.41620  0.54170  Biso   1.000  C
  C93      1.0000 0.80850  0.91620  0.95830  Biso   1.000  C
  C94      1.0000 0.30850  0.41620  0.95830  Biso   1.000  C
  C95      1.0000 0.80850  0.08380  0.45830  Biso   1.000  C
  C96      1.0000 0.30850  0.58380  0.45830  Biso   1.000  C
  H129     1.0000 0.18930  0.13440  0.06860  Biso   1.000  H
  H130     1.0000 0.68930  0.63440  0.06860  Biso   1.000  H
  H131     1.0000 0.18930  0.86560  0.56860  Biso   1.000  H
  H132     1.0000 0.68930  0.36560  0.56860  Biso   1.000  H
  H133     1.0000 0.81070  0.86560  0.93140  Biso   1.000  H
  H134     1.0000 0.31070  0.36560  0.93140  Biso   1.000  H
  H135     1.0000 0.81070  0.13440  0.43140  Biso   1.000  H
  H136     1.0000 0.31070  0.63440  0.43140  Biso   1.000  H
  H137     1.0000 0.24500  0.07310  0.07870  Biso   1.000  H
  H138     1.0000 0.74500  0.57310  0.07870  Biso   1.000  H
  H139     1.0000 0.24500  0.92690  0.57870  Biso   1.000  H
  H140     1.0000 0.74500  0.42690  0.57870  Biso   1.000  H
  H141     1.0000 0.75500  0.92690  0.92130  Biso   1.000  H
  H142     1.0000 0.25500  0.42690  0.92130  Biso   1.000  H
  H143     1.0000 0.75500  0.07310  0.42130  Biso   1.000  H
  H144     1.0000 0.25500  0.57310  0.42130  Biso   1.000  H
  C97      1.0000 0.16240  0.01940  0.06650  Biso   1.000  C
  C98      1.0000 0.66240  0.51940  0.06650  Biso   1.000  C
  C99      1.0000 0.16240  0.98060  0.56650  Biso   1.000  C
  C100     1.0000 0.66240  0.48060  0.56650  Biso   1.000  C
  C101     1.0000 0.83760  0.98060  0.93350  Biso   1.000  C
  C102     1.0000 0.33760  0.48060  0.93350  Biso   1.000  C
  C103     1.0000 0.83760  0.01940  0.43350  Biso   1.000  C
  C104     1.0000 0.33760  0.51940  0.43350  Biso   1.000  C
  N25      1.0000 0.14050  0.96600  0.08110  Biso   1.000  N
  N26      1.0000 0.64050  0.46600  0.08110  Biso   1.000  N
  N27      1.0000 0.14050  0.03400  0.58110  Biso   1.000  N
  N28      1.0000 0.64050  0.53400  0.58110  Biso   1.000  N
  N29      1.0000 0.85950  0.03400  0.91890  Biso   1.000  N
  N30      1.0000 0.35950  0.53400  0.91890  Biso   1.000  N
  N31      1.0000 0.85950  0.96600  0.41890  Biso   1.000  N
  N32      1.0000 0.35950  0.46600  0.41890  Biso   1.000  N
