data_image0
_cell_length_a       10.262
_cell_length_b       10.767
_cell_length_c       13.437
_cell_angle_alpha    81.79
_cell_angle_beta     82.515
_cell_angle_gamma    84.724

_symmetry_space_group_name_H-M    "P 1"
_symmetry_int_tables_number       1

loop_
  _symmetry_equiv_pos_as_xyz
  'x, y, z'

loop_
  _atom_site_label
  _atom_site_occupancy
  _atom_site_fract_x
  _atom_site_fract_y
  _atom_site_fract_z
  _atom_site_thermal_displace_type
  _atom_site_B_iso_or_equiv
  _atom_site_type_symbol
  Cu1      1.0000 0.52818  0.84918  0.35599  Biso   1.000  Cu
  Cu2      1.0000 0.47182  0.15082  0.64401  Biso   1.000  Cu
  P1       1.0000 0.34596  0.86817  0.28383  Biso   1.000  P
  P2       1.0000 0.65404  0.13183  0.71617  Biso   1.000  P
  N1       1.0000 0.59620  0.70370  0.45830  Biso   1.000  N
  N2       1.0000 0.40380  0.29630  0.54170  Biso   1.000  N
  N3       1.0000 0.52280  0.93940  0.48800  Biso   1.000  N
  N4       1.0000 0.47720  0.06060  0.51200  Biso   1.000  N
  N5       1.0000 0.99180  0.94980  0.01040  Biso   1.000  N
  N6       1.0000 0.00820  0.05020  0.98960  Biso   1.000  N
  C1       1.0000 0.64610  0.58830  0.44110  Biso   1.000  C
  C2       1.0000 0.35390  0.41170  0.55890  Biso   1.000  C
  H1       1.0000 0.64170  0.56400  0.37800  Biso   1.000  H
  H2       1.0000 0.35830  0.43600  0.62200  Biso   1.000  H
  C3       1.0000 0.70300  0.50480  0.51210  Biso   1.000  C
  C4       1.0000 0.29700  0.49520  0.48790  Biso   1.000  C
  H3       1.0000 0.73710  0.42560  0.49740  Biso   1.000  H
  H4       1.0000 0.26290  0.57440  0.50260  Biso   1.000  H
  C5       1.0000 0.70890  0.53930  0.60420  Biso   1.000  C
  C6       1.0000 0.29110  0.46070  0.39580  Biso   1.000  C
  H5       1.0000 0.74970  0.48480  0.65290  Biso   1.000  H
  H6       1.0000 0.25030  0.51520  0.34710  Biso   1.000  H
  C7       1.0000 0.65450  0.65480  0.62530  Biso   1.000  C
  C8       1.0000 0.34550  0.34520  0.37470  Biso   1.000  C
  H7       1.0000 0.65290  0.67810  0.68960  Biso   1.000  H
  H8       1.0000 0.34710  0.32190  0.31040  Biso   1.000  H
  C9       1.0000 0.60240  0.73550  0.54970  Biso   1.000  C
  C10      1.0000 0.39760  0.26450  0.45030  Biso   1.000  C
  C11      1.0000 0.55260  0.86320  0.56350  Biso   1.000  C
  C12      1.0000 0.44740  0.13680  0.43650  Biso   1.000  C
  H9       1.0000 0.54280  0.88880  0.62750  Biso   1.000  H
  H10      1.0000 0.45720  0.11120  0.37250  Biso   1.000  H
  N7       1.0000 0.69310  0.88560  0.25600  Biso   1.000  N
  N8       1.0000 0.30690  0.11440  0.74400  Biso   1.000  N
  C13      1.0000 0.74250  0.80040  0.19510  Biso   1.000  C
  C14      1.0000 0.25750  0.19960  0.80490  Biso   1.000  C
  H11      1.0000 0.70730  0.72230  0.20560  Biso   1.000  H
  H12      1.0000 0.29270  0.27770  0.79440  Biso   1.000  H
  C15      1.0000 0.84060  0.82200  0.11920  Biso   1.000  C
  C16      1.0000 0.15940  0.17800  0.88080  Biso   1.000  C
  H13      1.0000 0.87430  0.75970  0.07960  Biso   1.000  H
  H14      1.0000 0.12570  0.24030  0.92040  Biso   1.000  H
  C17      1.0000 0.89000  0.93970  0.10200  Biso   1.000  C
  C18      1.0000 0.11000  0.06030  0.89800  Biso   1.000  C
  C19      1.0000 0.84420  0.02670  0.16550  Biso   1.000  C
  C20      1.0000 0.15580  0.97330  0.83450  Biso   1.000  C
  H15      1.0000 0.87820  0.10520  0.15640  Biso   1.000  H
  H16      1.0000 0.12180  0.89480  0.84360  Biso   1.000  H
  C21      1.0000 0.74630  0.99550  0.24330  Biso   1.000  C
  C22      1.0000 0.25370  0.00450  0.75670  Biso   1.000  C
  H17      1.0000 0.71680  0.05310  0.28820  Biso   1.000  H
  H18      1.0000 0.28320  0.94690  0.71180  Biso   1.000  H
  C23      1.0000 0.34690  0.77050  0.18540  Biso   1.000  C
  C24      1.0000 0.65310  0.22950  0.81460  Biso   1.000  C
  C25      1.0000 0.41980  0.65640  0.19250  Biso   1.000  C
  C26      1.0000 0.58020  0.34360  0.80750  Biso   1.000  C
  H19      1.0000 0.47230  0.63410  0.24460  Biso   1.000  H
  H20      1.0000 0.52770  0.36590  0.75540  Biso   1.000  H
  C27      1.0000 0.41510  0.57480  0.12260  Biso   1.000  C
  C28      1.0000 0.58490  0.42520  0.87740  Biso   1.000  C
  H21      1.0000 0.46420  0.49760  0.12790  Biso   1.000  H
  H22      1.0000 0.53580  0.50240  0.87210  Biso   1.000  H
  C29      1.0000 0.33860  0.60760  0.04570  Biso   1.000  C
  C30      1.0000 0.66140  0.39240  0.95430  Biso   1.000  C
  H23      1.0000 0.33450  0.55220  0.99930  Biso   1.000  H
  H24      1.0000 0.66550  0.44780  0.00070  Biso   1.000  H
  C31      1.0000 0.26860  0.72050  0.03700  Biso   1.000  C
  C32      1.0000 0.73140  0.27950  0.96300  Biso   1.000  C
  H25      1.0000 0.21760  0.74250  0.98390  Biso   1.000  H
  H26      1.0000 0.78240  0.25750  0.01610  Biso   1.000  H
  C33      1.0000 0.27190  0.80290  0.10510  Biso   1.000  C
  C34      1.0000 0.72810  0.19710  0.89490  Biso   1.000  C
  H27      1.0000 0.22400  0.88060  0.09770  Biso   1.000  H
  H28      1.0000 0.77600  0.11940  0.90230  Biso   1.000  H
  C35      1.0000 0.30620  0.02460  0.22070  Biso   1.000  C
  C36      1.0000 0.69380  0.97540  0.77930  Biso   1.000  C
  C37      1.0000 0.39990  0.08030  0.15040  Biso   1.000  C
  C38      1.0000 0.60010  0.91970  0.84960  Biso   1.000  C
  H29      1.0000 0.48220  0.03820  0.13670  Biso   1.000  H
  H30      1.0000 0.51780  0.96180  0.86330  Biso   1.000  H
  C39      1.0000 0.37230  0.19790  0.10030  Biso   1.000  C
  C40      1.0000 0.62770  0.80210  0.89970  Biso   1.000  C
  H31      1.0000 0.43580  0.23450  0.05200  Biso   1.000  H
  H32      1.0000 0.56420  0.76550  0.94800  Biso   1.000  H
  C41      1.0000 0.25440  0.26130  0.12010  Biso   1.000  C
  C42      1.0000 0.74560  0.73870  0.87990  Biso   1.000  C
  H33      1.0000 0.23720  0.34100  0.08530  Biso   1.000  H
  H34      1.0000 0.76280  0.65900  0.91470  Biso   1.000  H
  C43      1.0000 0.16170  0.21010  0.18970  Biso   1.000  C
  C44      1.0000 0.83830  0.78990  0.81030  Biso   1.000  C
  H35      1.0000 0.08140  0.25520  0.20430  Biso   1.000  H
  H36      1.0000 0.91860  0.74480  0.79570  Biso   1.000  H
  C45      1.0000 0.18540  0.09150  0.23930  Biso   1.000  C
  C46      1.0000 0.81460  0.90850  0.76070  Biso   1.000  C
  H37      1.0000 0.11980  0.05540  0.28590  Biso   1.000  H
  H38      1.0000 0.88020  0.94460  0.71410  Biso   1.000  H
  C47      1.0000 0.19740  0.83170  0.36840  Biso   1.000  C
  C48      1.0000 0.80260  0.16830  0.63160  Biso   1.000  C
  C49      1.0000 0.09170  0.78030  0.33940  Biso   1.000  C
  C50      1.0000 0.90830  0.21970  0.66060  Biso   1.000  C
  H39      1.0000 0.09390  0.76250  0.27350  Biso   1.000  H
  H40      1.0000 0.90610  0.23750  0.72650  Biso   1.000  H
  C51      1.0000 0.98290  0.75580  0.40940  Biso   1.000  C
  C52      1.0000 0.01710  0.24420  0.59060  Biso   1.000  C
  H41      1.0000 0.91130  0.72200  0.39010  Biso   1.000  H
  H42      1.0000 0.08870  0.27800  0.60990  Biso   1.000  H
  C53      1.0000 0.97960  0.78040  0.50520  Biso   1.000  C
  C54      1.0000 0.02040  0.21960  0.49480  Biso   1.000  C
  H43      1.0000 0.90600  0.76330  0.55170  Biso   1.000  H
  H44      1.0000 0.09400  0.23670  0.44830  Biso   1.000  H
  C55      1.0000 0.08240  0.82970  0.53390  Biso   1.000  C
  C56      1.0000 0.91760  0.17030  0.46610  Biso   1.000  C
  H45      1.0000 0.07930  0.84700  0.60010  Biso   1.000  H
  H46      1.0000 0.92070  0.15300  0.39990  Biso   1.000  H
  C57      1.0000 0.19040  0.85410  0.46690  Biso   1.000  C
  C58      1.0000 0.80960  0.14590  0.53310  Biso   1.000  C
  H47      1.0000 0.26130  0.88690  0.48820  Biso   1.000  H
  H48      1.0000 0.73870  0.11310  0.51180  Biso   1.000  H
  B1       1.0000 0.70670  0.34460  0.24460  Biso   1.000  B
  B2       1.0000 0.29330  0.65540  0.75540  Biso   1.000  B
  F1       1.0000 0.82920  0.30680  0.19960  Biso   1.000  F
  F2       1.0000 0.17080  0.69320  0.80040  Biso   1.000  F
  F3       1.0000 0.68460  0.47210  0.21850  Biso   1.000  F
  F4       1.0000 0.31540  0.52790  0.78150  Biso   1.000  F
  F5       1.0000 0.68500  0.31230  0.34500  Biso   1.000  F
  F6       1.0000 0.31500  0.68770  0.65500  Biso   1.000  F
  F7       1.0000 0.61370  0.28560  0.20890  Biso   1.000  F
  F8       1.0000 0.38630  0.71440  0.79110  Biso   1.000  F
  B3       1.0000 0.76130  0.37870  0.26800  Biso   1.000  B
  B4       1.0000 0.23870  0.62130  0.73200  Biso   1.000  B
  F9       1.0000 0.86000  0.44500  0.28800  Biso   1.000  F
  F10      1.0000 0.14000  0.55500  0.71200  Biso   1.000  F
