data_image0
_cell_length_a       9.5413
_cell_length_b       12.3171
_cell_length_c       10.3264
_cell_angle_alpha    90
_cell_angle_beta     111.155
_cell_angle_gamma    90

_symmetry_space_group_name_H-M    "P 1"
_symmetry_int_tables_number       1

loop_
  _symmetry_equiv_pos_as_xyz
  'x, y, z'

loop_
  _atom_site_label
  _atom_site_occupancy
  _atom_site_fract_x
  _atom_site_fract_y
  _atom_site_fract_z
  _atom_site_thermal_displace_type
  _atom_site_B_iso_or_equiv
  _atom_site_type_symbol
  Cu1      1.0000 0.33360  0.27047  0.87922  Biso   1.000  Cu
  Cu2      1.0000 0.33360  0.72953  0.37922  Biso   1.000  Cu
  Cu3      1.0000 0.83360  0.77047  0.87922  Biso   1.000  Cu
  Cu4      1.0000 0.83360  0.22953  0.37922  Biso   1.000  Cu
  Cl1      1.0000 0.32780  0.53963  0.92727  Biso   1.000  Cl
  Cl2      1.0000 0.32780  0.46037  0.42727  Biso   1.000  Cl
  Cl3      1.0000 0.82780  0.03963  0.92727  Biso   1.000  Cl
  Cl4      1.0000 0.82780  0.96037  0.42727  Biso   1.000  Cl
  O1       1.0000 0.21780  0.58070  0.97810  Biso   1.000  O
  O2       1.0000 0.21780  0.41930  0.47810  Biso   1.000  O
  O3       1.0000 0.71780  0.08070  0.97810  Biso   1.000  O
  O4       1.0000 0.71780  0.91930  0.47810  Biso   1.000  O
  O5       1.0000 0.35760  0.62050  0.84490  Biso   1.000  O
  O6       1.0000 0.35760  0.37950  0.34490  Biso   1.000  O
  O7       1.0000 0.85760  0.12050  0.84490  Biso   1.000  O
  O8       1.0000 0.85760  0.87950  0.34490  Biso   1.000  O
  O9       1.0000 0.46150  0.51260  0.04010  Biso   1.000  O
  O10      1.0000 0.46150  0.48740  0.54010  Biso   1.000  O
  O11      1.0000 0.96150  0.01260  0.04010  Biso   1.000  O
  O12      1.0000 0.96150  0.98740  0.54010  Biso   1.000  O
  O13      1.0000 0.26540  0.44480  0.84580  Biso   1.000  O
  O14      1.0000 0.26540  0.55520  0.34580  Biso   1.000  O
  O15      1.0000 0.76540  0.94480  0.84580  Biso   1.000  O
  O16      1.0000 0.76540  0.05520  0.34580  Biso   1.000  O
  N1       1.0000 0.74480  0.27190  0.18350  Biso   1.000  N
  N2       1.0000 0.74480  0.72810  0.68350  Biso   1.000  N
  N3       1.0000 0.24480  0.77190  0.18350  Biso   1.000  N
  N4       1.0000 0.24480  0.22810  0.68350  Biso   1.000  N
  N5       1.0000 0.60130  0.25590  0.10540  Biso   1.000  N
  N6       1.0000 0.60130  0.74410  0.60540  Biso   1.000  N
  N7       1.0000 0.10130  0.75590  0.10540  Biso   1.000  N
  N8       1.0000 0.10130  0.24410  0.60540  Biso   1.000  N
  N9       1.0000 0.55930  0.28960  0.97600  Biso   1.000  N
  N10      1.0000 0.55930  0.71040  0.47600  Biso   1.000  N
  N11      1.0000 0.05930  0.78960  0.97600  Biso   1.000  N
  N12      1.0000 0.05930  0.21040  0.47600  Biso   1.000  N
  C1       1.0000 0.68560  0.33610  0.96790  Biso   1.000  C
  C2       1.0000 0.68560  0.66390  0.46790  Biso   1.000  C
  C3       1.0000 0.18560  0.83610  0.96790  Biso   1.000  C
  C4       1.0000 0.18560  0.16390  0.46790  Biso   1.000  C
  C5       1.0000 0.70820  0.38800  0.85530  Biso   1.000  C
  C6       1.0000 0.70820  0.61200  0.35530  Biso   1.000  C
  C7       1.0000 0.20820  0.88800  0.85530  Biso   1.000  C
  C8       1.0000 0.20820  0.11200  0.35530  Biso   1.000  C
  H1       1.0000 0.63320  0.39520  0.76810  Biso   1.000  H
  H2       1.0000 0.63320  0.60480  0.26810  Biso   1.000  H
  H3       1.0000 0.13320  0.89520  0.76810  Biso   1.000  H
  H4       1.0000 0.13320  0.10480  0.26810  Biso   1.000  H
  C9       1.0000 0.84810  0.42600  0.88620  Biso   1.000  C
  C10      1.0000 0.84810  0.57400  0.38620  Biso   1.000  C
  C11      1.0000 0.34810  0.92600  0.88620  Biso   1.000  C
  C12      1.0000 0.34810  0.07400  0.38620  Biso   1.000  C
  H5       1.0000 0.86640  0.46520  0.81690  Biso   1.000  H
  H6       1.0000 0.86640  0.53480  0.31690  Biso   1.000  H
  H7       1.0000 0.36640  0.96520  0.81690  Biso   1.000  H
  H8       1.0000 0.36640  0.03480  0.31690  Biso   1.000  H
  C13      1.0000 0.96880  0.41330  0.01070  Biso   1.000  C
  C14      1.0000 0.96880  0.58670  0.51070  Biso   1.000  C
  C15      1.0000 0.46880  0.91330  0.01070  Biso   1.000  C
  C16      1.0000 0.46880  0.08670  0.51070  Biso   1.000  C
  H9       1.0000 0.06340  0.43930  0.01980  Biso   1.000  H
  H10      1.0000 0.06340  0.56070  0.51980  Biso   1.000  H
  H11      1.0000 0.56340  0.93930  0.01980  Biso   1.000  H
  H12      1.0000 0.56340  0.06070  0.51980  Biso   1.000  H
  C17      1.0000 0.94720  0.36210  0.11960  Biso   1.000  C
  C18      1.0000 0.94720  0.63790  0.61960  Biso   1.000  C
  C19      1.0000 0.44720  0.86210  0.11960  Biso   1.000  C
  C20      1.0000 0.44720  0.13790  0.61960  Biso   1.000  C
  H13      1.0000 0.02480  0.35310  0.20490  Biso   1.000  H
  H14      1.0000 0.02480  0.64690  0.70490  Biso   1.000  H
  H15      1.0000 0.52480  0.85310  0.20490  Biso   1.000  H
  H16      1.0000 0.52480  0.14690  0.70490  Biso   1.000  H
  C21      1.0000 0.80130  0.32390  0.09530  Biso   1.000  C
  C22      1.0000 0.80130  0.67610  0.59530  Biso   1.000  C
  C23      1.0000 0.30130  0.82390  0.09530  Biso   1.000  C
  C24      1.0000 0.30130  0.17610  0.59530  Biso   1.000  C
  C25      1.0000 0.49550  0.19730  0.15220  Biso   1.000  C
  C26      1.0000 0.49550  0.80270  0.65220  Biso   1.000  C
  C27      1.0000 0.99550  0.69730  0.15220  Biso   1.000  C
  C28      1.0000 0.99550  0.30270  0.65220  Biso   1.000  C
  H17      1.0000 0.52490  0.20440  0.25200  Biso   1.000  H
  H18      1.0000 0.52490  0.79560  0.75200  Biso   1.000  H
  H19      1.0000 0.02490  0.70440  0.25200  Biso   1.000  H
  H20      1.0000 0.02490  0.29560  0.75200  Biso   1.000  H
  H21      1.0000 0.49620  0.12080  0.13010  Biso   1.000  H
  H22      1.0000 0.49620  0.87920  0.63010  Biso   1.000  H
  H23      1.0000 0.99620  0.62080  0.13010  Biso   1.000  H
  H24      1.0000 0.99620  0.37920  0.63010  Biso   1.000  H
  C29      1.0000 0.34180  0.24270  0.08200  Biso   1.000  C
  C30      1.0000 0.34180  0.75730  0.58200  Biso   1.000  C
  C31      1.0000 0.84180  0.74270  0.08200  Biso   1.000  C
  C32      1.0000 0.84180  0.25730  0.58200  Biso   1.000  C
  H25      1.0000 0.32610  0.31570  0.09570  Biso   1.000  H
  H26      1.0000 0.32610  0.68430  0.59570  Biso   1.000  H
  H27      1.0000 0.82610  0.81570  0.09570  Biso   1.000  H
  H28      1.0000 0.82610  0.18430  0.59570  Biso   1.000  H
  C33      1.0000 0.22430  0.18370  0.99980  Biso   1.000  C
  C34      1.0000 0.22430  0.81630  0.49980  Biso   1.000  C
  C35      1.0000 0.72430  0.68370  0.99980  Biso   1.000  C
  C36      1.0000 0.72430  0.31630  0.49980  Biso   1.000  C
  H29      1.0000 0.23690  0.11060  0.98440  Biso   1.000  H
  H30      1.0000 0.23690  0.88940  0.48440  Biso   1.000  H
  H31      1.0000 0.73690  0.61060  0.98440  Biso   1.000  H
  H32      1.0000 0.73690  0.38940  0.48440  Biso   1.000  H
  H33      1.0000 0.13060  0.21620  0.95850  Biso   1.000  H
  H34      1.0000 0.13060  0.78380  0.45850  Biso   1.000  H
  H35      1.0000 0.63060  0.71620  0.95850  Biso   1.000  H
  H36      1.0000 0.63060  0.28380  0.45850  Biso   1.000  H
