data_image0
_cell_length_a       13.502
_cell_length_b       11.299
_cell_length_c       16.124
_cell_angle_alpha    90
_cell_angle_beta     90
_cell_angle_gamma    90

_symmetry_space_group_name_H-M    "P 1"
_symmetry_int_tables_number       1

loop_
  _symmetry_equiv_pos_as_xyz
  'x, y, z'

loop_
  _atom_site_label
  _atom_site_occupancy
  _atom_site_fract_x
  _atom_site_fract_y
  _atom_site_fract_z
  _atom_site_thermal_displace_type
  _atom_site_B_iso_or_equiv
  _atom_site_type_symbol
  Cu1      1.0000 0.76686  0.38726  0.30783  Biso   1.000  Cu
  Cu2      1.0000 0.26686  0.11274  0.69217  Biso   1.000  Cu
  Cu3      1.0000 0.23314  0.88726  0.19217  Biso   1.000  Cu
  Cu4      1.0000 0.73314  0.61274  0.80783  Biso   1.000  Cu
  Cu5      1.0000 0.23314  0.61274  0.69217  Biso   1.000  Cu
  Cu6      1.0000 0.73314  0.88726  0.30783  Biso   1.000  Cu
  Cu7      1.0000 0.76686  0.11274  0.80783  Biso   1.000  Cu
  Cu8      1.0000 0.26686  0.38726  0.19217  Biso   1.000  Cu
  O1       1.0000 0.92390  0.40610  0.33180  Biso   1.000  O
  O2       1.0000 0.42390  0.09390  0.66820  Biso   1.000  O
  O3       1.0000 0.07610  0.90610  0.16820  Biso   1.000  O
  O4       1.0000 0.57610  0.59390  0.83180  Biso   1.000  O
  O5       1.0000 0.07610  0.59390  0.66820  Biso   1.000  O
  O6       1.0000 0.57610  0.90610  0.33180  Biso   1.000  O
  O7       1.0000 0.92390  0.09390  0.83180  Biso   1.000  O
  O8       1.0000 0.42390  0.40610  0.16820  Biso   1.000  O
  H1       1.0000 0.94720  0.47730  0.30840  Biso   1.000  H
  H2       1.0000 0.44720  0.02270  0.69160  Biso   1.000  H
  H3       1.0000 0.05280  0.97730  0.19160  Biso   1.000  H
  H4       1.0000 0.55280  0.52270  0.80840  Biso   1.000  H
  H5       1.0000 0.05280  0.52270  0.69160  Biso   1.000  H
  H6       1.0000 0.55280  0.97730  0.30840  Biso   1.000  H
  H7       1.0000 0.94720  0.02270  0.80840  Biso   1.000  H
  H8       1.0000 0.44720  0.47730  0.19160  Biso   1.000  H
  H9       1.0000 0.95850  0.34070  0.31000  Biso   1.000  H
  H10      1.0000 0.45850  0.15930  0.69000  Biso   1.000  H
  H11      1.0000 0.04150  0.84070  0.19000  Biso   1.000  H
  H12      1.0000 0.54150  0.65930  0.81000  Biso   1.000  H
  H13      1.0000 0.04150  0.65930  0.69000  Biso   1.000  H
  H14      1.0000 0.54150  0.84070  0.31000  Biso   1.000  H
  H15      1.0000 0.95850  0.15930  0.81000  Biso   1.000  H
  H16      1.0000 0.45850  0.34070  0.19000  Biso   1.000  H
  N1       1.0000 0.75320  0.03810  0.24810  Biso   1.000  N
  N2       1.0000 0.25320  0.46190  0.75190  Biso   1.000  N
  N3       1.0000 0.24680  0.53810  0.25190  Biso   1.000  N
  N4       1.0000 0.74680  0.96190  0.74810  Biso   1.000  N
  N5       1.0000 0.24680  0.96190  0.75190  Biso   1.000  N
  N6       1.0000 0.74680  0.53810  0.24810  Biso   1.000  N
  N7       1.0000 0.75320  0.46190  0.74810  Biso   1.000  N
  N8       1.0000 0.25320  0.03810  0.25190  Biso   1.000  N
  N9       1.0000 0.73960  0.14430  0.28110  Biso   1.000  N
  N10      1.0000 0.23960  0.35570  0.71890  Biso   1.000  N
  N11      1.0000 0.26040  0.64430  0.21890  Biso   1.000  N
  N12      1.0000 0.76040  0.85570  0.78110  Biso   1.000  N
  N13      1.0000 0.26040  0.85570  0.71890  Biso   1.000  N
  N14      1.0000 0.76040  0.64430  0.28110  Biso   1.000  N
  N15      1.0000 0.73960  0.35570  0.78110  Biso   1.000  N
  N16      1.0000 0.23960  0.14430  0.21890  Biso   1.000  N
  N17      1.0000 0.77640  0.23420  0.23950  Biso   1.000  N
  N18      1.0000 0.27640  0.26580  0.76050  Biso   1.000  N
  N19      1.0000 0.22360  0.73420  0.26050  Biso   1.000  N
  N20      1.0000 0.72360  0.76580  0.73950  Biso   1.000  N
  N21      1.0000 0.22360  0.76580  0.76050  Biso   1.000  N
  N22      1.0000 0.72360  0.73420  0.23950  Biso   1.000  N
  N23      1.0000 0.77640  0.26580  0.73950  Biso   1.000  N
  N24      1.0000 0.27640  0.23420  0.26050  Biso   1.000  N
  C1       1.0000 0.80390  0.06030  0.17680  Biso   1.000  C
  C2       1.0000 0.30390  0.43970  0.82320  Biso   1.000  C
  C3       1.0000 0.19610  0.56030  0.32320  Biso   1.000  C
  C4       1.0000 0.69610  0.93970  0.67680  Biso   1.000  C
  C5       1.0000 0.19610  0.93970  0.82320  Biso   1.000  C
  C6       1.0000 0.69610  0.56030  0.17680  Biso   1.000  C
  C7       1.0000 0.80390  0.43970  0.67680  Biso   1.000  C
  C8       1.0000 0.30390  0.06030  0.32320  Biso   1.000  C
  C9       1.0000 0.83910  0.98300  0.11500  Biso   1.000  C
  C10      1.0000 0.33910  0.51700  0.88500  Biso   1.000  C
  C11      1.0000 0.16090  0.48300  0.38500  Biso   1.000  C
  C12      1.0000 0.66090  0.01700  0.61500  Biso   1.000  C
  C13      1.0000 0.16090  0.01700  0.88500  Biso   1.000  C
  C14      1.0000 0.66090  0.48300  0.11500  Biso   1.000  C
  C15      1.0000 0.83910  0.51700  0.61500  Biso   1.000  C
  C16      1.0000 0.33910  0.98300  0.38500  Biso   1.000  C
  H17      1.0000 0.82900  0.90170  0.11770  Biso   1.000  H
  H18      1.0000 0.32900  0.59830  0.88230  Biso   1.000  H
  H19      1.0000 0.17100  0.40170  0.38230  Biso   1.000  H
  H20      1.0000 0.67100  0.09830  0.61770  Biso   1.000  H
  H21      1.0000 0.17100  0.09830  0.88230  Biso   1.000  H
  H22      1.0000 0.67100  0.40170  0.11770  Biso   1.000  H
  H23      1.0000 0.82900  0.59830  0.61770  Biso   1.000  H
  H24      1.0000 0.32900  0.90170  0.38230  Biso   1.000  H
  C17      1.0000 0.88900  0.03460  0.05100  Biso   1.000  C
  C18      1.0000 0.38900  0.46540  0.94900  Biso   1.000  C
  C19      1.0000 0.11100  0.53460  0.44900  Biso   1.000  C
  C20      1.0000 0.61100  0.96540  0.55100  Biso   1.000  C
  C21      1.0000 0.11100  0.96540  0.94900  Biso   1.000  C
  C22      1.0000 0.61100  0.53460  0.05100  Biso   1.000  C
  C23      1.0000 0.88900  0.46540  0.55100  Biso   1.000  C
  C24      1.0000 0.38900  0.03460  0.44900  Biso   1.000  C
  H25      1.0000 0.91230  0.98680  0.00830  Biso   1.000  H
  H26      1.0000 0.41230  0.51320  0.99170  Biso   1.000  H
  H27      1.0000 0.08770  0.48680  0.49170  Biso   1.000  H
  H28      1.0000 0.58770  0.01320  0.50830  Biso   1.000  H
  H29      1.0000 0.08770  0.01320  0.99170  Biso   1.000  H
  H30      1.0000 0.58770  0.48680  0.00830  Biso   1.000  H
  H31      1.0000 0.91230  0.51320  0.50830  Biso   1.000  H
  H32      1.0000 0.41230  0.98680  0.49170  Biso   1.000  H
  C25      1.0000 0.90690  0.15890  0.04680  Biso   1.000  C
  C26      1.0000 0.40690  0.34110  0.95320  Biso   1.000  C
  C27      1.0000 0.09310  0.65890  0.45320  Biso   1.000  C
  C28      1.0000 0.59310  0.84110  0.54680  Biso   1.000  C
  C29      1.0000 0.09310  0.84110  0.95320  Biso   1.000  C
  C30      1.0000 0.59310  0.65890  0.04680  Biso   1.000  C
  C31      1.0000 0.90690  0.34110  0.54680  Biso   1.000  C
  C32      1.0000 0.40690  0.15890  0.45320  Biso   1.000  C
  H33      1.0000 0.94240  0.18900  0.00210  Biso   1.000  H
  H34      1.0000 0.44240  0.31100  0.99790  Biso   1.000  H
  H35      1.0000 0.05760  0.68900  0.49790  Biso   1.000  H
  H36      1.0000 0.55760  0.81100  0.50210  Biso   1.000  H
  H37      1.0000 0.05760  0.81100  0.99790  Biso   1.000  H
  H38      1.0000 0.55760  0.68900  0.00210  Biso   1.000  H
  H39      1.0000 0.94240  0.31100  0.50210  Biso   1.000  H
  H40      1.0000 0.44240  0.18900  0.49790  Biso   1.000  H
  C33      1.0000 0.87350  0.23520  0.10650  Biso   1.000  C
  C34      1.0000 0.37350  0.26480  0.89350  Biso   1.000  C
  C35      1.0000 0.12650  0.73520  0.39350  Biso   1.000  C
  C36      1.0000 0.62650  0.76480  0.60650  Biso   1.000  C
  C37      1.0000 0.12650  0.76480  0.89350  Biso   1.000  C
  C38      1.0000 0.62650  0.73520  0.10650  Biso   1.000  C
  C39      1.0000 0.87350  0.26480  0.60650  Biso   1.000  C
  C40      1.0000 0.37350  0.23520  0.39350  Biso   1.000  C
  H41      1.0000 0.88550  0.31620  0.10410  Biso   1.000  H
  H42      1.0000 0.38550  0.18380  0.89590  Biso   1.000  H
  H43      1.0000 0.11450  0.81620  0.39590  Biso   1.000  H
  H44      1.0000 0.61450  0.68380  0.60410  Biso   1.000  H
  H45      1.0000 0.11450  0.68380  0.89590  Biso   1.000  H
  H46      1.0000 0.61450  0.81620  0.10410  Biso   1.000  H
  H47      1.0000 0.88550  0.18380  0.60410  Biso   1.000  H
  H48      1.0000 0.38550  0.31620  0.39590  Biso   1.000  H
  C41      1.0000 0.81960  0.18310  0.17180  Biso   1.000  C
  C42      1.0000 0.31960  0.31690  0.82820  Biso   1.000  C
  C43      1.0000 0.18040  0.68310  0.32820  Biso   1.000  C
  C44      1.0000 0.68040  0.81690  0.67180  Biso   1.000  C
  C45      1.0000 0.18040  0.81690  0.82820  Biso   1.000  C
  C46      1.0000 0.68040  0.68310  0.17180  Biso   1.000  C
  C47      1.0000 0.81960  0.31690  0.67180  Biso   1.000  C
  C48      1.0000 0.31960  0.18310  0.32820  Biso   1.000  C
  C49      1.0000 0.68050  0.16610  0.35620  Biso   1.000  C
  C50      1.0000 0.18050  0.33390  0.64380  Biso   1.000  C
  C51      1.0000 0.31950  0.66610  0.14380  Biso   1.000  C
  C52      1.0000 0.81950  0.83390  0.85620  Biso   1.000  C
  C53      1.0000 0.31950  0.83390  0.64380  Biso   1.000  C
  C54      1.0000 0.81950  0.66610  0.35620  Biso   1.000  C
  C55      1.0000 0.68050  0.33390  0.85620  Biso   1.000  C
  C56      1.0000 0.18050  0.16610  0.14380  Biso   1.000  C
  H49      1.0000 0.68330  0.09730  0.39200  Biso   1.000  H
  H50      1.0000 0.18330  0.40270  0.60800  Biso   1.000  H
  H51      1.0000 0.31670  0.59730  0.10800  Biso   1.000  H
  H52      1.0000 0.81670  0.90270  0.89200  Biso   1.000  H
  H53      1.0000 0.31670  0.90270  0.60800  Biso   1.000  H
  H54      1.0000 0.81670  0.59730  0.39200  Biso   1.000  H
  H55      1.0000 0.68330  0.40270  0.89200  Biso   1.000  H
  H56      1.0000 0.18330  0.09730  0.10800  Biso   1.000  H
  H57      1.0000 0.61190  0.17940  0.34090  Biso   1.000  H
  H58      1.0000 0.11190  0.32060  0.65910  Biso   1.000  H
  H59      1.0000 0.38810  0.67940  0.15910  Biso   1.000  H
  H60      1.0000 0.88810  0.82060  0.84090  Biso   1.000  H
  H61      1.0000 0.38810  0.82060  0.65910  Biso   1.000  H
  H62      1.0000 0.88810  0.67940  0.34090  Biso   1.000  H
  H63      1.0000 0.61190  0.32060  0.84090  Biso   1.000  H
  H64      1.0000 0.11190  0.17940  0.15910  Biso   1.000  H
  C57      1.0000 0.71950  0.27230  0.40170  Biso   1.000  C
  C58      1.0000 0.21950  0.22770  0.59830  Biso   1.000  C
  C59      1.0000 0.28050  0.77230  0.09830  Biso   1.000  C
  C60      1.0000 0.78050  0.72770  0.90170  Biso   1.000  C
  C61      1.0000 0.28050  0.72770  0.59830  Biso   1.000  C
  C62      1.0000 0.78050  0.77230  0.40170  Biso   1.000  C
  C63      1.0000 0.71950  0.22770  0.90170  Biso   1.000  C
  C64      1.0000 0.21950  0.27230  0.09830  Biso   1.000  C
  H65      1.0000 0.78250  0.26840  0.42490  Biso   1.000  H
  H66      1.0000 0.28250  0.23160  0.57510  Biso   1.000  H
  H67      1.0000 0.21750  0.76840  0.07510  Biso   1.000  H
  H68      1.0000 0.71750  0.73160  0.92490  Biso   1.000  H
  H69      1.0000 0.21750  0.73160  0.57510  Biso   1.000  H
  H70      1.0000 0.71750  0.76840  0.42490  Biso   1.000  H
  H71      1.0000 0.78250  0.23160  0.92490  Biso   1.000  H
  H72      1.0000 0.28250  0.26840  0.07510  Biso   1.000  H
  C65      1.0000 0.66690  0.37350  0.41050  Biso   1.000  C
  C66      1.0000 0.16690  0.12650  0.58950  Biso   1.000  C
  C67      1.0000 0.33310  0.87350  0.08950  Biso   1.000  C
  C68      1.0000 0.83310  0.62650  0.91050  Biso   1.000  C
  C69      1.0000 0.33310  0.62650  0.58950  Biso   1.000  C
  C70      1.0000 0.83310  0.87350  0.41050  Biso   1.000  C
  C71      1.0000 0.66690  0.12650  0.91050  Biso   1.000  C
  C72      1.0000 0.16690  0.37350  0.08950  Biso   1.000  C
  H73      1.0000 0.60380  0.37940  0.38780  Biso   1.000  H
  H74      1.0000 0.10380  0.12060  0.61220  Biso   1.000  H
  H75      1.0000 0.39620  0.87940  0.11220  Biso   1.000  H
  H76      1.0000 0.89620  0.62060  0.88780  Biso   1.000  H
  H77      1.0000 0.39620  0.62060  0.61220  Biso   1.000  H
  H78      1.0000 0.89620  0.87940  0.38780  Biso   1.000  H
  H79      1.0000 0.60380  0.12060  0.88780  Biso   1.000  H
  H80      1.0000 0.10380  0.37940  0.11220  Biso   1.000  H
  H81      1.0000 0.69390  0.43720  0.43920  Biso   1.000  H
  H82      1.0000 0.19390  0.06280  0.56080  Biso   1.000  H
  H83      1.0000 0.30610  0.93720  0.06080  Biso   1.000  H
  H84      1.0000 0.80610  0.56280  0.93920  Biso   1.000  H
  H85      1.0000 0.30610  0.56280  0.56080  Biso   1.000  H
  H86      1.0000 0.80610  0.93720  0.43920  Biso   1.000  H
  H87      1.0000 0.69390  0.06280  0.93920  Biso   1.000  H
  H88      1.0000 0.19390  0.43720  0.06080  Biso   1.000  H
  F1       1.0000 0.57360  0.03370  0.10340  Biso   1.000  F
  F2       1.0000 0.07360  0.46630  0.89660  Biso   1.000  F
  F3       1.0000 0.42640  0.53370  0.39660  Biso   1.000  F
  F4       1.0000 0.92640  0.96630  0.60340  Biso   1.000  F
  F5       1.0000 0.42640  0.96630  0.89660  Biso   1.000  F
  F6       1.0000 0.92640  0.53370  0.10340  Biso   1.000  F
  F7       1.0000 0.57360  0.46630  0.60340  Biso   1.000  F
  F8       1.0000 0.07360  0.03370  0.39660  Biso   1.000  F
  F9       1.0000 0.49740  0.06890  0.22500  Biso   1.000  F
  F10      1.0000 0.99740  0.43110  0.77500  Biso   1.000  F
  F11      1.0000 0.50260  0.56890  0.27500  Biso   1.000  F
  F12      1.0000 0.00260  0.93110  0.72500  Biso   1.000  F
  F13      1.0000 0.50260  0.93110  0.77500  Biso   1.000  F
  F14      1.0000 0.00260  0.56890  0.22500  Biso   1.000  F
  F15      1.0000 0.49740  0.43110  0.72500  Biso   1.000  F
  F16      1.0000 0.99740  0.06890  0.27500  Biso   1.000  F
  F17      1.0000 0.56400  0.22270  0.14840  Biso   1.000  F
  F18      1.0000 0.06400  0.27730  0.85160  Biso   1.000  F
  F19      1.0000 0.43600  0.72270  0.35160  Biso   1.000  F
  F20      1.0000 0.93600  0.77730  0.64840  Biso   1.000  F
  F21      1.0000 0.43600  0.77730  0.85160  Biso   1.000  F
  F22      1.0000 0.93600  0.72270  0.14840  Biso   1.000  F
  F23      1.0000 0.56400  0.27730  0.64840  Biso   1.000  F
  F24      1.0000 0.06400  0.22270  0.35160  Biso   1.000  F
  F25      1.0000 0.42780  0.13680  0.10840  Biso   1.000  F
  F26      1.0000 0.92780  0.36320  0.89160  Biso   1.000  F
  F27      1.0000 0.57220  0.63680  0.39160  Biso   1.000  F
  F28      1.0000 0.07220  0.86320  0.60840  Biso   1.000  F
  F29      1.0000 0.57220  0.86320  0.89160  Biso   1.000  F
  F30      1.0000 0.07220  0.63680  0.10840  Biso   1.000  F
  F31      1.0000 0.42780  0.36320  0.60840  Biso   1.000  F
  F32      1.0000 0.92780  0.13680  0.39160  Biso   1.000  F
  B1       1.0000 0.51730  0.11400  0.14720  Biso   1.000  B
  B2       1.0000 0.01730  0.38600  0.85280  Biso   1.000  B
  B3       1.0000 0.48270  0.61400  0.35280  Biso   1.000  B
  B4       1.0000 0.98270  0.88600  0.64720  Biso   1.000  B
  B5       1.0000 0.48270  0.88600  0.85280  Biso   1.000  B
  B6       1.0000 0.98270  0.61400  0.14720  Biso   1.000  B
  B7       1.0000 0.51730  0.38600  0.64720  Biso   1.000  B
  B8       1.0000 0.01730  0.11400  0.35280  Biso   1.000  B
  F33      1.0000 0.50050  0.04080  0.20950  Biso   1.000  F
  F34      1.0000 0.00050  0.45920  0.79050  Biso   1.000  F
  F35      1.0000 0.49950  0.54080  0.29050  Biso   1.000  F
  F36      1.0000 0.99950  0.95920  0.70950  Biso   1.000  F
  F37      1.0000 0.49950  0.95920  0.79050  Biso   1.000  F
  F38      1.0000 0.99950  0.54080  0.20950  Biso   1.000  F
  F39      1.0000 0.50050  0.45920  0.70950  Biso   1.000  F
  F40      1.0000 0.00050  0.04080  0.29050  Biso   1.000  F
  F41      1.0000 0.55700  0.20770  0.18580  Biso   1.000  F
  F42      1.0000 0.05700  0.29230  0.81420  Biso   1.000  F
  F43      1.0000 0.44300  0.70770  0.31420  Biso   1.000  F
  F44      1.0000 0.94300  0.79230  0.68580  Biso   1.000  F
  F45      1.0000 0.44300  0.79230  0.81420  Biso   1.000  F
  F46      1.0000 0.94300  0.70770  0.18580  Biso   1.000  F
  F47      1.0000 0.55700  0.29230  0.68580  Biso   1.000  F
  F48      1.0000 0.05700  0.20770  0.31420  Biso   1.000  F
  F49      1.0000 0.58110  0.06300  0.09910  Biso   1.000  F
  F50      1.0000 0.08110  0.43700  0.90090  Biso   1.000  F
  F51      1.0000 0.41890  0.56300  0.40090  Biso   1.000  F
  F52      1.0000 0.91890  0.93700  0.59910  Biso   1.000  F
  F53      1.0000 0.41890  0.93700  0.90090  Biso   1.000  F
  F54      1.0000 0.91890  0.56300  0.09910  Biso   1.000  F
  F55      1.0000 0.58110  0.43700  0.59910  Biso   1.000  F
  F56      1.0000 0.08110  0.06300  0.40090  Biso   1.000  F
