data_image0
_cell_length_a       9.1707
_cell_length_b       13.6639
_cell_length_c       9.4543
_cell_angle_alpha    90
_cell_angle_beta     105.555
_cell_angle_gamma    90

_symmetry_space_group_name_H-M    "P 1"
_symmetry_int_tables_number       1

loop_
  _symmetry_equiv_pos_as_xyz
  'x, y, z'

loop_
  _atom_site_label
  _atom_site_occupancy
  _atom_site_fract_x
  _atom_site_fract_y
  _atom_site_fract_z
  _atom_site_thermal_displace_type
  _atom_site_B_iso_or_equiv
  _atom_site_type_symbol
  Cu1      1.0000 0.50025  0.28388  0.73178  Biso   1.000  Cu
  Cu2      1.0000 0.50025  0.71612  0.23178  Biso   1.000  Cu
  Cu3      1.0000 0.00025  0.78388  0.73178  Biso   1.000  Cu
  Cu4      1.0000 0.00025  0.21612  0.23178  Biso   1.000  Cu
  S1       1.0000 0.50430  0.52645  0.71730  Biso   1.000  S
  S2       1.0000 0.50430  0.47355  0.21730  Biso   1.000  S
  S3       1.0000 0.00430  0.02645  0.71730  Biso   1.000  S
  S4       1.0000 0.00430  0.97355  0.21730  Biso   1.000  S
  O1       1.0000 0.37230  0.51570  0.57150  Biso   1.000  O
  O2       1.0000 0.37230  0.48430  0.07150  Biso   1.000  O
  O3       1.0000 0.87230  0.01570  0.57150  Biso   1.000  O
  O4       1.0000 0.87230  0.98430  0.07150  Biso   1.000  O
  H1       1.0000 0.41170  0.49150  0.49450  Biso   1.000  H
  H2       1.0000 0.41170  0.50850  0.99450  Biso   1.000  H
  H3       1.0000 0.91170  0.99150  0.49450  Biso   1.000  H
  H4       1.0000 0.91170  0.00850  0.99450  Biso   1.000  H
  O5       1.0000 0.60820  0.59700  0.68740  Biso   1.000  O
  O6       1.0000 0.60820  0.40300  0.18740  Biso   1.000  O
  O7       1.0000 0.10820  0.09700  0.68740  Biso   1.000  O
  O8       1.0000 0.10820  0.90300  0.18740  Biso   1.000  O
  O9       1.0000 0.42460  0.55380  0.82170  Biso   1.000  O
  O10      1.0000 0.42460  0.44620  0.32170  Biso   1.000  O
  O11      1.0000 0.92460  0.05380  0.82170  Biso   1.000  O
  O12      1.0000 0.92460  0.94620  0.32170  Biso   1.000  O
  O13      1.0000 0.57410  0.43070  0.74460  Biso   1.000  O
  O14      1.0000 0.57410  0.56930  0.24460  Biso   1.000  O
  O15      1.0000 0.07410  0.93070  0.74460  Biso   1.000  O
  O16      1.0000 0.07410  0.06930  0.24460  Biso   1.000  O
  N1       1.0000 0.26810  0.29260  0.64340  Biso   1.000  N
  N2       1.0000 0.26810  0.70740  0.14340  Biso   1.000  N
  N3       1.0000 0.76810  0.79260  0.64340  Biso   1.000  N
  N4       1.0000 0.76810  0.20740  0.14340  Biso   1.000  N
  N5       1.0000 0.23020  0.24770  0.51410  Biso   1.000  N
  N6       1.0000 0.23020  0.75230  0.01410  Biso   1.000  N
  N7       1.0000 0.73020  0.74770  0.51410  Biso   1.000  N
  N8       1.0000 0.73020  0.25230  0.01410  Biso   1.000  N
  N9       1.0000 0.08680  0.25980  0.43610  Biso   1.000  N
  N10      1.0000 0.08680  0.74020  0.93610  Biso   1.000  N
  N11      1.0000 0.58680  0.75980  0.43610  Biso   1.000  N
  N12      1.0000 0.58680  0.24020  0.93610  Biso   1.000  N
  C1       1.0000 0.13970  0.34080  0.65110  Biso   1.000  C
  C2       1.0000 0.13970  0.65920  0.15110  Biso   1.000  C
  C3       1.0000 0.63970  0.84080  0.65110  Biso   1.000  C
  C4       1.0000 0.63970  0.15920  0.15110  Biso   1.000  C
  C5       1.0000 0.11260  0.40330  0.75780  Biso   1.000  C
  C6       1.0000 0.11260  0.59670  0.25780  Biso   1.000  C
  C7       1.0000 0.61260  0.90330  0.75780  Biso   1.000  C
  C8       1.0000 0.61260  0.09670  0.25780  Biso   1.000  C
  H5       1.0000 0.18570  0.41740  0.84460  Biso   1.000  H
  H6       1.0000 0.18570  0.58260  0.34460  Biso   1.000  H
  H7       1.0000 0.68570  0.91740  0.84460  Biso   1.000  H
  H8       1.0000 0.68570  0.08260  0.34460  Biso   1.000  H
  C9       1.0000 0.97140  0.44180  0.72520  Biso   1.000  C
  C10      1.0000 0.97140  0.55820  0.22520  Biso   1.000  C
  C11      1.0000 0.47140  0.94180  0.72520  Biso   1.000  C
  C12      1.0000 0.47140  0.05820  0.22520  Biso   1.000  C
  H9       1.0000 0.94840  0.48440  0.79290  Biso   1.000  H
  H10      1.0000 0.94840  0.51560  0.29290  Biso   1.000  H
  H11      1.0000 0.44840  0.98440  0.79290  Biso   1.000  H
  H12      1.0000 0.44840  0.01560  0.29290  Biso   1.000  H
  C13      1.0000 0.85610  0.42150  0.59460  Biso   1.000  C
  C14      1.0000 0.85610  0.57850  0.09460  Biso   1.000  C
  C15      1.0000 0.35610  0.92150  0.59460  Biso   1.000  C
  C16      1.0000 0.35610  0.07850  0.09460  Biso   1.000  C
  H13      1.0000 0.76160  0.45080  0.58010  Biso   1.000  H
  H14      1.0000 0.76160  0.54920  0.08010  Biso   1.000  H
  H15      1.0000 0.26160  0.95080  0.58010  Biso   1.000  H
  H16      1.0000 0.26160  0.04920  0.08010  Biso   1.000  H
  C17      1.0000 0.88120  0.36050  0.49120  Biso   1.000  C
  C18      1.0000 0.88120  0.63950  0.99120  Biso   1.000  C
  C19      1.0000 0.38120  0.86050  0.49120  Biso   1.000  C
  C20      1.0000 0.38120  0.13950  0.99120  Biso   1.000  C
  H17      1.0000 0.80650  0.34640  0.40550  Biso   1.000  H
  H18      1.0000 0.80650  0.65360  0.90550  Biso   1.000  H
  H19      1.0000 0.30650  0.84640  0.40550  Biso   1.000  H
  H20      1.0000 0.30650  0.15360  0.90550  Biso   1.000  H
  C21      1.0000 0.02670  0.31960  0.52080  Biso   1.000  C
  C22      1.0000 0.02670  0.68040  0.02080  Biso   1.000  C
  C23      1.0000 0.52670  0.81960  0.52080  Biso   1.000  C
  C24      1.0000 0.52670  0.18040  0.02080  Biso   1.000  C
  C25      1.0000 0.34150  0.18660  0.47090  Biso   1.000  C
  C26      1.0000 0.34150  0.81340  0.97090  Biso   1.000  C
  C27      1.0000 0.84150  0.68660  0.47090  Biso   1.000  C
  C28      1.0000 0.84150  0.31340  0.97090  Biso   1.000  C
  H21      1.0000 0.31150  0.17730  0.36530  Biso   1.000  H
  H22      1.0000 0.31150  0.82270  0.86530  Biso   1.000  H
  H23      1.0000 0.81150  0.67730  0.36530  Biso   1.000  H
  H24      1.0000 0.81150  0.32270  0.86530  Biso   1.000  H
  H25      1.0000 0.34620  0.12290  0.51710  Biso   1.000  H
  H26      1.0000 0.34620  0.87710  0.01710  Biso   1.000  H
  H27      1.0000 0.84620  0.62290  0.51710  Biso   1.000  H
  H28      1.0000 0.84620  0.37710  0.01710  Biso   1.000  H
  C29      1.0000 0.49460  0.23440  0.51620  Biso   1.000  C
  C30      1.0000 0.49460  0.76560  0.01620  Biso   1.000  C
  C31      1.0000 0.99460  0.73440  0.51620  Biso   1.000  C
  C32      1.0000 0.99460  0.26560  0.01620  Biso   1.000  C
  H29      1.0000 0.50820  0.29560  0.47880  Biso   1.000  H
  H30      1.0000 0.50820  0.70440  0.97880  Biso   1.000  H
  H31      1.0000 0.00820  0.79560  0.47880  Biso   1.000  H
  H32      1.0000 0.00820  0.20440  0.97880  Biso   1.000  H
  C33      1.0000 0.61380  0.18920  0.61130  Biso   1.000  C
  C34      1.0000 0.61380  0.81080  0.11130  Biso   1.000  C
  C35      1.0000 0.11380  0.68920  0.61130  Biso   1.000  C
  C36      1.0000 0.11380  0.31080  0.11130  Biso   1.000  C
  H33      1.0000 0.60110  0.12790  0.64910  Biso   1.000  H
  H34      1.0000 0.60110  0.87210  0.14910  Biso   1.000  H
  H35      1.0000 0.10110  0.62790  0.64910  Biso   1.000  H
  H36      1.0000 0.10110  0.37210  0.14910  Biso   1.000  H
  H37      1.0000 0.70790  0.21970  0.63830  Biso   1.000  H
  H38      1.0000 0.70790  0.78030  0.13830  Biso   1.000  H
  H39      1.0000 0.20790  0.71970  0.63830  Biso   1.000  H
  H40      1.0000 0.20790  0.28030  0.13830  Biso   1.000  H
