data_image0
_cell_length_a       9.4172
_cell_length_b       10.288
_cell_length_c       13.7047
_cell_angle_alpha    78.723
_cell_angle_beta     83.849
_cell_angle_gamma    65.05

_symmetry_space_group_name_H-M    "P 1"
_symmetry_int_tables_number       1

loop_
  _symmetry_equiv_pos_as_xyz
  'x, y, z'

loop_
  _atom_site_label
  _atom_site_occupancy
  _atom_site_fract_x
  _atom_site_fract_y
  _atom_site_fract_z
  _atom_site_thermal_displace_type
  _atom_site_B_iso_or_equiv
  _atom_site_type_symbol
  Cu1      1.0000 0.69655  0.31396  0.11607  Biso   1.000  Cu
  Cu2      1.0000 0.30345  0.68604  0.88393  Biso   1.000  Cu
  Cu3      1.0000 0.39058  0.52011  0.06858  Biso   1.000  Cu
  Cu4      1.0000 0.60942  0.47989  0.93142  Biso   1.000  Cu
  I1       1.0000 0.63409  0.59597  0.09518  Biso   1.000  I
  I2       1.0000 0.36591  0.40403  0.90482  Biso   1.000  I
  I3       1.0000 0.84255  0.22619  0.94723  Biso   1.000  I
  I4       1.0000 0.15745  0.77381  0.05277  Biso   1.000  I
  S1       1.0000 0.45310  0.32036  0.19608  Biso   1.000  S
  S2       1.0000 0.54690  0.67964  0.80392  Biso   1.000  S
  S3       1.0000 0.90169  0.19631  0.22767  Biso   1.000  S
  S4       1.0000 0.09831  0.80369  0.77233  Biso   1.000  S
  N1       1.0000 0.49150  0.05840  0.14810  Biso   1.000  N
  N2       1.0000 0.50850  0.94160  0.85190  Biso   1.000  N
  N3       1.0000 0.25350  0.22270  0.13130  Biso   1.000  N
  N4       1.0000 0.74650  0.77730  0.86870  Biso   1.000  N
  N5       1.0000 0.03130  0.39270  0.21680  Biso   1.000  N
  N6       1.0000 0.96870  0.60730  0.78320  Biso   1.000  N
  N7       1.0000 0.84190  0.42280  0.32680  Biso   1.000  N
  N8       1.0000 0.15810  0.57720  0.67320  Biso   1.000  N
  C1       1.0000 0.39780  0.19870  0.15850  Biso   1.000  C
  C2       1.0000 0.60220  0.80130  0.84150  Biso   1.000  C
  C3       1.0000 0.40520  0.99840  0.11380  Biso   1.000  C
  C4       1.0000 0.59480  0.00160  0.88620  Biso   1.000  C
  H1       1.0000 0.44360  0.90220  0.10010  Biso   1.000  H
  H2       1.0000 0.55640  0.09780  0.89990  Biso   1.000  H
  C5       1.0000 0.25640  0.09940  0.10290  Biso   1.000  C
  C6       1.0000 0.74360  0.90060  0.89710  Biso   1.000  C
  H3       1.0000 0.17080  0.08830  0.08030  Biso   1.000  H
  H4       1.0000 0.82920  0.91170  0.91970  Biso   1.000  H
  C7       1.0000 0.11610  0.36020  0.12290  Biso   1.000  C
  C8       1.0000 0.88390  0.63980  0.87710  Biso   1.000  C
  H5       1.0000 0.04370  0.35900  0.07610  Biso   1.000  H
  H6       1.0000 0.95630  0.64100  0.92390  Biso   1.000  H
  H7       1.0000 0.14910  0.43950  0.09390  Biso   1.000  H
  H8       1.0000 0.85090  0.56050  0.90610  Biso   1.000  H
  C9       1.0000 0.92410  0.33900  0.25770  Biso   1.000  C
  C10      1.0000 0.07590  0.66100  0.74230  Biso   1.000  C
  C11      1.0000 0.01240  0.50900  0.26100  Biso   1.000  C
  C12      1.0000 0.98760  0.49100  0.73900  Biso   1.000  C
  H9       1.0000 0.07080  0.56670  0.24490  Biso   1.000  H
  H10      1.0000 0.92920  0.43330  0.75510  Biso   1.000  H
  C13      1.0000 0.89770  0.52600  0.33050  Biso   1.000  C
  C14      1.0000 0.10230  0.47400  0.66950  Biso   1.000  C
  H11      1.0000 0.86170  0.59570  0.37400  Biso   1.000  H
  H12      1.0000 0.13830  0.40430  0.62600  Biso   1.000  H
  C15      1.0000 0.65590  0.98070  0.17620  Biso   1.000  C
  C16      1.0000 0.34410  0.01930  0.82380  Biso   1.000  C
  H13      1.0000 0.70920  0.04700  0.15570  Biso   1.000  H
  H14      1.0000 0.29080  0.95300  0.84430  Biso   1.000  H
  H15      1.0000 0.70750  0.89800  0.13940  Biso   1.000  H
  H16      1.0000 0.29250  0.10200  0.86060  Biso   1.000  H
  C17      1.0000 0.67690  0.92320  0.28760  Biso   1.000  C
  C18      1.0000 0.32310  0.07680  0.71240  Biso   1.000  C
  C19      1.0000 0.81970  0.88770  0.32760  Biso   1.000  C
  C20      1.0000 0.18030  0.11230  0.67240  Biso   1.000  C
  H17      1.0000 0.90070  0.90250  0.28590  Biso   1.000  H
  H18      1.0000 0.09930  0.09750  0.71410  Biso   1.000  H
  C21      1.0000 0.84650  0.83120  0.42710  Biso   1.000  C
  C22      1.0000 0.15350  0.16880  0.57290  Biso   1.000  C
  H19      1.0000 0.94520  0.80800  0.45360  Biso   1.000  H
  H20      1.0000 0.05480  0.19200  0.54640  Biso   1.000  H
  C23      1.0000 0.72830  0.80820  0.48910  Biso   1.000  C
  C24      1.0000 0.27170  0.19180  0.51090  Biso   1.000  C
  H21      1.0000 0.74570  0.76910  0.55780  Biso   1.000  H
  H22      1.0000 0.25430  0.23090  0.44220  Biso   1.000  H
  C25      1.0000 0.58490  0.84350  0.44850  Biso   1.000  C
  C26      1.0000 0.41510  0.15650  0.55150  Biso   1.000  C
  H23      1.0000 0.50350  0.82890  0.48990  Biso   1.000  H
  H24      1.0000 0.49650  0.17110  0.51010  Biso   1.000  H
  C27      1.0000 0.55920  0.89950  0.34890  Biso   1.000  C
  C28      1.0000 0.44080  0.10050  0.65110  Biso   1.000  C
  H25      1.0000 0.46110  0.92200  0.32190  Biso   1.000  H
  H26      1.0000 0.53890  0.07800  0.67810  Biso   1.000  H
  C29      1.0000 0.69930  0.41750  0.38030  Biso   1.000  C
  C30      1.0000 0.30070  0.58250  0.61970  Biso   1.000  C
  H27      1.0000 0.65340  0.37290  0.34220  Biso   1.000  H
  H28      1.0000 0.34660  0.62710  0.65780  Biso   1.000  H
  H29      1.0000 0.62160  0.51810  0.38340  Biso   1.000  H
  H30      1.0000 0.37840  0.48190  0.61660  Biso   1.000  H
  C31      1.0000 0.72880  0.33350  0.48370  Biso   1.000  C
  C32      1.0000 0.27120  0.66650  0.51630  Biso   1.000  C
  C33      1.0000 0.78660  0.18040  0.49940  Biso   1.000  C
  C34      1.0000 0.21340  0.81960  0.50060  Biso   1.000  C
  H31      1.0000 0.80670  0.13090  0.44440  Biso   1.000  H
  H32      1.0000 0.19330  0.86910  0.55560  Biso   1.000  H
  C35      1.0000 0.81400  0.10230  0.59560  Biso   1.000  C
  C36      1.0000 0.18600  0.89770  0.40440  Biso   1.000  C
  H33      1.0000 0.85450  0.99910  0.60610  Biso   1.000  H
  H34      1.0000 0.14550  0.00090  0.39390  Biso   1.000  H
  C37      1.0000 0.78240  0.17460  0.67630  Biso   1.000  C
  C38      1.0000 0.21760  0.82540  0.32370  Biso   1.000  C
  H35      1.0000 0.80020  0.12130  0.74210  Biso   1.000  H
  H36      1.0000 0.19980  0.87870  0.25790  Biso   1.000  H
  C39      1.0000 0.72420  0.32600  0.66020  Biso   1.000  C
  C40      1.0000 0.27580  0.67400  0.33980  Biso   1.000  C
  H37      1.0000 0.70170  0.37580  0.71530  Biso   1.000  H
  H38      1.0000 0.29830  0.62420  0.28470  Biso   1.000  H
  C41      1.0000 0.69930  0.40360  0.56510  Biso   1.000  C
  C42      1.0000 0.30070  0.59640  0.43490  Biso   1.000  C
  H39      1.0000 0.66150  0.50660  0.55500  Biso   1.000  H
  H40      1.0000 0.33850  0.49340  0.44500  Biso   1.000  H
