data_image0
_cell_length_a       9.963
_cell_length_b       10.059
_cell_length_c       10.882
_cell_angle_alpha    96.1
_cell_angle_beta     105.62
_cell_angle_gamma    90.31

_symmetry_space_group_name_H-M    "P 1"
_symmetry_int_tables_number       1

loop_
  _symmetry_equiv_pos_as_xyz
  'x, y, z'

loop_
  _atom_site_label
  _atom_site_occupancy
  _atom_site_fract_x
  _atom_site_fract_y
  _atom_site_fract_z
  _atom_site_thermal_displace_type
  _atom_site_B_iso_or_equiv
  _atom_site_type_symbol
  I1       1.0000 0.42809  0.86715  0.81456  Biso   1.000  I
  I2       1.0000 0.57191  0.13285  0.18544  Biso   1.000  I
  Cu1      1.0000 0.37828  0.96664  0.02856  Biso   1.000  Cu
  Cu2      1.0000 0.62172  0.03336  0.97144  Biso   1.000  Cu
  N1       1.0000 0.34920  0.82550  0.13420  Biso   1.000  N
  N2       1.0000 0.65080  0.17450  0.86580  Biso   1.000  N
  C1       1.0000 0.33720  0.74950  0.20090  Biso   1.000  C
  C2       1.0000 0.66280  0.25050  0.79910  Biso   1.000  C
  C3       1.0000 0.32210  0.65390  0.28440  Biso   1.000  C
  C4       1.0000 0.67790  0.34610  0.71560  Biso   1.000  C
  C5       1.0000 0.32020  0.51900  0.24230  Biso   1.000  C
  C6       1.0000 0.67980  0.48100  0.75770  Biso   1.000  C
  H1       1.0000 0.32600  0.49080  0.15980  Biso   1.000  H
  H2       1.0000 0.67400  0.50920  0.84020  Biso   1.000  H
  C7       1.0000 0.30930  0.42670  0.32530  Biso   1.000  C
  C8       1.0000 0.69070  0.57330  0.67470  Biso   1.000  C
  H3       1.0000 0.30750  0.33560  0.29860  Biso   1.000  H
  H4       1.0000 0.69250  0.66440  0.70140  Biso   1.000  H
  C9       1.0000 0.30120  0.46910  0.44510  Biso   1.000  C
  C10      1.0000 0.69880  0.53090  0.55490  Biso   1.000  C
  H5       1.0000 0.29130  0.40670  0.49950  Biso   1.000  H
  H6       1.0000 0.70870  0.59330  0.50050  Biso   1.000  H
  C11      1.0000 0.30740  0.60060  0.48650  Biso   1.000  C
  C12      1.0000 0.69260  0.39940  0.51350  Biso   1.000  C
  H7       1.0000 0.30980  0.62810  0.57140  Biso   1.000  H
  H8       1.0000 0.69020  0.37190  0.42860  Biso   1.000  H
  C13      1.0000 0.31010  0.69430  0.40390  Biso   1.000  C
  C14      1.0000 0.68990  0.30570  0.59610  Biso   1.000  C
  H9       1.0000 0.30380  0.78460  0.42970  Biso   1.000  H
  H10      1.0000 0.69620  0.21540  0.57030  Biso   1.000  H
  As1      1.0000 0.81112  0.88816  0.01625  Biso   1.000  As
  As2      1.0000 0.18888  0.11184  0.98375  Biso   1.000  As
  As3      1.0000 0.98241  0.12994  0.16853  Biso   1.000  As
  As4      1.0000 0.01759  0.87006  0.83147  Biso   1.000  As
  O1       1.0000 0.97110  0.95160  0.12650  Biso   1.000  O
  O2       1.0000 0.02890  0.04840  0.87350  Biso   1.000  O
  O3       1.0000 0.13110  0.16540  0.11830  Biso   1.000  O
  O4       1.0000 0.86890  0.83460  0.88170  Biso   1.000  O
  C15      1.0000 0.80450  0.71530  0.07750  Biso   1.000  C
  C16      1.0000 0.19550  0.28470  0.92250  Biso   1.000  C
  C17      1.0000 0.67990  0.66600  0.08920  Biso   1.000  C
  C18      1.0000 0.32010  0.33400  0.91080  Biso   1.000  C
  H11      1.0000 0.59980  0.71530  0.06830  Biso   1.000  H
  H12      1.0000 0.40020  0.28470  0.93170  Biso   1.000  H
  C19      1.0000 0.67550  0.54190  0.13270  Biso   1.000  C
  C20      1.0000 0.32450  0.45810  0.86730  Biso   1.000  C
  H13      1.0000 0.59220  0.50910  0.14300  Biso   1.000  H
  H14      1.0000 0.40780  0.49090  0.85700  Biso   1.000  H
  C21      1.0000 0.79100  0.46730  0.16050  Biso   1.000  C
  C22      1.0000 0.20900  0.53270  0.83950  Biso   1.000  C
  H15      1.0000 0.78610  0.38290  0.18680  Biso   1.000  H
  H16      1.0000 0.21390  0.61710  0.81320  Biso   1.000  H
  C23      1.0000 0.91350  0.51750  0.14930  Biso   1.000  C
  C24      1.0000 0.08650  0.48250  0.85070  Biso   1.000  C
  H17      1.0000 0.99360  0.46830  0.17130  Biso   1.000  H
  H18      1.0000 0.00640  0.53170  0.82870  Biso   1.000  H
  C25      1.0000 0.92040  0.64130  0.10550  Biso   1.000  C
  C26      1.0000 0.07960  0.35870  0.89450  Biso   1.000  C
  H19      1.0000 0.00400  0.67350  0.09540  Biso   1.000  H
  H20      1.0000 0.99600  0.32650  0.90460  Biso   1.000  H
  C27      1.0000 0.91440  0.87230  0.65390  Biso   1.000  C
  C28      1.0000 0.08560  0.12770  0.34610  Biso   1.000  C
  C29      1.0000 0.78310  0.91620  0.61850  Biso   1.000  C
  C30      1.0000 0.21690  0.08380  0.38150  Biso   1.000  C
  H21      1.0000 0.73850  0.94740  0.68020  Biso   1.000  H
  H22      1.0000 0.26150  0.05260  0.31980  Biso   1.000  H
  C31      1.0000 0.71550  0.91420  0.48840  Biso   1.000  C
  C32      1.0000 0.28450  0.08580  0.51160  Biso   1.000  C
  H23      1.0000 0.62530  0.94450  0.46260  Biso   1.000  H
  H24      1.0000 0.37470  0.05550  0.53740  Biso   1.000  H
  C33      1.0000 0.78010  0.86880  0.40150  Biso   1.000  C
  C34      1.0000 0.21990  0.13120  0.59850  Biso   1.000  C
  H25      1.0000 0.73490  0.87120  0.31510  Biso   1.000  H
  H26      1.0000 0.26510  0.12880  0.68490  Biso   1.000  H
  C35      1.0000 0.90200  0.82190  0.43180  Biso   1.000  C
  C36      1.0000 0.09800  0.17810  0.56820  Biso   1.000  C
  H27      1.0000 0.93990  0.78520  0.36690  Biso   1.000  H
  H28      1.0000 0.06010  0.21480  0.63310  Biso   1.000  H
  C37      1.0000 0.98250  0.82420  0.56350  Biso   1.000  C
  C38      1.0000 0.01750  0.17580  0.43650  Biso   1.000  C
  H29      1.0000 0.07360  0.79550  0.58640  Biso   1.000  H
  H30      1.0000 0.92640  0.20450  0.41360  Biso   1.000  H
