data_image0
_cell_length_a       19.2555
_cell_length_b       6.7405
_cell_length_c       7.8354
_cell_angle_alpha    90
_cell_angle_beta     97.144
_cell_angle_gamma    90

_symmetry_space_group_name_H-M    "P 1"
_symmetry_int_tables_number       1

loop_
  _symmetry_equiv_pos_as_xyz
  'x, y, z'

loop_
  _atom_site_label
  _atom_site_occupancy
  _atom_site_fract_x
  _atom_site_fract_y
  _atom_site_fract_z
  _atom_site_thermal_displace_type
  _atom_site_B_iso_or_equiv
  _atom_site_type_symbol
  Mo1      1.0000 0.19207  0.00000  0.57330  Biso   1.000  Mo
  Mo2      1.0000 0.80793  0.00000  0.42670  Biso   1.000  Mo
  Mo3      1.0000 0.69207  0.50000  0.57330  Biso   1.000  Mo
  Mo4      1.0000 0.30793  0.50000  0.42670  Biso   1.000  Mo
  Mo5      1.0000 0.16822  0.50000  0.67870  Biso   1.000  Mo
  Mo6      1.0000 0.83178  0.50000  0.32130  Biso   1.000  Mo
  Mo7      1.0000 0.66822  0.00000  0.67870  Biso   1.000  Mo
  Mo8      1.0000 0.33178  0.00000  0.32130  Biso   1.000  Mo
  Cu1      1.0000 0.25000  0.75000  0.00000  Biso   1.000  Cu
  Cu2      1.0000 0.75000  0.75000  0.00000  Biso   1.000  Cu
  Cu3      1.0000 0.75000  0.25000  0.00000  Biso   1.000  Cu
  Cu4      1.0000 0.25000  0.25000  0.00000  Biso   1.000  Cu
  O1       1.0000 0.25900  0.50000  0.88760  Biso   1.000  O
  O2       1.0000 0.74100  0.50000  0.11240  Biso   1.000  O
  O3       1.0000 0.75900  0.00000  0.88760  Biso   1.000  O
  O4       1.0000 0.24100  0.00000  0.11240  Biso   1.000  O
  O5       1.0000 0.17550  0.21390  0.69890  Biso   1.000  O
  O6       1.0000 0.82450  0.21390  0.30110  Biso   1.000  O
  O7       1.0000 0.67550  0.71390  0.69890  Biso   1.000  O
  O8       1.0000 0.32450  0.71390  0.30110  Biso   1.000  O
  O9       1.0000 0.82450  0.78610  0.30110  Biso   1.000  O
  O10      1.0000 0.17550  0.78610  0.69890  Biso   1.000  O
  O11      1.0000 0.32450  0.28610  0.30110  Biso   1.000  O
  O12      1.0000 0.67550  0.28610  0.69890  Biso   1.000  O
  O13      1.0000 0.83520  0.66570  0.90650  Biso   1.000  O
  O14      1.0000 0.16480  0.66570  0.09350  Biso   1.000  O
  O15      1.0000 0.33520  0.16570  0.90650  Biso   1.000  O
  O16      1.0000 0.66480  0.16570  0.09350  Biso   1.000  O
  O17      1.0000 0.16480  0.33430  0.09350  Biso   1.000  O
  O18      1.0000 0.83520  0.33430  0.90650  Biso   1.000  O
  O19      1.0000 0.66480  0.83430  0.09350  Biso   1.000  O
  O20      1.0000 0.33520  0.83430  0.90650  Biso   1.000  O
  O21      1.0000 0.27880  0.00000  0.52660  Biso   1.000  O
  O22      1.0000 0.72120  0.00000  0.47340  Biso   1.000  O
  O23      1.0000 0.77880  0.50000  0.52660  Biso   1.000  O
  O24      1.0000 0.22120  0.50000  0.47340  Biso   1.000  O
  N1       1.0000 0.06580  0.50000  0.72190  Biso   1.000  N
  N2       1.0000 0.93420  0.50000  0.27810  Biso   1.000  N
  N3       1.0000 0.56580  0.00000  0.72190  Biso   1.000  N
  N4       1.0000 0.43420  0.00000  0.27810  Biso   1.000  N
  C1       1.0000 0.85980  0.50000  0.87940  Biso   1.000  C
  C2       1.0000 0.14020  0.50000  0.12060  Biso   1.000  C
  C3       1.0000 0.35980  0.00000  0.87940  Biso   1.000  C
  C4       1.0000 0.64020  0.00000  0.12060  Biso   1.000  C
  O25      1.0000 0.13910  0.00000  0.38250  Biso   1.000  O
  O26      1.0000 0.86090  0.00000  0.61750  Biso   1.000  O
  O27      1.0000 0.63910  0.50000  0.38250  Biso   1.000  O
  O28      1.0000 0.36090  0.50000  0.61750  Biso   1.000  O
  C5       1.0000 0.03200  0.66850  0.74200  Biso   1.000  C
  C6       1.0000 0.96800  0.66850  0.25800  Biso   1.000  C
  C7       1.0000 0.53200  0.16850  0.74200  Biso   1.000  C
  C8       1.0000 0.46800  0.16850  0.25800  Biso   1.000  C
  C9       1.0000 0.96800  0.33150  0.25800  Biso   1.000  C
  C10      1.0000 0.03200  0.33150  0.74200  Biso   1.000  C
  C11      1.0000 0.46800  0.83150  0.25800  Biso   1.000  C
  C12      1.0000 0.53200  0.83150  0.74200  Biso   1.000  C
  H1       1.0000 0.05450  0.78770  0.72540  Biso   1.000  H
  H2       1.0000 0.94550  0.78770  0.27460  Biso   1.000  H
  H3       1.0000 0.55450  0.28770  0.72540  Biso   1.000  H
  H4       1.0000 0.44550  0.28770  0.27460  Biso   1.000  H
  H5       1.0000 0.94550  0.21230  0.27460  Biso   1.000  H
  H6       1.0000 0.05450  0.21230  0.72540  Biso   1.000  H
  H7       1.0000 0.44550  0.71230  0.27460  Biso   1.000  H
  H8       1.0000 0.55450  0.71230  0.72540  Biso   1.000  H
  C13      1.0000 0.93110  0.50000  0.81270  Biso   1.000  C
  C14      1.0000 0.06890  0.50000  0.18730  Biso   1.000  C
  C15      1.0000 0.43110  0.00000  0.81270  Biso   1.000  C
  C16      1.0000 0.56890  0.00000  0.18730  Biso   1.000  C
  C17      1.0000 0.96460  0.67420  0.78660  Biso   1.000  C
  C18      1.0000 0.03540  0.67420  0.21340  Biso   1.000  C
  C19      1.0000 0.46460  0.17420  0.78660  Biso   1.000  C
  C20      1.0000 0.53540  0.17420  0.21340  Biso   1.000  C
  C21      1.0000 0.03540  0.32580  0.21340  Biso   1.000  C
  C22      1.0000 0.96460  0.32580  0.78660  Biso   1.000  C
  C23      1.0000 0.53540  0.82580  0.21340  Biso   1.000  C
  C24      1.0000 0.46460  0.82580  0.78660  Biso   1.000  C
  H9       1.0000 0.94250  0.79510  0.79860  Biso   1.000  H
  H10      1.0000 0.05750  0.79510  0.20140  Biso   1.000  H
  H11      1.0000 0.44250  0.29510  0.79860  Biso   1.000  H
  H12      1.0000 0.55750  0.29510  0.20140  Biso   1.000  H
  H13      1.0000 0.05750  0.20490  0.20140  Biso   1.000  H
  H14      1.0000 0.94250  0.20490  0.79860  Biso   1.000  H
  H15      1.0000 0.55750  0.70490  0.20140  Biso   1.000  H
  H16      1.0000 0.44250  0.70490  0.79860  Biso   1.000  H
