data_image0
_cell_length_a       15.1677
_cell_length_b       15.1677
_cell_length_c       24.4621
_cell_angle_alpha    90
_cell_angle_beta     90
_cell_angle_gamma    120

_symmetry_space_group_name_H-M    "P 1"
_symmetry_int_tables_number       1

loop_
  _symmetry_equiv_pos_as_xyz
  'x, y, z'

loop_
  _atom_site_label
  _atom_site_occupancy
  _atom_site_fract_x
  _atom_site_fract_y
  _atom_site_fract_z
  _atom_site_thermal_displace_type
  _atom_site_B_iso_or_equiv
  _atom_site_type_symbol
  Br1      1.0000 0.26100  0.76966  0.09862  Biso   1.000  Br
  Br2      1.0000 0.23034  0.49134  0.09862  Biso   1.000  Br
  Br3      1.0000 0.50866  0.73900  0.09862  Biso   1.000  Br
  Br4      1.0000 0.92767  0.10299  0.43195  Biso   1.000  Br
  Br5      1.0000 0.89701  0.82467  0.43195  Biso   1.000  Br
  Br6      1.0000 0.17533  0.07233  0.43195  Biso   1.000  Br
  Br7      1.0000 0.59433  0.43633  0.76529  Biso   1.000  Br
  Br8      1.0000 0.56367  0.15801  0.76529  Biso   1.000  Br
  Br9      1.0000 0.84199  0.40567  0.76529  Biso   1.000  Br
  Br10     1.0000 0.73900  0.23034  0.90138  Biso   1.000  Br
  Br11     1.0000 0.76966  0.50866  0.90138  Biso   1.000  Br
  Br12     1.0000 0.49134  0.26100  0.90138  Biso   1.000  Br
  Br13     1.0000 0.40567  0.56367  0.23471  Biso   1.000  Br
  Br14     1.0000 0.43633  0.84199  0.23471  Biso   1.000  Br
  Br15     1.0000 0.15801  0.59433  0.23471  Biso   1.000  Br
  Br16     1.0000 0.07233  0.89701  0.56805  Biso   1.000  Br
  Br17     1.0000 0.10299  0.17533  0.56805  Biso   1.000  Br
  Br18     1.0000 0.82467  0.92767  0.56805  Biso   1.000  Br
  Cu1      1.0000 0.14783  0.58812  0.13384  Biso   1.000  Cu
  Cu2      1.0000 0.41188  0.55971  0.13384  Biso   1.000  Cu
  Cu3      1.0000 0.44029  0.85217  0.13384  Biso   1.000  Cu
  Cu4      1.0000 0.81450  0.92145  0.46717  Biso   1.000  Cu
  Cu5      1.0000 0.07855  0.89304  0.46717  Biso   1.000  Cu
  Cu6      1.0000 0.10696  0.18550  0.46717  Biso   1.000  Cu
  Cu7      1.0000 0.48116  0.25479  0.80051  Biso   1.000  Cu
  Cu8      1.0000 0.74521  0.22638  0.80051  Biso   1.000  Cu
  Cu9      1.0000 0.77362  0.51884  0.80051  Biso   1.000  Cu
  Cu10     1.0000 0.85217  0.41188  0.86616  Biso   1.000  Cu
  Cu11     1.0000 0.58812  0.44029  0.86616  Biso   1.000  Cu
  Cu12     1.0000 0.55971  0.14783  0.86616  Biso   1.000  Cu
  Cu13     1.0000 0.51884  0.74521  0.19949  Biso   1.000  Cu
  Cu14     1.0000 0.25479  0.77362  0.19949  Biso   1.000  Cu
  Cu15     1.0000 0.22638  0.48116  0.19949  Biso   1.000  Cu
  Cu16     1.0000 0.18550  0.07855  0.53283  Biso   1.000  Cu
  Cu17     1.0000 0.92145  0.10696  0.53283  Biso   1.000  Cu
  Cu18     1.0000 0.89304  0.81450  0.53283  Biso   1.000  Cu
  N1       1.0000 0.00853  0.53646  0.09930  Biso   1.000  N
  N2       1.0000 0.46354  0.47207  0.09930  Biso   1.000  N
  N3       1.0000 0.52793  0.99147  0.09930  Biso   1.000  N
  N4       1.0000 0.67520  0.86979  0.43263  Biso   1.000  N
  N5       1.0000 0.13021  0.80540  0.43263  Biso   1.000  N
  N6       1.0000 0.19460  0.32480  0.43263  Biso   1.000  N
  N7       1.0000 0.34186  0.20313  0.76597  Biso   1.000  N
  N8       1.0000 0.79687  0.13874  0.76597  Biso   1.000  N
  N9       1.0000 0.86126  0.65814  0.76597  Biso   1.000  N
  N10      1.0000 0.99147  0.46354  0.90070  Biso   1.000  N
  N11      1.0000 0.53646  0.52793  0.90070  Biso   1.000  N
  N12      1.0000 0.47207  0.00853  0.90070  Biso   1.000  N
  N13      1.0000 0.65814  0.79687  0.23403  Biso   1.000  N
  N14      1.0000 0.20313  0.86126  0.23403  Biso   1.000  N
  N15      1.0000 0.13874  0.34186  0.23403  Biso   1.000  N
  N16      1.0000 0.32480  0.13021  0.56737  Biso   1.000  N
  N17      1.0000 0.86979  0.19460  0.56737  Biso   1.000  N
  N18      1.0000 0.80540  0.67520  0.56737  Biso   1.000  N
  C1       1.0000 0.77010  0.36094  0.21030  Biso   1.000  C
  C2       1.0000 0.63906  0.40916  0.21030  Biso   1.000  C
  C3       1.0000 0.59084  0.22990  0.21030  Biso   1.000  C
  C4       1.0000 0.43677  0.69427  0.54363  Biso   1.000  C
  C5       1.0000 0.30573  0.74249  0.54363  Biso   1.000  C
  C6       1.0000 0.25751  0.56323  0.54363  Biso   1.000  C
  C7       1.0000 0.10343  0.02761  0.87697  Biso   1.000  C
  C8       1.0000 0.97239  0.07583  0.87697  Biso   1.000  C
  C9       1.0000 0.92417  0.89657  0.87697  Biso   1.000  C
  C10      1.0000 0.22990  0.63906  0.78970  Biso   1.000  C
  C11      1.0000 0.36094  0.59084  0.78970  Biso   1.000  C
  C12      1.0000 0.40916  0.77010  0.78970  Biso   1.000  C
  C13      1.0000 0.89657  0.97239  0.12303  Biso   1.000  C
  C14      1.0000 0.02761  0.92417  0.12303  Biso   1.000  C
  C15      1.0000 0.07583  0.10343  0.12303  Biso   1.000  C
  C16      1.0000 0.56323  0.30573  0.45637  Biso   1.000  C
  C17      1.0000 0.69427  0.25751  0.45637  Biso   1.000  C
  C18      1.0000 0.74249  0.43677  0.45637  Biso   1.000  C
  C19      1.0000 0.69400  0.25735  0.21027  Biso   1.000  C
  C20      1.0000 0.74265  0.43665  0.21027  Biso   1.000  C
  C21      1.0000 0.56335  0.30600  0.21027  Biso   1.000  C
  C22      1.0000 0.36067  0.59068  0.54360  Biso   1.000  C
  C23      1.0000 0.40932  0.76998  0.54360  Biso   1.000  C
  C24      1.0000 0.23002  0.63933  0.54360  Biso   1.000  C
  C25      1.0000 0.02733  0.92402  0.87694  Biso   1.000  C
  C26      1.0000 0.07598  0.10332  0.87694  Biso   1.000  C
  C27      1.0000 0.89668  0.97267  0.87694  Biso   1.000  C
  C28      1.0000 0.30600  0.74265  0.78973  Biso   1.000  C
  C29      1.0000 0.25735  0.56335  0.78973  Biso   1.000  C
  C30      1.0000 0.43665  0.69400  0.78973  Biso   1.000  C
  C31      1.0000 0.97267  0.07598  0.12306  Biso   1.000  C
  C32      1.0000 0.92402  0.89668  0.12306  Biso   1.000  C
  C33      1.0000 0.10332  0.02733  0.12306  Biso   1.000  C
  C34      1.0000 0.63933  0.40932  0.45640  Biso   1.000  C
  C35      1.0000 0.59068  0.23002  0.45640  Biso   1.000  C
  C36      1.0000 0.76998  0.36067  0.45640  Biso   1.000  C
  C37      1.0000 0.72360  0.17540  0.21507  Biso   1.000  C
  C38      1.0000 0.82460  0.54820  0.21507  Biso   1.000  C
  C39      1.0000 0.45180  0.27640  0.21507  Biso   1.000  C
  C40      1.0000 0.39027  0.50873  0.54840  Biso   1.000  C
  C41      1.0000 0.49127  0.88153  0.54840  Biso   1.000  C
  C42      1.0000 0.11847  0.60973  0.54840  Biso   1.000  C
  C43      1.0000 0.05693  0.84207  0.88174  Biso   1.000  C
  C44      1.0000 0.15793  0.21487  0.88174  Biso   1.000  C
  C45      1.0000 0.78513  0.94307  0.88174  Biso   1.000  C
  C46      1.0000 0.27640  0.82460  0.78493  Biso   1.000  C
  C47      1.0000 0.17540  0.45180  0.78493  Biso   1.000  C
  C48      1.0000 0.54820  0.72360  0.78493  Biso   1.000  C
  C49      1.0000 0.94307  0.15793  0.11826  Biso   1.000  C
  C50      1.0000 0.84207  0.78513  0.11826  Biso   1.000  C
  C51      1.0000 0.21487  0.05693  0.11826  Biso   1.000  C
  C52      1.0000 0.60973  0.49127  0.45160  Biso   1.000  C
  C53      1.0000 0.50873  0.11847  0.45160  Biso   1.000  C
  C54      1.0000 0.88153  0.39027  0.45160  Biso   1.000  C
  C55      1.0000 0.72580  0.14530  0.27459  Biso   1.000  C
  C56      1.0000 0.85470  0.58050  0.27459  Biso   1.000  C
  C57      1.0000 0.41950  0.27420  0.27459  Biso   1.000  C
  C58      1.0000 0.39247  0.47863  0.60792  Biso   1.000  C
  C59      1.0000 0.52137  0.91383  0.60792  Biso   1.000  C
  C60      1.0000 0.08617  0.60753  0.60792  Biso   1.000  C
  C61      1.0000 0.05913  0.81197  0.94126  Biso   1.000  C
  C62      1.0000 0.18803  0.24717  0.94126  Biso   1.000  C
  C63      1.0000 0.75283  0.94087  0.94126  Biso   1.000  C
  C64      1.0000 0.27420  0.85470  0.72541  Biso   1.000  C
  C65      1.0000 0.14530  0.41950  0.72541  Biso   1.000  C
  C66      1.0000 0.58050  0.72580  0.72541  Biso   1.000  C
  C67      1.0000 0.94087  0.18803  0.05874  Biso   1.000  C
  C68      1.0000 0.81197  0.75283  0.05874  Biso   1.000  C
  C69      1.0000 0.24717  0.05913  0.05874  Biso   1.000  C
  C70      1.0000 0.60753  0.52137  0.39208  Biso   1.000  C
  C71      1.0000 0.47863  0.08617  0.39208  Biso   1.000  C
  C72      1.0000 0.91383  0.39247  0.39208  Biso   1.000  C
  C73      1.0000 0.88222  0.38990  0.21193  Biso   1.000  C
  C74      1.0000 0.61010  0.49232  0.21193  Biso   1.000  C
  C75      1.0000 0.50768  0.11778  0.21193  Biso   1.000  C
  C76      1.0000 0.54889  0.72323  0.54526  Biso   1.000  C
  C77      1.0000 0.27677  0.82565  0.54526  Biso   1.000  C
  C78      1.0000 0.17435  0.45111  0.54526  Biso   1.000  C
  C79      1.0000 0.21555  0.05657  0.87860  Biso   1.000  C
  C80      1.0000 0.94343  0.15899  0.87860  Biso   1.000  C
  C81      1.0000 0.84101  0.78445  0.87860  Biso   1.000  C
  C82      1.0000 0.11778  0.61010  0.78807  Biso   1.000  C
  C83      1.0000 0.38990  0.50768  0.78807  Biso   1.000  C
  C84      1.0000 0.49232  0.88222  0.78807  Biso   1.000  C
  C85      1.0000 0.78445  0.94343  0.12140  Biso   1.000  C
  C86      1.0000 0.05657  0.84101  0.12140  Biso   1.000  C
  C87      1.0000 0.15899  0.21555  0.12140  Biso   1.000  C
  C88      1.0000 0.45111  0.27677  0.45474  Biso   1.000  C
  C89      1.0000 0.72323  0.17435  0.45474  Biso   1.000  C
  C90      1.0000 0.82565  0.54889  0.45474  Biso   1.000  C
  C91      1.0000 0.92870  0.38280  0.15683  Biso   1.000  C
  C92      1.0000 0.61720  0.54590  0.15683  Biso   1.000  C
  C93      1.0000 0.45410  0.07130  0.15683  Biso   1.000  C
  C94      1.0000 0.59537  0.71613  0.49016  Biso   1.000  C
  C95      1.0000 0.28387  0.87923  0.49016  Biso   1.000  C
  C96      1.0000 0.12077  0.40463  0.49016  Biso   1.000  C
  C97      1.0000 0.26203  0.04947  0.82350  Biso   1.000  C
  C98      1.0000 0.95053  0.21257  0.82350  Biso   1.000  C
  C99      1.0000 0.78743  0.73797  0.82350  Biso   1.000  C
  C100     1.0000 0.07130  0.61720  0.84317  Biso   1.000  C
  C101     1.0000 0.38280  0.45410  0.84317  Biso   1.000  C
  C102     1.0000 0.54590  0.92870  0.84317  Biso   1.000  C
  C103     1.0000 0.73797  0.95053  0.17650  Biso   1.000  C
  C104     1.0000 0.04947  0.78743  0.17650  Biso   1.000  C
  C105     1.0000 0.21257  0.26203  0.17650  Biso   1.000  C
  C106     1.0000 0.40463  0.28387  0.50984  Biso   1.000  C
  C107     1.0000 0.71613  0.12077  0.50984  Biso   1.000  C
  C108     1.0000 0.87923  0.59537  0.50984  Biso   1.000  C
  C109     1.0000 0.92461  0.44625  0.11076  Biso   1.000  C
  C110     1.0000 0.55375  0.47836  0.11076  Biso   1.000  C
  C111     1.0000 0.52164  0.07539  0.11076  Biso   1.000  C
  C112     1.0000 0.59128  0.77958  0.44409  Biso   1.000  C
  C113     1.0000 0.22042  0.81169  0.44409  Biso   1.000  C
  C114     1.0000 0.18831  0.40872  0.44409  Biso   1.000  C
  C115     1.0000 0.25794  0.11292  0.77743  Biso   1.000  C
  C116     1.0000 0.88708  0.14503  0.77743  Biso   1.000  C
  C117     1.0000 0.85497  0.74206  0.77743  Biso   1.000  C
  C118     1.0000 0.07539  0.55375  0.88924  Biso   1.000  C
  C119     1.0000 0.44625  0.52164  0.88924  Biso   1.000  C
  C120     1.0000 0.47836  0.92461  0.88924  Biso   1.000  C
  C121     1.0000 0.74206  0.88708  0.22257  Biso   1.000  C
  C122     1.0000 0.11292  0.85497  0.22257  Biso   1.000  C
  C123     1.0000 0.14503  0.25794  0.22257  Biso   1.000  C
  C124     1.0000 0.40872  0.22042  0.55591  Biso   1.000  C
  C125     1.0000 0.77958  0.18831  0.55591  Biso   1.000  C
  C126     1.0000 0.81169  0.59128  0.55591  Biso   1.000  C
  C127     1.0000 0.83700  0.41110  0.07988  Biso   1.000  C
  C128     1.0000 0.58890  0.42590  0.07988  Biso   1.000  C
  C129     1.0000 0.57410  0.16300  0.07988  Biso   1.000  C
  C130     1.0000 0.50367  0.74443  0.41321  Biso   1.000  C
  C131     1.0000 0.25557  0.75923  0.41321  Biso   1.000  C
  C132     1.0000 0.24077  0.49633  0.41321  Biso   1.000  C
  C133     1.0000 0.17033  0.07777  0.74655  Biso   1.000  C
  C134     1.0000 0.92223  0.09257  0.74655  Biso   1.000  C
  C135     1.0000 0.90743  0.82967  0.74655  Biso   1.000  C
  C136     1.0000 0.16300  0.58890  0.92012  Biso   1.000  C
  C137     1.0000 0.41110  0.57410  0.92012  Biso   1.000  C
  C138     1.0000 0.42590  0.83700  0.92012  Biso   1.000  C
  C139     1.0000 0.82967  0.92223  0.25345  Biso   1.000  C
  C140     1.0000 0.07777  0.90743  0.25345  Biso   1.000  C
  C141     1.0000 0.09257  0.17033  0.25345  Biso   1.000  C
  C142     1.0000 0.49633  0.25557  0.58679  Biso   1.000  C
  C143     1.0000 0.74443  0.24077  0.58679  Biso   1.000  C
  C144     1.0000 0.75923  0.50367  0.58679  Biso   1.000  C
  C145     1.0000 0.83390  0.46690  0.03613  Biso   1.000  C
  C146     1.0000 0.53310  0.36700  0.03613  Biso   1.000  C
  C147     1.0000 0.63300  0.16610  0.03613  Biso   1.000  C
  C148     1.0000 0.50057  0.80023  0.36946  Biso   1.000  C
  C149     1.0000 0.19977  0.70033  0.36946  Biso   1.000  C
  C150     1.0000 0.29967  0.49943  0.36946  Biso   1.000  C
  C151     1.0000 0.16723  0.13357  0.70280  Biso   1.000  C
  C152     1.0000 0.86643  0.03367  0.70280  Biso   1.000  C
  C153     1.0000 0.96633  0.83277  0.70280  Biso   1.000  C
  C154     1.0000 0.16610  0.53310  0.96387  Biso   1.000  C
  C155     1.0000 0.46690  0.63300  0.96387  Biso   1.000  C
  C156     1.0000 0.36700  0.83390  0.96387  Biso   1.000  C
  C157     1.0000 0.83277  0.86643  0.29720  Biso   1.000  C
  C158     1.0000 0.13357  0.96633  0.29720  Biso   1.000  C
  C159     1.0000 0.03367  0.16723  0.29720  Biso   1.000  C
  C160     1.0000 0.49943  0.19977  0.63054  Biso   1.000  C
  C161     1.0000 0.80023  0.29967  0.63054  Biso   1.000  C
  C162     1.0000 0.70033  0.50057  0.63054  Biso   1.000  C
  C163     1.0000 0.91900  0.55940  0.02462  Biso   1.000  C
  C164     1.0000 0.44060  0.35960  0.02462  Biso   1.000  C
  C165     1.0000 0.64040  0.08100  0.02462  Biso   1.000  C
  C166     1.0000 0.58567  0.89273  0.35795  Biso   1.000  C
  C167     1.0000 0.10727  0.69293  0.35795  Biso   1.000  C
  C168     1.0000 0.30707  0.41433  0.35795  Biso   1.000  C
  C169     1.0000 0.25233  0.22607  0.69129  Biso   1.000  C
  C170     1.0000 0.77393  0.02627  0.69129  Biso   1.000  C
  C171     1.0000 0.97373  0.74767  0.69129  Biso   1.000  C
  C172     1.0000 0.08100  0.44060  0.97538  Biso   1.000  C
  C173     1.0000 0.55940  0.64040  0.97538  Biso   1.000  C
  C174     1.0000 0.35960  0.91900  0.97538  Biso   1.000  C
  C175     1.0000 0.74767  0.77393  0.30871  Biso   1.000  C
  C176     1.0000 0.22607  0.97373  0.30871  Biso   1.000  C
  C177     1.0000 0.02627  0.25233  0.30871  Biso   1.000  C
  C178     1.0000 0.41433  0.10727  0.64205  Biso   1.000  C
  C179     1.0000 0.89273  0.30707  0.64205  Biso   1.000  C
  C180     1.0000 0.69293  0.58567  0.64205  Biso   1.000  C
  C181     1.0000 0.00370  0.59080  0.05700  Biso   1.000  C
  C182     1.0000 0.40920  0.41290  0.05700  Biso   1.000  C
  C183     1.0000 0.58710  0.99630  0.05700  Biso   1.000  C
  C184     1.0000 0.67037  0.92413  0.39033  Biso   1.000  C
  C185     1.0000 0.07587  0.74623  0.39033  Biso   1.000  C
  C186     1.0000 0.25377  0.32963  0.39033  Biso   1.000  C
  C187     1.0000 0.33703  0.25747  0.72367  Biso   1.000  C
  C188     1.0000 0.74253  0.07957  0.72367  Biso   1.000  C
  C189     1.0000 0.92043  0.66297  0.72367  Biso   1.000  C
  C190     1.0000 0.99630  0.40920  0.94300  Biso   1.000  C
  C191     1.0000 0.59080  0.58710  0.94300  Biso   1.000  C
  C192     1.0000 0.41290  0.00370  0.94300  Biso   1.000  C
  C193     1.0000 0.66297  0.74253  0.27633  Biso   1.000  C
  C194     1.0000 0.25747  0.92043  0.27633  Biso   1.000  C
  C195     1.0000 0.07957  0.33703  0.27633  Biso   1.000  C
  C196     1.0000 0.32963  0.07587  0.60967  Biso   1.000  C
  C197     1.0000 0.92413  0.25377  0.60967  Biso   1.000  C
  C198     1.0000 0.74623  0.67037  0.60967  Biso   1.000  C
  H1       1.0000 0.67530  0.11670  0.19570  Biso   1.000  H
  H2       1.0000 0.88330  0.55860  0.19570  Biso   1.000  H
  H3       1.0000 0.44140  0.32470  0.19570  Biso   1.000  H
  H4       1.0000 0.34197  0.45003  0.52903  Biso   1.000  H
  H5       1.0000 0.54997  0.89193  0.52903  Biso   1.000  H
  H6       1.0000 0.10807  0.65803  0.52903  Biso   1.000  H
  H7       1.0000 0.00863  0.78337  0.86237  Biso   1.000  H
  H8       1.0000 0.21663  0.22527  0.86237  Biso   1.000  H
  H9       1.0000 0.77473  0.99137  0.86237  Biso   1.000  H
  H10      1.0000 0.32470  0.88330  0.80430  Biso   1.000  H
  H11      1.0000 0.11670  0.44140  0.80430  Biso   1.000  H
  H12      1.0000 0.55860  0.67530  0.80430  Biso   1.000  H
  H13      1.0000 0.99137  0.21663  0.13763  Biso   1.000  H
  H14      1.0000 0.78337  0.77473  0.13763  Biso   1.000  H
  H15      1.0000 0.22527  0.00863  0.13763  Biso   1.000  H
  H16      1.0000 0.65803  0.54997  0.47097  Biso   1.000  H
  H17      1.0000 0.45003  0.10807  0.47097  Biso   1.000  H
  H18      1.0000 0.89193  0.34197  0.47097  Biso   1.000  H
  H19      1.0000 0.78920  0.20000  0.19950  Biso   1.000  H
  H20      1.0000 0.80000  0.58920  0.19950  Biso   1.000  H
  H21      1.0000 0.41080  0.21080  0.19950  Biso   1.000  H
  H22      1.0000 0.45587  0.53333  0.53283  Biso   1.000  H
  H23      1.0000 0.46667  0.92253  0.53283  Biso   1.000  H
  H24      1.0000 0.07747  0.54413  0.53283  Biso   1.000  H
  H25      1.0000 0.12253  0.86667  0.86617  Biso   1.000  H
  H26      1.0000 0.13333  0.25587  0.86617  Biso   1.000  H
  H27      1.0000 0.74413  0.87747  0.86617  Biso   1.000  H
  H28      1.0000 0.21080  0.80000  0.80050  Biso   1.000  H
  H29      1.0000 0.20000  0.41080  0.80050  Biso   1.000  H
  H30      1.0000 0.58920  0.78920  0.80050  Biso   1.000  H
  H31      1.0000 0.87747  0.13333  0.13383  Biso   1.000  H
  H32      1.0000 0.86667  0.74413  0.13383  Biso   1.000  H
  H33      1.0000 0.25587  0.12253  0.13383  Biso   1.000  H
  H34      1.0000 0.54413  0.46667  0.46717  Biso   1.000  H
  H35      1.0000 0.53333  0.07747  0.46717  Biso   1.000  H
  H36      1.0000 0.92253  0.45587  0.46717  Biso   1.000  H
  H37      1.0000 0.79210  0.18750  0.28910  Biso   1.000  H
  H38      1.0000 0.81250  0.60460  0.28910  Biso   1.000  H
  H39      1.0000 0.39540  0.20790  0.28910  Biso   1.000  H
  H40      1.0000 0.45877  0.52083  0.62243  Biso   1.000  H
  H41      1.0000 0.47917  0.93793  0.62243  Biso   1.000  H
  H42      1.0000 0.06207  0.54123  0.62243  Biso   1.000  H
  H43      1.0000 0.12543  0.85417  0.95577  Biso   1.000  H
  H44      1.0000 0.14583  0.27127  0.95577  Biso   1.000  H
  H45      1.0000 0.72873  0.87457  0.95577  Biso   1.000  H
  H46      1.0000 0.20790  0.81250  0.71090  Biso   1.000  H
  H47      1.0000 0.18750  0.39540  0.71090  Biso   1.000  H
  H48      1.0000 0.60460  0.79210  0.71090  Biso   1.000  H
  H49      1.0000 0.87457  0.14583  0.04423  Biso   1.000  H
  H50      1.0000 0.85417  0.72873  0.04423  Biso   1.000  H
  H51      1.0000 0.27127  0.12543  0.04423  Biso   1.000  H
  H52      1.0000 0.54123  0.47917  0.37757  Biso   1.000  H
  H53      1.0000 0.52083  0.06207  0.37757  Biso   1.000  H
  H54      1.0000 0.93793  0.45877  0.37757  Biso   1.000  H
  H55      1.0000 0.70900  0.07610  0.27660  Biso   1.000  H
  H56      1.0000 0.92390  0.63290  0.27660  Biso   1.000  H
  H57      1.0000 0.36710  0.29100  0.27660  Biso   1.000  H
  H58      1.0000 0.37567  0.40943  0.60993  Biso   1.000  H
  H59      1.0000 0.59057  0.96623  0.60993  Biso   1.000  H
  H60      1.0000 0.03377  0.62433  0.60993  Biso   1.000  H
  H61      1.0000 0.04233  0.74277  0.94327  Biso   1.000  H
  H62      1.0000 0.25723  0.29957  0.94327  Biso   1.000  H
  H63      1.0000 0.70043  0.95767  0.94327  Biso   1.000  H
  H64      1.0000 0.29100  0.92390  0.72340  Biso   1.000  H
  H65      1.0000 0.07610  0.36710  0.72340  Biso   1.000  H
  H66      1.0000 0.63290  0.70900  0.72340  Biso   1.000  H
  H67      1.0000 0.95767  0.25723  0.05673  Biso   1.000  H
  H68      1.0000 0.74277  0.70043  0.05673  Biso   1.000  H
  H69      1.0000 0.29957  0.04233  0.05673  Biso   1.000  H
  H70      1.0000 0.62433  0.59057  0.39007  Biso   1.000  H
  H71      1.0000 0.40943  0.03377  0.39007  Biso   1.000  H
  H72      1.0000 0.96623  0.37567  0.39007  Biso   1.000  H
  H73      1.0000 0.67790  0.15460  0.29510  Biso   1.000  H
  H74      1.0000 0.84540  0.52330  0.29510  Biso   1.000  H
  H75      1.0000 0.47670  0.32210  0.29510  Biso   1.000  H
  H76      1.0000 0.34457  0.48793  0.62843  Biso   1.000  H
  H77      1.0000 0.51207  0.85663  0.62843  Biso   1.000  H
  H78      1.0000 0.14337  0.65543  0.62843  Biso   1.000  H
  H79      1.0000 0.01123  0.82127  0.96177  Biso   1.000  H
  H80      1.0000 0.17873  0.18997  0.96177  Biso   1.000  H
  H81      1.0000 0.81003  0.98877  0.96177  Biso   1.000  H
  H82      1.0000 0.32210  0.84540  0.70490  Biso   1.000  H
  H83      1.0000 0.15460  0.47670  0.70490  Biso   1.000  H
  H84      1.0000 0.52330  0.67790  0.70490  Biso   1.000  H
  H85      1.0000 0.98877  0.17873  0.03823  Biso   1.000  H
  H86      1.0000 0.82127  0.81003  0.03823  Biso   1.000  H
  H87      1.0000 0.18997  0.01123  0.03823  Biso   1.000  H
  H88      1.0000 0.65543  0.51207  0.37157  Biso   1.000  H
  H89      1.0000 0.48793  0.14337  0.37157  Biso   1.000  H
  H90      1.0000 0.85663  0.34457  0.37157  Biso   1.000  H
  H91      1.0000 0.92010  0.45850  0.22410  Biso   1.000  H
  H92      1.0000 0.54150  0.46160  0.22410  Biso   1.000  H
  H93      1.0000 0.53840  0.07990  0.22410  Biso   1.000  H
  H94      1.0000 0.58677  0.79183  0.55743  Biso   1.000  H
  H95      1.0000 0.20817  0.79493  0.55743  Biso   1.000  H
  H96      1.0000 0.20507  0.41323  0.55743  Biso   1.000  H
  H97      1.0000 0.25343  0.12517  0.89077  Biso   1.000  H
  H98      1.0000 0.87483  0.12827  0.89077  Biso   1.000  H
  H99      1.0000 0.87173  0.74657  0.89077  Biso   1.000  H
  H100     1.0000 0.07990  0.54150  0.77590  Biso   1.000  H
  H101     1.0000 0.45850  0.53840  0.77590  Biso   1.000  H
  H102     1.0000 0.46160  0.92010  0.77590  Biso   1.000  H
  H103     1.0000 0.74657  0.87483  0.10923  Biso   1.000  H
  H104     1.0000 0.12517  0.87173  0.10923  Biso   1.000  H
  H105     1.0000 0.12827  0.25343  0.10923  Biso   1.000  H
  H106     1.0000 0.41323  0.20817  0.44257  Biso   1.000  H
  H107     1.0000 0.79183  0.20507  0.44257  Biso   1.000  H
  H108     1.0000 0.79493  0.58677  0.44257  Biso   1.000  H
  H109     1.0000 0.88890  0.34670  0.23770  Biso   1.000  H
  H110     1.0000 0.65330  0.54220  0.23770  Biso   1.000  H
  H111     1.0000 0.45780  0.11110  0.23770  Biso   1.000  H
  H112     1.0000 0.55557  0.68003  0.57103  Biso   1.000  H
  H113     1.0000 0.31997  0.87553  0.57103  Biso   1.000  H
  H114     1.0000 0.12447  0.44443  0.57103  Biso   1.000  H
  H115     1.0000 0.22223  0.01337  0.90437  Biso   1.000  H
  H116     1.0000 0.98663  0.20887  0.90437  Biso   1.000  H
  H117     1.0000 0.79113  0.77777  0.90437  Biso   1.000  H
  H118     1.0000 0.11110  0.65330  0.76230  Biso   1.000  H
  H119     1.0000 0.34670  0.45780  0.76230  Biso   1.000  H
  H120     1.0000 0.54220  0.88890  0.76230  Biso   1.000  H
  H121     1.0000 0.77777  0.98663  0.09563  Biso   1.000  H
  H122     1.0000 0.01337  0.79113  0.09563  Biso   1.000  H
  H123     1.0000 0.20887  0.22223  0.09563  Biso   1.000  H
  H124     1.0000 0.44443  0.31997  0.42897  Biso   1.000  H
  H125     1.0000 0.68003  0.12447  0.42897  Biso   1.000  H
  H126     1.0000 0.87553  0.55557  0.42897  Biso   1.000  H
  H127     1.0000 0.99820  0.40300  0.16290  Biso   1.000  H
  H128     1.0000 0.59700  0.59520  0.16290  Biso   1.000  H
  H129     1.0000 0.40480  0.00180  0.16290  Biso   1.000  H
  H130     1.0000 0.66487  0.73633  0.49623  Biso   1.000  H
  H131     1.0000 0.26367  0.92853  0.49623  Biso   1.000  H
  H132     1.0000 0.07147  0.33513  0.49623  Biso   1.000  H
  H133     1.0000 0.33153  0.06967  0.82957  Biso   1.000  H
  H134     1.0000 0.93033  0.26187  0.82957  Biso   1.000  H
  H135     1.0000 0.73813  0.66847  0.82957  Biso   1.000  H
  H136     1.0000 0.00180  0.59700  0.83710  Biso   1.000  H
  H137     1.0000 0.40300  0.40480  0.83710  Biso   1.000  H
  H138     1.0000 0.59520  0.99820  0.83710  Biso   1.000  H
  H139     1.0000 0.66847  0.93033  0.17043  Biso   1.000  H
  H140     1.0000 0.06967  0.73813  0.17043  Biso   1.000  H
  H141     1.0000 0.26187  0.33153  0.17043  Biso   1.000  H
  H142     1.0000 0.33513  0.26367  0.50377  Biso   1.000  H
  H143     1.0000 0.73633  0.07147  0.50377  Biso   1.000  H
  H144     1.0000 0.92853  0.66487  0.50377  Biso   1.000  H
  H145     1.0000 0.89280  0.31360  0.14550  Biso   1.000  H
  H146     1.0000 0.68640  0.57920  0.14550  Biso   1.000  H
  H147     1.0000 0.42080  0.10720  0.14550  Biso   1.000  H
  H148     1.0000 0.55947  0.64693  0.47883  Biso   1.000  H
  H149     1.0000 0.35307  0.91253  0.47883  Biso   1.000  H
  H150     1.0000 0.08747  0.44053  0.47883  Biso   1.000  H
  H151     1.0000 0.22613  0.98027  0.81217  Biso   1.000  H
  H152     1.0000 0.01973  0.24587  0.81217  Biso   1.000  H
  H153     1.0000 0.75413  0.77387  0.81217  Biso   1.000  H
  H154     1.0000 0.10720  0.68640  0.85450  Biso   1.000  H
  H155     1.0000 0.31360  0.42080  0.85450  Biso   1.000  H
  H156     1.0000 0.57920  0.89280  0.85450  Biso   1.000  H
  H157     1.0000 0.77387  0.01973  0.18783  Biso   1.000  H
  H158     1.0000 0.98027  0.75413  0.18783  Biso   1.000  H
  H159     1.0000 0.24587  0.22613  0.18783  Biso   1.000  H
  H160     1.0000 0.44053  0.35307  0.52117  Biso   1.000  H
  H161     1.0000 0.64693  0.08747  0.52117  Biso   1.000  H
  H162     1.0000 0.91253  0.55947  0.52117  Biso   1.000  H
  H163     1.0000 0.77900  0.34760  0.08890  Biso   1.000  H
  H164     1.0000 0.65240  0.43140  0.08890  Biso   1.000  H
  H165     1.0000 0.56860  0.22100  0.08890  Biso   1.000  H
  H166     1.0000 0.44567  0.68093  0.42223  Biso   1.000  H
  H167     1.0000 0.31907  0.76473  0.42223  Biso   1.000  H
  H168     1.0000 0.23527  0.55433  0.42223  Biso   1.000  H
  H169     1.0000 0.11233  0.01427  0.75557  Biso   1.000  H
  H170     1.0000 0.98573  0.09807  0.75557  Biso   1.000  H
  H171     1.0000 0.90193  0.88767  0.75557  Biso   1.000  H
  H172     1.0000 0.22100  0.65240  0.91110  Biso   1.000  H
  H173     1.0000 0.34760  0.56860  0.91110  Biso   1.000  H
  H174     1.0000 0.43140  0.77900  0.91110  Biso   1.000  H
  H175     1.0000 0.88767  0.98573  0.24443  Biso   1.000  H
  H176     1.0000 0.01427  0.90193  0.24443  Biso   1.000  H
  H177     1.0000 0.09807  0.11233  0.24443  Biso   1.000  H
  H178     1.0000 0.55433  0.31907  0.57777  Biso   1.000  H
  H179     1.0000 0.68093  0.23527  0.57777  Biso   1.000  H
  H180     1.0000 0.76473  0.44567  0.57777  Biso   1.000  H
  H181     1.0000 0.77430  0.44240  0.01440  Biso   1.000  H
  H182     1.0000 0.55760  0.33190  0.01440  Biso   1.000  H
  H183     1.0000 0.66810  0.22570  0.01440  Biso   1.000  H
  H184     1.0000 0.44097  0.77573  0.34773  Biso   1.000  H
  H185     1.0000 0.22427  0.66523  0.34773  Biso   1.000  H
  H186     1.0000 0.33477  0.55903  0.34773  Biso   1.000  H
  H187     1.0000 0.10763  0.10907  0.68107  Biso   1.000  H
  H188     1.0000 0.89093  0.99857  0.68107  Biso   1.000  H
  H189     1.0000 0.00143  0.89237  0.68107  Biso   1.000  H
  H190     1.0000 0.22570  0.55760  0.98560  Biso   1.000  H
  H191     1.0000 0.44240  0.66810  0.98560  Biso   1.000  H
  H192     1.0000 0.33190  0.77430  0.98560  Biso   1.000  H
  H193     1.0000 0.89237  0.89093  0.31893  Biso   1.000  H
  H194     1.0000 0.10907  0.00143  0.31893  Biso   1.000  H
  H195     1.0000 0.99857  0.10763  0.31893  Biso   1.000  H
  H196     1.0000 0.55903  0.22427  0.65227  Biso   1.000  H
  H197     1.0000 0.77573  0.33477  0.65227  Biso   1.000  H
  H198     1.0000 0.66523  0.44097  0.65227  Biso   1.000  H
  H199     1.0000 0.91950  0.60020  0.99500  Biso   1.000  H
  H200     1.0000 0.39980  0.31930  0.99500  Biso   1.000  H
  H201     1.0000 0.68070  0.08050  0.99500  Biso   1.000  H
  H202     1.0000 0.58617  0.93353  0.32833  Biso   1.000  H
  H203     1.0000 0.06647  0.65263  0.32833  Biso   1.000  H
  H204     1.0000 0.34737  0.41383  0.32833  Biso   1.000  H
  H205     1.0000 0.25283  0.26687  0.66167  Biso   1.000  H
  H206     1.0000 0.73313  0.98597  0.66167  Biso   1.000  H
  H207     1.0000 0.01403  0.74717  0.66167  Biso   1.000  H
  H208     1.0000 0.08050  0.39980  0.00500  Biso   1.000  H
  H209     1.0000 0.60020  0.68070  0.00500  Biso   1.000  H
  H210     1.0000 0.31930  0.91950  0.00500  Biso   1.000  H
  H211     1.0000 0.74717  0.73313  0.33833  Biso   1.000  H
  H212     1.0000 0.26687  0.01403  0.33833  Biso   1.000  H
  H213     1.0000 0.98597  0.25283  0.33833  Biso   1.000  H
  H214     1.0000 0.41383  0.06647  0.67167  Biso   1.000  H
  H215     1.0000 0.93353  0.34737  0.67167  Biso   1.000  H
  H216     1.0000 0.65263  0.58617  0.67167  Biso   1.000  H
  H217     1.0000 0.06210  0.65490  0.04940  Biso   1.000  H
  H218     1.0000 0.34510  0.40720  0.04940  Biso   1.000  H
  H219     1.0000 0.59280  0.93790  0.04940  Biso   1.000  H
  H220     1.0000 0.72877  0.98823  0.38273  Biso   1.000  H
  H221     1.0000 0.01177  0.74053  0.38273  Biso   1.000  H
  H222     1.0000 0.25947  0.27123  0.38273  Biso   1.000  H
  H223     1.0000 0.39543  0.32157  0.71607  Biso   1.000  H
  H224     1.0000 0.67843  0.07387  0.71607  Biso   1.000  H
  H225     1.0000 0.92613  0.60457  0.71607  Biso   1.000  H
  H226     1.0000 0.93790  0.34510  0.95060  Biso   1.000  H
  H227     1.0000 0.65490  0.59280  0.95060  Biso   1.000  H
  H228     1.0000 0.40720  0.06210  0.95060  Biso   1.000  H
  H229     1.0000 0.60457  0.67843  0.28393  Biso   1.000  H
  H230     1.0000 0.32157  0.92613  0.28393  Biso   1.000  H
  H231     1.0000 0.07387  0.39543  0.28393  Biso   1.000  H
  H232     1.0000 0.27123  0.01177  0.61727  Biso   1.000  H
  H233     1.0000 0.98823  0.25947  0.61727  Biso   1.000  H
  H234     1.0000 0.74053  0.72877  0.61727  Biso   1.000  H
