data_image0
_cell_length_a       15.029
_cell_length_b       15.029
_cell_length_c       23.744
_cell_angle_alpha    90
_cell_angle_beta     90
_cell_angle_gamma    120

_symmetry_space_group_name_H-M    "P 1"
_symmetry_int_tables_number       1

loop_
  _symmetry_equiv_pos_as_xyz
  'x, y, z'

loop_
  _atom_site_label
  _atom_site_occupancy
  _atom_site_fract_x
  _atom_site_fract_y
  _atom_site_fract_z
  _atom_site_thermal_displace_type
  _atom_site_B_iso_or_equiv
  _atom_site_type_symbol
  Cu1      1.0000 0.15215  0.58826  0.13032  Biso   1.000  Cu
  Cu2      1.0000 0.41174  0.56389  0.13032  Biso   1.000  Cu
  Cu3      1.0000 0.43611  0.84785  0.13032  Biso   1.000  Cu
  Cu4      1.0000 0.81882  0.92159  0.46365  Biso   1.000  Cu
  Cu5      1.0000 0.07841  0.89722  0.46365  Biso   1.000  Cu
  Cu6      1.0000 0.10278  0.18118  0.46365  Biso   1.000  Cu
  Cu7      1.0000 0.48548  0.25493  0.79699  Biso   1.000  Cu
  Cu8      1.0000 0.74507  0.23056  0.79699  Biso   1.000  Cu
  Cu9      1.0000 0.76944  0.51452  0.79699  Biso   1.000  Cu
  Cu10     1.0000 0.84785  0.41174  0.86968  Biso   1.000  Cu
  Cu11     1.0000 0.58826  0.43611  0.86968  Biso   1.000  Cu
  Cu12     1.0000 0.56389  0.15215  0.86968  Biso   1.000  Cu
  Cu13     1.0000 0.51452  0.74507  0.20301  Biso   1.000  Cu
  Cu14     1.0000 0.25493  0.76944  0.20301  Biso   1.000  Cu
  Cu15     1.0000 0.23056  0.48548  0.20301  Biso   1.000  Cu
  Cu16     1.0000 0.18118  0.07841  0.53635  Biso   1.000  Cu
  Cu17     1.0000 0.92159  0.10278  0.53635  Biso   1.000  Cu
  Cu18     1.0000 0.89722  0.81882  0.53635  Biso   1.000  Cu
  Cl1      1.0000 0.26175  0.76596  0.10234  Biso   1.000  Cl
  Cl2      1.0000 0.23404  0.49579  0.10234  Biso   1.000  Cl
  Cl3      1.0000 0.50421  0.73825  0.10234  Biso   1.000  Cl
  Cl4      1.0000 0.92842  0.09929  0.43567  Biso   1.000  Cl
  Cl5      1.0000 0.90071  0.82912  0.43567  Biso   1.000  Cl
  Cl6      1.0000 0.17088  0.07158  0.43567  Biso   1.000  Cl
  Cl7      1.0000 0.59508  0.43263  0.76901  Biso   1.000  Cl
  Cl8      1.0000 0.56737  0.16246  0.76901  Biso   1.000  Cl
  Cl9      1.0000 0.83754  0.40492  0.76901  Biso   1.000  Cl
  Cl10     1.0000 0.73825  0.23404  0.89766  Biso   1.000  Cl
  Cl11     1.0000 0.76596  0.50421  0.89766  Biso   1.000  Cl
  Cl12     1.0000 0.49579  0.26175  0.89766  Biso   1.000  Cl
  Cl13     1.0000 0.40492  0.56737  0.23099  Biso   1.000  Cl
  Cl14     1.0000 0.43263  0.83754  0.23099  Biso   1.000  Cl
  Cl15     1.0000 0.16246  0.59508  0.23099  Biso   1.000  Cl
  Cl16     1.0000 0.07158  0.90071  0.56433  Biso   1.000  Cl
  Cl17     1.0000 0.09929  0.17088  0.56433  Biso   1.000  Cl
  Cl18     1.0000 0.82912  0.92842  0.56433  Biso   1.000  Cl
  N1       1.0000 0.01263  0.54044  0.09621  Biso   1.000  N
  N2       1.0000 0.45956  0.47219  0.09621  Biso   1.000  N
  N3       1.0000 0.52781  0.98737  0.09621  Biso   1.000  N
  N4       1.0000 0.67930  0.87377  0.42954  Biso   1.000  N
  N5       1.0000 0.12623  0.80552  0.42954  Biso   1.000  N
  N6       1.0000 0.19448  0.32070  0.42954  Biso   1.000  N
  N7       1.0000 0.34596  0.20711  0.76288  Biso   1.000  N
  N8       1.0000 0.79289  0.13886  0.76288  Biso   1.000  N
  N9       1.0000 0.86114  0.65404  0.76288  Biso   1.000  N
  N10      1.0000 0.98737  0.45956  0.90379  Biso   1.000  N
  N11      1.0000 0.54044  0.52781  0.90379  Biso   1.000  N
  N12      1.0000 0.47219  0.01263  0.90379  Biso   1.000  N
  N13      1.0000 0.65404  0.79289  0.23712  Biso   1.000  N
  N14      1.0000 0.20711  0.86114  0.23712  Biso   1.000  N
  N15      1.0000 0.13886  0.34596  0.23712  Biso   1.000  N
  N16      1.0000 0.32070  0.12623  0.57046  Biso   1.000  N
  N17      1.0000 0.87377  0.19448  0.57046  Biso   1.000  N
  N18      1.0000 0.80552  0.67930  0.57046  Biso   1.000  N
  C1       1.0000 0.77163  0.36330  0.21108  Biso   1.000  C
  C2       1.0000 0.63670  0.40833  0.21108  Biso   1.000  C
  C3       1.0000 0.59167  0.22837  0.21108  Biso   1.000  C
  C4       1.0000 0.43830  0.69663  0.54441  Biso   1.000  C
  C5       1.0000 0.30337  0.74166  0.54441  Biso   1.000  C
  C6       1.0000 0.25834  0.56170  0.54441  Biso   1.000  C
  C7       1.0000 0.10496  0.02997  0.87775  Biso   1.000  C
  C8       1.0000 0.97003  0.07500  0.87775  Biso   1.000  C
  C9       1.0000 0.92500  0.89504  0.87775  Biso   1.000  C
  C10      1.0000 0.22837  0.63670  0.78892  Biso   1.000  C
  C11      1.0000 0.36330  0.59167  0.78892  Biso   1.000  C
  C12      1.0000 0.40833  0.77163  0.78892  Biso   1.000  C
  C13      1.0000 0.89504  0.97003  0.12225  Biso   1.000  C
  C14      1.0000 0.02997  0.92500  0.12225  Biso   1.000  C
  C15      1.0000 0.07500  0.10496  0.12225  Biso   1.000  C
  C16      1.0000 0.56170  0.30337  0.45559  Biso   1.000  C
  C17      1.0000 0.69663  0.25834  0.45559  Biso   1.000  C
  C18      1.0000 0.74166  0.43830  0.45559  Biso   1.000  C
  C19      1.0000 0.69641  0.25862  0.21098  Biso   1.000  C
  C20      1.0000 0.74138  0.43779  0.21098  Biso   1.000  C
  C21      1.0000 0.56221  0.30359  0.21098  Biso   1.000  C
  C22      1.0000 0.36308  0.59195  0.54431  Biso   1.000  C
  C23      1.0000 0.40805  0.77112  0.54431  Biso   1.000  C
  C24      1.0000 0.22888  0.63692  0.54431  Biso   1.000  C
  C25      1.0000 0.02974  0.92529  0.87765  Biso   1.000  C
  C26      1.0000 0.07471  0.10446  0.87765  Biso   1.000  C
  C27      1.0000 0.89554  0.97026  0.87765  Biso   1.000  C
  C28      1.0000 0.30359  0.74138  0.78902  Biso   1.000  C
  C29      1.0000 0.25862  0.56221  0.78902  Biso   1.000  C
  C30      1.0000 0.43779  0.69641  0.78902  Biso   1.000  C
  C31      1.0000 0.97026  0.07471  0.12235  Biso   1.000  C
  C32      1.0000 0.92529  0.89554  0.12235  Biso   1.000  C
  C33      1.0000 0.10446  0.02974  0.12235  Biso   1.000  C
  C34      1.0000 0.63692  0.40805  0.45569  Biso   1.000  C
  C35      1.0000 0.59195  0.22888  0.45569  Biso   1.000  C
  C36      1.0000 0.77112  0.36308  0.45569  Biso   1.000  C
  C37      1.0000 0.72860  0.17739  0.21580  Biso   1.000  C
  C38      1.0000 0.82261  0.55121  0.21580  Biso   1.000  C
  C39      1.0000 0.44879  0.27140  0.21580  Biso   1.000  C
  C40      1.0000 0.39527  0.51072  0.54913  Biso   1.000  C
  C41      1.0000 0.48928  0.88454  0.54913  Biso   1.000  C
  C42      1.0000 0.11546  0.60473  0.54913  Biso   1.000  C
  C43      1.0000 0.06193  0.84406  0.88247  Biso   1.000  C
  C44      1.0000 0.15594  0.21788  0.88247  Biso   1.000  C
  C45      1.0000 0.78212  0.93807  0.88247  Biso   1.000  C
  C46      1.0000 0.27140  0.82261  0.78420  Biso   1.000  C
  C47      1.0000 0.17739  0.44879  0.78420  Biso   1.000  C
  C48      1.0000 0.55121  0.72860  0.78420  Biso   1.000  C
  C49      1.0000 0.93807  0.15594  0.11753  Biso   1.000  C
  C50      1.0000 0.84406  0.78212  0.11753  Biso   1.000  C
  C51      1.0000 0.21788  0.06193  0.11753  Biso   1.000  C
  C52      1.0000 0.60473  0.48928  0.45087  Biso   1.000  C
  C53      1.0000 0.51072  0.11546  0.45087  Biso   1.000  C
  C54      1.0000 0.88454  0.39527  0.45087  Biso   1.000  C
  C55      1.0000 0.73251  0.14852  0.27661  Biso   1.000  C
  C56      1.0000 0.85148  0.58399  0.27661  Biso   1.000  C
  C57      1.0000 0.41601  0.26749  0.27661  Biso   1.000  C
  C58      1.0000 0.39918  0.48185  0.60994  Biso   1.000  C
  C59      1.0000 0.51815  0.91732  0.60994  Biso   1.000  C
  C60      1.0000 0.08268  0.60082  0.60994  Biso   1.000  C
  C61      1.0000 0.06584  0.81519  0.94328  Biso   1.000  C
  C62      1.0000 0.18481  0.25066  0.94328  Biso   1.000  C
  C63      1.0000 0.74934  0.93416  0.94328  Biso   1.000  C
  C64      1.0000 0.26749  0.85148  0.72339  Biso   1.000  C
  C65      1.0000 0.14852  0.41601  0.72339  Biso   1.000  C
  C66      1.0000 0.58399  0.73251  0.72339  Biso   1.000  C
  C67      1.0000 0.93416  0.18481  0.05672  Biso   1.000  C
  C68      1.0000 0.81519  0.74934  0.05672  Biso   1.000  C
  C69      1.0000 0.25066  0.06584  0.05672  Biso   1.000  C
  C70      1.0000 0.60082  0.51815  0.39006  Biso   1.000  C
  C71      1.0000 0.48185  0.08268  0.39006  Biso   1.000  C
  C72      1.0000 0.91732  0.39918  0.39006  Biso   1.000  C
  C73      1.0000 0.88474  0.39454  0.21260  Biso   1.000  C
  C74      1.0000 0.60546  0.49020  0.21260  Biso   1.000  C
  C75      1.0000 0.50980  0.11526  0.21260  Biso   1.000  C
  C76      1.0000 0.55141  0.72787  0.54593  Biso   1.000  C
  C77      1.0000 0.27213  0.82353  0.54593  Biso   1.000  C
  C78      1.0000 0.17647  0.44859  0.54593  Biso   1.000  C
  C79      1.0000 0.21807  0.06121  0.87927  Biso   1.000  C
  C80      1.0000 0.93879  0.15687  0.87927  Biso   1.000  C
  C81      1.0000 0.84313  0.78193  0.87927  Biso   1.000  C
  C82      1.0000 0.11526  0.60546  0.78740  Biso   1.000  C
  C83      1.0000 0.39454  0.50980  0.78740  Biso   1.000  C
  C84      1.0000 0.49020  0.88474  0.78740  Biso   1.000  C
  C85      1.0000 0.78193  0.93879  0.12073  Biso   1.000  C
  C86      1.0000 0.06121  0.84313  0.12073  Biso   1.000  C
  C87      1.0000 0.15687  0.21807  0.12073  Biso   1.000  C
  C88      1.0000 0.44859  0.27213  0.45407  Biso   1.000  C
  C89      1.0000 0.72787  0.17647  0.45407  Biso   1.000  C
  C90      1.0000 0.82353  0.55141  0.45407  Biso   1.000  C
  C91      1.0000 0.93182  0.38742  0.15626  Biso   1.000  C
  C92      1.0000 0.61258  0.54440  0.15626  Biso   1.000  C
  C93      1.0000 0.45560  0.06818  0.15626  Biso   1.000  C
  C94      1.0000 0.59849  0.72075  0.48959  Biso   1.000  C
  C95      1.0000 0.27925  0.87773  0.48959  Biso   1.000  C
  C96      1.0000 0.12227  0.40151  0.48959  Biso   1.000  C
  C97      1.0000 0.26515  0.05409  0.82293  Biso   1.000  C
  C98      1.0000 0.94591  0.21107  0.82293  Biso   1.000  C
  C99      1.0000 0.78893  0.73485  0.82293  Biso   1.000  C
  C100     1.0000 0.06818  0.61258  0.84374  Biso   1.000  C
  C101     1.0000 0.38742  0.45560  0.84374  Biso   1.000  C
  C102     1.0000 0.54440  0.93182  0.84374  Biso   1.000  C
  C103     1.0000 0.73485  0.94591  0.17707  Biso   1.000  C
  C104     1.0000 0.05409  0.78893  0.17707  Biso   1.000  C
  C105     1.0000 0.21107  0.26515  0.17707  Biso   1.000  C
  C106     1.0000 0.40151  0.27925  0.51041  Biso   1.000  C
  C107     1.0000 0.72075  0.12227  0.51041  Biso   1.000  C
  C108     1.0000 0.87773  0.59849  0.51041  Biso   1.000  C
  C109     1.0000 0.92759  0.45133  0.10897  Biso   1.000  C
  C110     1.0000 0.54867  0.47626  0.10897  Biso   1.000  C
  C111     1.0000 0.52374  0.07241  0.10897  Biso   1.000  C
  C112     1.0000 0.59426  0.78466  0.44230  Biso   1.000  C
  C113     1.0000 0.21534  0.80959  0.44230  Biso   1.000  C
  C114     1.0000 0.19041  0.40574  0.44230  Biso   1.000  C
  C115     1.0000 0.26092  0.11800  0.77564  Biso   1.000  C
  C116     1.0000 0.88200  0.14293  0.77564  Biso   1.000  C
  C117     1.0000 0.85707  0.73908  0.77564  Biso   1.000  C
  C118     1.0000 0.07241  0.54867  0.89103  Biso   1.000  C
  C119     1.0000 0.45133  0.52374  0.89103  Biso   1.000  C
  C120     1.0000 0.47626  0.92759  0.89103  Biso   1.000  C
  C121     1.0000 0.73908  0.88200  0.22436  Biso   1.000  C
  C122     1.0000 0.11800  0.85707  0.22436  Biso   1.000  C
  C123     1.0000 0.14293  0.26092  0.22436  Biso   1.000  C
  C124     1.0000 0.40574  0.21534  0.55770  Biso   1.000  C
  C125     1.0000 0.78466  0.19041  0.55770  Biso   1.000  C
  C126     1.0000 0.80959  0.59426  0.55770  Biso   1.000  C
  C127     1.0000 0.83788  0.41690  0.07796  Biso   1.000  C
  C128     1.0000 0.58310  0.42098  0.07796  Biso   1.000  C
  C129     1.0000 0.57902  0.16212  0.07796  Biso   1.000  C
  C130     1.0000 0.50455  0.75023  0.41129  Biso   1.000  C
  C131     1.0000 0.24977  0.75431  0.41129  Biso   1.000  C
  C132     1.0000 0.24569  0.49545  0.41129  Biso   1.000  C
  C133     1.0000 0.17121  0.08357  0.74463  Biso   1.000  C
  C134     1.0000 0.91643  0.08765  0.74463  Biso   1.000  C
  C135     1.0000 0.91235  0.82879  0.74463  Biso   1.000  C
  C136     1.0000 0.16212  0.58310  0.92204  Biso   1.000  C
  C137     1.0000 0.41690  0.57902  0.92204  Biso   1.000  C
  C138     1.0000 0.42098  0.83788  0.92204  Biso   1.000  C
  C139     1.0000 0.82879  0.91643  0.25537  Biso   1.000  C
  C140     1.0000 0.08357  0.91235  0.25537  Biso   1.000  C
  C141     1.0000 0.08765  0.17121  0.25537  Biso   1.000  C
  C142     1.0000 0.49545  0.24977  0.58871  Biso   1.000  C
  C143     1.0000 0.75023  0.24569  0.58871  Biso   1.000  C
  C144     1.0000 0.75431  0.50455  0.58871  Biso   1.000  C
  C145     1.0000 0.83525  0.47269  0.03293  Biso   1.000  C
  C146     1.0000 0.52731  0.36256  0.03293  Biso   1.000  C
  C147     1.0000 0.63744  0.16475  0.03293  Biso   1.000  C
  C148     1.0000 0.50192  0.80602  0.36626  Biso   1.000  C
  C149     1.0000 0.19398  0.69589  0.36626  Biso   1.000  C
  C150     1.0000 0.30411  0.49808  0.36626  Biso   1.000  C
  C151     1.0000 0.16858  0.13936  0.69960  Biso   1.000  C
  C152     1.0000 0.86064  0.02923  0.69960  Biso   1.000  C
  C153     1.0000 0.97077  0.83142  0.69960  Biso   1.000  C
  C154     1.0000 0.16475  0.52731  0.96707  Biso   1.000  C
  C155     1.0000 0.47269  0.63744  0.96707  Biso   1.000  C
  C156     1.0000 0.36256  0.83525  0.96707  Biso   1.000  C
  C157     1.0000 0.83142  0.86064  0.30040  Biso   1.000  C
  C158     1.0000 0.13936  0.97077  0.30040  Biso   1.000  C
  C159     1.0000 0.02923  0.16858  0.30040  Biso   1.000  C
  C160     1.0000 0.49808  0.19398  0.63374  Biso   1.000  C
  C161     1.0000 0.80602  0.30411  0.63374  Biso   1.000  C
  C162     1.0000 0.69589  0.50192  0.63374  Biso   1.000  C
  C163     1.0000 0.92242  0.56454  0.02018  Biso   1.000  C
  C164     1.0000 0.43546  0.35788  0.02018  Biso   1.000  C
  C165     1.0000 0.64212  0.07758  0.02018  Biso   1.000  C
  C166     1.0000 0.58909  0.89787  0.35351  Biso   1.000  C
  C167     1.0000 0.10213  0.69121  0.35351  Biso   1.000  C
  C168     1.0000 0.30879  0.41091  0.35351  Biso   1.000  C
  C169     1.0000 0.25575  0.23121  0.68685  Biso   1.000  C
  C170     1.0000 0.76879  0.02455  0.68685  Biso   1.000  C
  C171     1.0000 0.97545  0.74425  0.68685  Biso   1.000  C
  C172     1.0000 0.07758  0.43546  0.97982  Biso   1.000  C
  C173     1.0000 0.56454  0.64212  0.97982  Biso   1.000  C
  C174     1.0000 0.35788  0.92242  0.97982  Biso   1.000  C
  C175     1.0000 0.74425  0.76879  0.31315  Biso   1.000  C
  C176     1.0000 0.23121  0.97545  0.31315  Biso   1.000  C
  C177     1.0000 0.02455  0.25575  0.31315  Biso   1.000  C
  C178     1.0000 0.41091  0.10213  0.64649  Biso   1.000  C
  C179     1.0000 0.89787  0.30879  0.64649  Biso   1.000  C
  C180     1.0000 0.69121  0.58909  0.64649  Biso   1.000  C
  C181     1.0000 0.00823  0.59605  0.05287  Biso   1.000  C
  C182     1.0000 0.40395  0.41218  0.05287  Biso   1.000  C
  C183     1.0000 0.58782  0.99177  0.05287  Biso   1.000  C
  C184     1.0000 0.67490  0.92938  0.38620  Biso   1.000  C
  C185     1.0000 0.07062  0.74551  0.38620  Biso   1.000  C
  C186     1.0000 0.25449  0.32510  0.38620  Biso   1.000  C
  C187     1.0000 0.34156  0.26272  0.71954  Biso   1.000  C
  C188     1.0000 0.73728  0.07885  0.71954  Biso   1.000  C
  C189     1.0000 0.92115  0.65844  0.71954  Biso   1.000  C
  C190     1.0000 0.99177  0.40395  0.94713  Biso   1.000  C
  C191     1.0000 0.59605  0.58782  0.94713  Biso   1.000  C
  C192     1.0000 0.41218  0.00823  0.94713  Biso   1.000  C
  C193     1.0000 0.65844  0.73728  0.28046  Biso   1.000  C
  C194     1.0000 0.26272  0.92115  0.28046  Biso   1.000  C
  C195     1.0000 0.07885  0.34156  0.28046  Biso   1.000  C
  C196     1.0000 0.32510  0.07062  0.61380  Biso   1.000  C
  C197     1.0000 0.92938  0.25449  0.61380  Biso   1.000  C
  C198     1.0000 0.74551  0.67490  0.61380  Biso   1.000  C
  H1       1.0000 0.68080  0.11760  0.19590  Biso   1.000  H
  H2       1.0000 0.88240  0.56320  0.19590  Biso   1.000  H
  H3       1.0000 0.43680  0.31920  0.19590  Biso   1.000  H
  H4       1.0000 0.34747  0.45093  0.52923  Biso   1.000  H
  H5       1.0000 0.54907  0.89653  0.52923  Biso   1.000  H
  H6       1.0000 0.10347  0.65253  0.52923  Biso   1.000  H
  H7       1.0000 0.01413  0.78427  0.86257  Biso   1.000  H
  H8       1.0000 0.21573  0.22987  0.86257  Biso   1.000  H
  H9       1.0000 0.77013  0.98587  0.86257  Biso   1.000  H
  H10      1.0000 0.31920  0.88240  0.80410  Biso   1.000  H
  H11      1.0000 0.11760  0.43680  0.80410  Biso   1.000  H
  H12      1.0000 0.56320  0.68080  0.80410  Biso   1.000  H
  H13      1.0000 0.98587  0.21573  0.13743  Biso   1.000  H
  H14      1.0000 0.78427  0.77013  0.13743  Biso   1.000  H
  H15      1.0000 0.22987  0.01413  0.13743  Biso   1.000  H
  H16      1.0000 0.65253  0.54907  0.47077  Biso   1.000  H
  H17      1.0000 0.45093  0.10347  0.47077  Biso   1.000  H
  H18      1.0000 0.89653  0.34747  0.47077  Biso   1.000  H
  H19      1.0000 0.79490  0.20390  0.19960  Biso   1.000  H
  H20      1.0000 0.79610  0.59100  0.19960  Biso   1.000  H
  H21      1.0000 0.40900  0.20510  0.19960  Biso   1.000  H
  H22      1.0000 0.46157  0.53723  0.53293  Biso   1.000  H
  H23      1.0000 0.46277  0.92433  0.53293  Biso   1.000  H
  H24      1.0000 0.07567  0.53843  0.53293  Biso   1.000  H
  H25      1.0000 0.12823  0.87057  0.86627  Biso   1.000  H
  H26      1.0000 0.12943  0.25767  0.86627  Biso   1.000  H
  H27      1.0000 0.74233  0.87177  0.86627  Biso   1.000  H
  H28      1.0000 0.20510  0.79610  0.80040  Biso   1.000  H
  H29      1.0000 0.20390  0.40900  0.80040  Biso   1.000  H
  H30      1.0000 0.59100  0.79490  0.80040  Biso   1.000  H
  H31      1.0000 0.87177  0.12943  0.13373  Biso   1.000  H
  H32      1.0000 0.87057  0.74233  0.13373  Biso   1.000  H
  H33      1.0000 0.25767  0.12823  0.13373  Biso   1.000  H
  H34      1.0000 0.53843  0.46277  0.46707  Biso   1.000  H
  H35      1.0000 0.53723  0.07567  0.46707  Biso   1.000  H
  H36      1.0000 0.92433  0.46157  0.46707  Biso   1.000  H
  H37      1.0000 0.79910  0.19250  0.29150  Biso   1.000  H
  H38      1.0000 0.80750  0.60660  0.29150  Biso   1.000  H
  H39      1.0000 0.39340  0.20090  0.29150  Biso   1.000  H
  H40      1.0000 0.46577  0.52583  0.62483  Biso   1.000  H
  H41      1.0000 0.47417  0.93993  0.62483  Biso   1.000  H
  H42      1.0000 0.06007  0.53423  0.62483  Biso   1.000  H
  H43      1.0000 0.13243  0.85917  0.95817  Biso   1.000  H
  H44      1.0000 0.14083  0.27327  0.95817  Biso   1.000  H
  H45      1.0000 0.72673  0.86757  0.95817  Biso   1.000  H
  H46      1.0000 0.20090  0.80750  0.70850  Biso   1.000  H
  H47      1.0000 0.19250  0.39340  0.70850  Biso   1.000  H
  H48      1.0000 0.60660  0.79910  0.70850  Biso   1.000  H
  H49      1.0000 0.86757  0.14083  0.04183  Biso   1.000  H
  H50      1.0000 0.85917  0.72673  0.04183  Biso   1.000  H
  H51      1.0000 0.27327  0.13243  0.04183  Biso   1.000  H
  H52      1.0000 0.53423  0.47417  0.37517  Biso   1.000  H
  H53      1.0000 0.52583  0.06007  0.37517  Biso   1.000  H
  H54      1.0000 0.93993  0.46577  0.37517  Biso   1.000  H
  H55      1.0000 0.71740  0.07920  0.27880  Biso   1.000  H
  H56      1.0000 0.92080  0.63820  0.27880  Biso   1.000  H
  H57      1.0000 0.36180  0.28260  0.27880  Biso   1.000  H
  H58      1.0000 0.38407  0.41253  0.61213  Biso   1.000  H
  H59      1.0000 0.58747  0.97153  0.61213  Biso   1.000  H
  H60      1.0000 0.02847  0.61593  0.61213  Biso   1.000  H
  H61      1.0000 0.05073  0.74587  0.94547  Biso   1.000  H
  H62      1.0000 0.25413  0.30487  0.94547  Biso   1.000  H
  H63      1.0000 0.69513  0.94927  0.94547  Biso   1.000  H
  H64      1.0000 0.28260  0.92080  0.72120  Biso   1.000  H
  H65      1.0000 0.07920  0.36180  0.72120  Biso   1.000  H
  H66      1.0000 0.63820  0.71740  0.72120  Biso   1.000  H
  H67      1.0000 0.94927  0.25413  0.05453  Biso   1.000  H
  H68      1.0000 0.74587  0.69513  0.05453  Biso   1.000  H
  H69      1.0000 0.30487  0.05073  0.05453  Biso   1.000  H
  H70      1.0000 0.61593  0.58747  0.38787  Biso   1.000  H
  H71      1.0000 0.41253  0.02847  0.38787  Biso   1.000  H
  H72      1.0000 0.97153  0.38407  0.38787  Biso   1.000  H
  H73      1.0000 0.68320  0.15640  0.29770  Biso   1.000  H
  H74      1.0000 0.84360  0.52680  0.29770  Biso   1.000  H
  H75      1.0000 0.47320  0.31680  0.29770  Biso   1.000  H
  H76      1.0000 0.34987  0.48973  0.63103  Biso   1.000  H
  H77      1.0000 0.51027  0.86013  0.63103  Biso   1.000  H
  H78      1.0000 0.13987  0.65013  0.63103  Biso   1.000  H
  H79      1.0000 0.01653  0.82307  0.96437  Biso   1.000  H
  H80      1.0000 0.17693  0.19347  0.96437  Biso   1.000  H
  H81      1.0000 0.80653  0.98347  0.96437  Biso   1.000  H
  H82      1.0000 0.31680  0.84360  0.70230  Biso   1.000  H
  H83      1.0000 0.15640  0.47320  0.70230  Biso   1.000  H
  H84      1.0000 0.52680  0.68320  0.70230  Biso   1.000  H
  H85      1.0000 0.98347  0.17693  0.03563  Biso   1.000  H
  H86      1.0000 0.82307  0.80653  0.03563  Biso   1.000  H
  H87      1.0000 0.19347  0.01653  0.03563  Biso   1.000  H
  H88      1.0000 0.65013  0.51027  0.36897  Biso   1.000  H
  H89      1.0000 0.48973  0.13987  0.36897  Biso   1.000  H
  H90      1.0000 0.86013  0.34987  0.36897  Biso   1.000  H
  H91      1.0000 0.92220  0.46400  0.22470  Biso   1.000  H
  H92      1.0000 0.53600  0.45820  0.22470  Biso   1.000  H
  H93      1.0000 0.54180  0.07780  0.22470  Biso   1.000  H
  H94      1.0000 0.58887  0.79733  0.55803  Biso   1.000  H
  H95      1.0000 0.20267  0.79153  0.55803  Biso   1.000  H
  H96      1.0000 0.20847  0.41113  0.55803  Biso   1.000  H
  H97      1.0000 0.25553  0.13067  0.89137  Biso   1.000  H
  H98      1.0000 0.86933  0.12487  0.89137  Biso   1.000  H
  H99      1.0000 0.87513  0.74447  0.89137  Biso   1.000  H
  H100     1.0000 0.07780  0.53600  0.77530  Biso   1.000  H
  H101     1.0000 0.46400  0.54180  0.77530  Biso   1.000  H
  H102     1.0000 0.45820  0.92220  0.77530  Biso   1.000  H
  H103     1.0000 0.74447  0.86933  0.10863  Biso   1.000  H
  H104     1.0000 0.13067  0.87513  0.10863  Biso   1.000  H
  H105     1.0000 0.12487  0.25553  0.10863  Biso   1.000  H
  H106     1.0000 0.41113  0.20267  0.44197  Biso   1.000  H
  H107     1.0000 0.79733  0.20847  0.44197  Biso   1.000  H
  H108     1.0000 0.79153  0.58887  0.44197  Biso   1.000  H
  H109     1.0000 0.89280  0.35200  0.23930  Biso   1.000  H
  H110     1.0000 0.64800  0.54080  0.23930  Biso   1.000  H
  H111     1.0000 0.45920  0.10720  0.23930  Biso   1.000  H
  H112     1.0000 0.55947  0.68533  0.57263  Biso   1.000  H
  H113     1.0000 0.31467  0.87413  0.57263  Biso   1.000  H
  H114     1.0000 0.12587  0.44053  0.57263  Biso   1.000  H
  H115     1.0000 0.22613  0.01867  0.90597  Biso   1.000  H
  H116     1.0000 0.98133  0.20747  0.90597  Biso   1.000  H
  H117     1.0000 0.79253  0.77387  0.90597  Biso   1.000  H
  H118     1.0000 0.10720  0.64800  0.76070  Biso   1.000  H
  H119     1.0000 0.35200  0.45920  0.76070  Biso   1.000  H
  H120     1.0000 0.54080  0.89280  0.76070  Biso   1.000  H
  H121     1.0000 0.77387  0.98133  0.09403  Biso   1.000  H
  H122     1.0000 0.01867  0.79253  0.09403  Biso   1.000  H
  H123     1.0000 0.20747  0.22613  0.09403  Biso   1.000  H
  H124     1.0000 0.44053  0.31467  0.42737  Biso   1.000  H
  H125     1.0000 0.68533  0.12587  0.42737  Biso   1.000  H
  H126     1.0000 0.87413  0.55947  0.42737  Biso   1.000  H
  H127     1.0000 0.00190  0.40760  0.16240  Biso   1.000  H
  H128     1.0000 0.59240  0.59430  0.16240  Biso   1.000  H
  H129     1.0000 0.40570  0.99810  0.16240  Biso   1.000  H
  H130     1.0000 0.66857  0.74093  0.49573  Biso   1.000  H
  H131     1.0000 0.25907  0.92763  0.49573  Biso   1.000  H
  H132     1.0000 0.07237  0.33143  0.49573  Biso   1.000  H
  H133     1.0000 0.33523  0.07427  0.82907  Biso   1.000  H
  H134     1.0000 0.92573  0.26097  0.82907  Biso   1.000  H
  H135     1.0000 0.73903  0.66477  0.82907  Biso   1.000  H
  H136     1.0000 0.99810  0.59240  0.83760  Biso   1.000  H
  H137     1.0000 0.40760  0.40570  0.83760  Biso   1.000  H
  H138     1.0000 0.59430  0.00190  0.83760  Biso   1.000  H
  H139     1.0000 0.66477  0.92573  0.17093  Biso   1.000  H
  H140     1.0000 0.07427  0.73903  0.17093  Biso   1.000  H
  H141     1.0000 0.26097  0.33523  0.17093  Biso   1.000  H
  H142     1.0000 0.33143  0.25907  0.50427  Biso   1.000  H
  H143     1.0000 0.74093  0.07237  0.50427  Biso   1.000  H
  H144     1.0000 0.92763  0.66857  0.50427  Biso   1.000  H
  H145     1.0000 0.89530  0.31760  0.14460  Biso   1.000  H
  H146     1.0000 0.68240  0.57770  0.14460  Biso   1.000  H
  H147     1.0000 0.42230  0.10470  0.14460  Biso   1.000  H
  H148     1.0000 0.56197  0.65093  0.47793  Biso   1.000  H
  H149     1.0000 0.34907  0.91103  0.47793  Biso   1.000  H
  H150     1.0000 0.08897  0.43803  0.47793  Biso   1.000  H
  H151     1.0000 0.22863  0.98427  0.81127  Biso   1.000  H
  H152     1.0000 0.01573  0.24437  0.81127  Biso   1.000  H
  H153     1.0000 0.75563  0.77137  0.81127  Biso   1.000  H
  H154     1.0000 0.10470  0.68240  0.85540  Biso   1.000  H
  H155     1.0000 0.31760  0.42230  0.85540  Biso   1.000  H
  H156     1.0000 0.57770  0.89530  0.85540  Biso   1.000  H
  H157     1.0000 0.77137  0.01573  0.18873  Biso   1.000  H
  H158     1.0000 0.98427  0.75563  0.18873  Biso   1.000  H
  H159     1.0000 0.24437  0.22863  0.18873  Biso   1.000  H
  H160     1.0000 0.43803  0.34907  0.52207  Biso   1.000  H
  H161     1.0000 0.65093  0.08897  0.52207  Biso   1.000  H
  H162     1.0000 0.91103  0.56197  0.52207  Biso   1.000  H
  H163     1.0000 0.77840  0.35410  0.08790  Biso   1.000  H
  H164     1.0000 0.64590  0.42430  0.08790  Biso   1.000  H
  H165     1.0000 0.57570  0.22160  0.08790  Biso   1.000  H
  H166     1.0000 0.44507  0.68743  0.42123  Biso   1.000  H
  H167     1.0000 0.31257  0.75763  0.42123  Biso   1.000  H
  H168     1.0000 0.24237  0.55493  0.42123  Biso   1.000  H
  H169     1.0000 0.11173  0.02077  0.75457  Biso   1.000  H
  H170     1.0000 0.97923  0.09097  0.75457  Biso   1.000  H
  H171     1.0000 0.90903  0.88827  0.75457  Biso   1.000  H
  H172     1.0000 0.22160  0.64590  0.91210  Biso   1.000  H
  H173     1.0000 0.35410  0.57570  0.91210  Biso   1.000  H
  H174     1.0000 0.42430  0.77840  0.91210  Biso   1.000  H
  H175     1.0000 0.88827  0.97923  0.24543  Biso   1.000  H
  H176     1.0000 0.02077  0.90903  0.24543  Biso   1.000  H
  H177     1.0000 0.09097  0.11173  0.24543  Biso   1.000  H
  H178     1.0000 0.55493  0.31257  0.57877  Biso   1.000  H
  H179     1.0000 0.68743  0.24237  0.57877  Biso   1.000  H
  H180     1.0000 0.75763  0.44507  0.57877  Biso   1.000  H
  H181     1.0000 0.77460  0.44850  0.01100  Biso   1.000  H
  H182     1.0000 0.55150  0.32610  0.01100  Biso   1.000  H
  H183     1.0000 0.67390  0.22540  0.01100  Biso   1.000  H
  H184     1.0000 0.44127  0.78183  0.34433  Biso   1.000  H
  H185     1.0000 0.21817  0.65943  0.34433  Biso   1.000  H
  H186     1.0000 0.34057  0.55873  0.34433  Biso   1.000  H
  H187     1.0000 0.10793  0.11517  0.67767  Biso   1.000  H
  H188     1.0000 0.88483  0.99277  0.67767  Biso   1.000  H
  H189     1.0000 0.00723  0.89207  0.67767  Biso   1.000  H
  H190     1.0000 0.22540  0.55150  0.98900  Biso   1.000  H
  H191     1.0000 0.44850  0.67390  0.98900  Biso   1.000  H
  H192     1.0000 0.32610  0.77460  0.98900  Biso   1.000  H
  H193     1.0000 0.89207  0.88483  0.32233  Biso   1.000  H
  H194     1.0000 0.11517  0.00723  0.32233  Biso   1.000  H
  H195     1.0000 0.99277  0.10793  0.32233  Biso   1.000  H
  H196     1.0000 0.55873  0.21817  0.65567  Biso   1.000  H
  H197     1.0000 0.78183  0.34057  0.65567  Biso   1.000  H
  H198     1.0000 0.65943  0.44127  0.65567  Biso   1.000  H
  H199     1.0000 0.92280  0.60510  0.98940  Biso   1.000  H
  H200     1.0000 0.39490  0.31770  0.98940  Biso   1.000  H
  H201     1.0000 0.68230  0.07720  0.98940  Biso   1.000  H
  H202     1.0000 0.58947  0.93843  0.32273  Biso   1.000  H
  H203     1.0000 0.06157  0.65103  0.32273  Biso   1.000  H
  H204     1.0000 0.34897  0.41053  0.32273  Biso   1.000  H
  H205     1.0000 0.25613  0.27177  0.65607  Biso   1.000  H
  H206     1.0000 0.72823  0.98437  0.65607  Biso   1.000  H
  H207     1.0000 0.01563  0.74387  0.65607  Biso   1.000  H
  H208     1.0000 0.07720  0.39490  0.01060  Biso   1.000  H
  H209     1.0000 0.60510  0.68230  0.01060  Biso   1.000  H
  H210     1.0000 0.31770  0.92280  0.01060  Biso   1.000  H
  H211     1.0000 0.74387  0.72823  0.34393  Biso   1.000  H
  H212     1.0000 0.27177  0.01563  0.34393  Biso   1.000  H
  H213     1.0000 0.98437  0.25613  0.34393  Biso   1.000  H
  H214     1.0000 0.41053  0.06157  0.67727  Biso   1.000  H
  H215     1.0000 0.93843  0.34897  0.67727  Biso   1.000  H
  H216     1.0000 0.65103  0.58947  0.67727  Biso   1.000  H
  H217     1.0000 0.06770  0.66010  0.04460  Biso   1.000  H
  H218     1.0000 0.33990  0.40760  0.04460  Biso   1.000  H
  H219     1.0000 0.59240  0.93230  0.04460  Biso   1.000  H
  H220     1.0000 0.73437  0.99343  0.37793  Biso   1.000  H
  H221     1.0000 0.00657  0.74093  0.37793  Biso   1.000  H
  H222     1.0000 0.25907  0.26563  0.37793  Biso   1.000  H
  H223     1.0000 0.40103  0.32677  0.71127  Biso   1.000  H
  H224     1.0000 0.67323  0.07427  0.71127  Biso   1.000  H
  H225     1.0000 0.92573  0.59897  0.71127  Biso   1.000  H
  H226     1.0000 0.93230  0.33990  0.95540  Biso   1.000  H
  H227     1.0000 0.66010  0.59240  0.95540  Biso   1.000  H
  H228     1.0000 0.40760  0.06770  0.95540  Biso   1.000  H
  H229     1.0000 0.59897  0.67323  0.28873  Biso   1.000  H
  H230     1.0000 0.32677  0.92573  0.28873  Biso   1.000  H
  H231     1.0000 0.07427  0.40103  0.28873  Biso   1.000  H
  H232     1.0000 0.26563  0.00657  0.62207  Biso   1.000  H
  H233     1.0000 0.99343  0.25907  0.62207  Biso   1.000  H
  H234     1.0000 0.74093  0.73437  0.62207  Biso   1.000  H
