data_image0
_cell_length_a       15.3547
_cell_length_b       15.3547
_cell_length_c       25.539
_cell_angle_alpha    90
_cell_angle_beta     90
_cell_angle_gamma    120

_symmetry_space_group_name_H-M    "P 1"
_symmetry_int_tables_number       1

loop_
  _symmetry_equiv_pos_as_xyz
  'x, y, z'

loop_
  _atom_site_label
  _atom_site_occupancy
  _atom_site_fract_x
  _atom_site_fract_y
  _atom_site_fract_z
  _atom_site_thermal_displace_type
  _atom_site_B_iso_or_equiv
  _atom_site_type_symbol
  I1       1.0000 0.26214  0.77648  0.09522  Biso   1.000  I
  I2       1.0000 0.22352  0.48566  0.09522  Biso   1.000  I
  I3       1.0000 0.51434  0.73786  0.09522  Biso   1.000  I
  I4       1.0000 0.92881  0.10981  0.42855  Biso   1.000  I
  I5       1.0000 0.89019  0.81899  0.42855  Biso   1.000  I
  I6       1.0000 0.18101  0.07119  0.42855  Biso   1.000  I
  I7       1.0000 0.59547  0.44315  0.76189  Biso   1.000  I
  I8       1.0000 0.55685  0.15233  0.76189  Biso   1.000  I
  I9       1.0000 0.84767  0.40453  0.76189  Biso   1.000  I
  I10      1.0000 0.73786  0.22352  0.90478  Biso   1.000  I
  I11      1.0000 0.77648  0.51434  0.90478  Biso   1.000  I
  I12      1.0000 0.48566  0.26214  0.90478  Biso   1.000  I
  I13      1.0000 0.40453  0.55685  0.23811  Biso   1.000  I
  I14      1.0000 0.44315  0.84767  0.23811  Biso   1.000  I
  I15      1.0000 0.15233  0.59547  0.23811  Biso   1.000  I
  I16      1.0000 0.07119  0.89019  0.57145  Biso   1.000  I
  I17      1.0000 0.10981  0.18101  0.57145  Biso   1.000  I
  I18      1.0000 0.81899  0.92881  0.57145  Biso   1.000  I
  Cu1      1.0000 0.14410  0.58963  0.13644  Biso   1.000  Cu
  Cu2      1.0000 0.41037  0.55447  0.13644  Biso   1.000  Cu
  Cu3      1.0000 0.44553  0.85590  0.13644  Biso   1.000  Cu
  Cu4      1.0000 0.81077  0.92296  0.46977  Biso   1.000  Cu
  Cu5      1.0000 0.07704  0.88780  0.46977  Biso   1.000  Cu
  Cu6      1.0000 0.11220  0.18923  0.46977  Biso   1.000  Cu
  Cu7      1.0000 0.47743  0.25630  0.80311  Biso   1.000  Cu
  Cu8      1.0000 0.74370  0.22114  0.80311  Biso   1.000  Cu
  Cu9      1.0000 0.77886  0.52257  0.80311  Biso   1.000  Cu
  Cu10     1.0000 0.85590  0.41037  0.86356  Biso   1.000  Cu
  Cu11     1.0000 0.58963  0.44553  0.86356  Biso   1.000  Cu
  Cu12     1.0000 0.55447  0.14410  0.86356  Biso   1.000  Cu
  Cu13     1.0000 0.52257  0.74370  0.19689  Biso   1.000  Cu
  Cu14     1.0000 0.25630  0.77886  0.19689  Biso   1.000  Cu
  Cu15     1.0000 0.22114  0.47743  0.19689  Biso   1.000  Cu
  Cu16     1.0000 0.18923  0.07704  0.53023  Biso   1.000  Cu
  Cu17     1.0000 0.92296  0.11220  0.53023  Biso   1.000  Cu
  Cu18     1.0000 0.88780  0.81077  0.53023  Biso   1.000  Cu
  N1       1.0000 0.00353  0.53367  0.10337  Biso   1.000  N
  N2       1.0000 0.46633  0.46986  0.10337  Biso   1.000  N
  N3       1.0000 0.53014  0.99647  0.10337  Biso   1.000  N
  N4       1.0000 0.67020  0.86700  0.43670  Biso   1.000  N
  N5       1.0000 0.13300  0.80319  0.43670  Biso   1.000  N
  N6       1.0000 0.19681  0.32980  0.43670  Biso   1.000  N
  N7       1.0000 0.33686  0.20034  0.77004  Biso   1.000  N
  N8       1.0000 0.79966  0.13653  0.77004  Biso   1.000  N
  N9       1.0000 0.86347  0.66314  0.77004  Biso   1.000  N
  N10      1.0000 0.99647  0.46633  0.89663  Biso   1.000  N
  N11      1.0000 0.53367  0.53014  0.89663  Biso   1.000  N
  N12      1.0000 0.46986  0.00353  0.89663  Biso   1.000  N
  N13      1.0000 0.66314  0.79966  0.22996  Biso   1.000  N
  N14      1.0000 0.20034  0.86347  0.22996  Biso   1.000  N
  N15      1.0000 0.13653  0.33686  0.22996  Biso   1.000  N
  N16      1.0000 0.32980  0.13300  0.56330  Biso   1.000  N
  N17      1.0000 0.86700  0.19681  0.56330  Biso   1.000  N
  N18      1.0000 0.80319  0.67020  0.56330  Biso   1.000  N
  C1       1.0000 0.76831  0.35880  0.20809  Biso   1.000  C
  C2       1.0000 0.64120  0.40951  0.20809  Biso   1.000  C
  C3       1.0000 0.59049  0.23169  0.20809  Biso   1.000  C
  C4       1.0000 0.43498  0.69213  0.54142  Biso   1.000  C
  C5       1.0000 0.30787  0.74284  0.54142  Biso   1.000  C
  C6       1.0000 0.25716  0.56502  0.54142  Biso   1.000  C
  C7       1.0000 0.10164  0.02547  0.87476  Biso   1.000  C
  C8       1.0000 0.97453  0.07618  0.87476  Biso   1.000  C
  C9       1.0000 0.92382  0.89836  0.87476  Biso   1.000  C
  C10      1.0000 0.23169  0.64120  0.79191  Biso   1.000  C
  C11      1.0000 0.35880  0.59049  0.79191  Biso   1.000  C
  C12      1.0000 0.40951  0.76831  0.79191  Biso   1.000  C
  C13      1.0000 0.89836  0.97453  0.12524  Biso   1.000  C
  C14      1.0000 0.02547  0.92382  0.12524  Biso   1.000  C
  C15      1.0000 0.07618  0.10164  0.12524  Biso   1.000  C
  C16      1.0000 0.56502  0.30787  0.45858  Biso   1.000  C
  C17      1.0000 0.69213  0.25716  0.45858  Biso   1.000  C
  C18      1.0000 0.74284  0.43498  0.45858  Biso   1.000  C
  C19      1.0000 0.69170  0.25710  0.20800  Biso   1.000  C
  C20      1.0000 0.74290  0.43460  0.20800  Biso   1.000  C
  C21      1.0000 0.56540  0.30830  0.20800  Biso   1.000  C
  C22      1.0000 0.35837  0.59043  0.54133  Biso   1.000  C
  C23      1.0000 0.40957  0.76793  0.54133  Biso   1.000  C
  C24      1.0000 0.23207  0.64163  0.54133  Biso   1.000  C
  C25      1.0000 0.02503  0.92377  0.87467  Biso   1.000  C
  C26      1.0000 0.07623  0.10127  0.87467  Biso   1.000  C
  C27      1.0000 0.89873  0.97497  0.87467  Biso   1.000  C
  C28      1.0000 0.30830  0.74290  0.79200  Biso   1.000  C
  C29      1.0000 0.25710  0.56540  0.79200  Biso   1.000  C
  C30      1.0000 0.43460  0.69170  0.79200  Biso   1.000  C
  C31      1.0000 0.97497  0.07623  0.12533  Biso   1.000  C
  C32      1.0000 0.92377  0.89873  0.12533  Biso   1.000  C
  C33      1.0000 0.10127  0.02503  0.12533  Biso   1.000  C
  C34      1.0000 0.64163  0.40957  0.45867  Biso   1.000  C
  C35      1.0000 0.59043  0.23207  0.45867  Biso   1.000  C
  C36      1.0000 0.76793  0.35837  0.45867  Biso   1.000  C
  C37      1.0000 0.71870  0.17420  0.21324  Biso   1.000  C
  C38      1.0000 0.82580  0.54450  0.21324  Biso   1.000  C
  C39      1.0000 0.45550  0.28130  0.21324  Biso   1.000  C
  C40      1.0000 0.38537  0.50753  0.54657  Biso   1.000  C
  C41      1.0000 0.49247  0.87783  0.54657  Biso   1.000  C
  C42      1.0000 0.12217  0.61463  0.54657  Biso   1.000  C
  C43      1.0000 0.05203  0.84087  0.87991  Biso   1.000  C
  C44      1.0000 0.15913  0.21117  0.87991  Biso   1.000  C
  C45      1.0000 0.78883  0.94797  0.87991  Biso   1.000  C
  C46      1.0000 0.28130  0.82580  0.78676  Biso   1.000  C
  C47      1.0000 0.17420  0.45550  0.78676  Biso   1.000  C
  C48      1.0000 0.54450  0.71870  0.78676  Biso   1.000  C
  C49      1.0000 0.94797  0.15913  0.12009  Biso   1.000  C
  C50      1.0000 0.84087  0.78883  0.12009  Biso   1.000  C
  C51      1.0000 0.21117  0.05203  0.12009  Biso   1.000  C
  C52      1.0000 0.61463  0.49247  0.45343  Biso   1.000  C
  C53      1.0000 0.50753  0.12217  0.45343  Biso   1.000  C
  C54      1.0000 0.87783  0.38537  0.45343  Biso   1.000  C
  C55      1.0000 0.72090  0.14520  0.27042  Biso   1.000  C
  C56      1.0000 0.85480  0.57570  0.27042  Biso   1.000  C
  C57      1.0000 0.42430  0.27910  0.27042  Biso   1.000  C
  C58      1.0000 0.38757  0.47853  0.60375  Biso   1.000  C
  C59      1.0000 0.52147  0.90903  0.60375  Biso   1.000  C
  C60      1.0000 0.09097  0.61243  0.60375  Biso   1.000  C
  C61      1.0000 0.05423  0.81187  0.93709  Biso   1.000  C
  C62      1.0000 0.18813  0.24237  0.93709  Biso   1.000  C
  C63      1.0000 0.75763  0.94577  0.93709  Biso   1.000  C
  C64      1.0000 0.27910  0.85480  0.72958  Biso   1.000  C
  C65      1.0000 0.14520  0.42430  0.72958  Biso   1.000  C
  C66      1.0000 0.57570  0.72090  0.72958  Biso   1.000  C
  C67      1.0000 0.94577  0.18813  0.06291  Biso   1.000  C
  C68      1.0000 0.81187  0.75763  0.06291  Biso   1.000  C
  C69      1.0000 0.24237  0.05423  0.06291  Biso   1.000  C
  C70      1.0000 0.61243  0.52147  0.39625  Biso   1.000  C
  C71      1.0000 0.47853  0.09097  0.39625  Biso   1.000  C
  C72      1.0000 0.90903  0.38757  0.39625  Biso   1.000  C
  C73      1.0000 0.87890  0.38530  0.20977  Biso   1.000  C
  C74      1.0000 0.61470  0.49360  0.20977  Biso   1.000  C
  C75      1.0000 0.50640  0.12110  0.20977  Biso   1.000  C
  C76      1.0000 0.54557  0.71863  0.54310  Biso   1.000  C
  C77      1.0000 0.28137  0.82693  0.54310  Biso   1.000  C
  C78      1.0000 0.17307  0.45443  0.54310  Biso   1.000  C
  C79      1.0000 0.21223  0.05197  0.87644  Biso   1.000  C
  C80      1.0000 0.94803  0.16027  0.87644  Biso   1.000  C
  C81      1.0000 0.83973  0.78777  0.87644  Biso   1.000  C
  C82      1.0000 0.12110  0.61470  0.79023  Biso   1.000  C
  C83      1.0000 0.38530  0.50640  0.79023  Biso   1.000  C
  C84      1.0000 0.49360  0.87890  0.79023  Biso   1.000  C
  C85      1.0000 0.78777  0.94803  0.12356  Biso   1.000  C
  C86      1.0000 0.05197  0.83973  0.12356  Biso   1.000  C
  C87      1.0000 0.16027  0.21223  0.12356  Biso   1.000  C
  C88      1.0000 0.45443  0.28137  0.45690  Biso   1.000  C
  C89      1.0000 0.71863  0.17307  0.45690  Biso   1.000  C
  C90      1.0000 0.82693  0.54557  0.45690  Biso   1.000  C
  C91      1.0000 0.92540  0.37980  0.15739  Biso   1.000  C
  C92      1.0000 0.62020  0.54560  0.15739  Biso   1.000  C
  C93      1.0000 0.45440  0.07460  0.15739  Biso   1.000  C
  C94      1.0000 0.59207  0.71313  0.49072  Biso   1.000  C
  C95      1.0000 0.28687  0.87893  0.49072  Biso   1.000  C
  C96      1.0000 0.12107  0.40793  0.49072  Biso   1.000  C
  C97      1.0000 0.25873  0.04647  0.82406  Biso   1.000  C
  C98      1.0000 0.95353  0.21227  0.82406  Biso   1.000  C
  C99      1.0000 0.78773  0.74127  0.82406  Biso   1.000  C
  C100     1.0000 0.07460  0.62020  0.84261  Biso   1.000  C
  C101     1.0000 0.37980  0.45440  0.84261  Biso   1.000  C
  C102     1.0000 0.54560  0.92540  0.84261  Biso   1.000  C
  C103     1.0000 0.74127  0.95353  0.17594  Biso   1.000  C
  C104     1.0000 0.04647  0.78773  0.17594  Biso   1.000  C
  C105     1.0000 0.21227  0.25873  0.17594  Biso   1.000  C
  C106     1.0000 0.40793  0.28687  0.50928  Biso   1.000  C
  C107     1.0000 0.71313  0.12107  0.50928  Biso   1.000  C
  C108     1.0000 0.87893  0.59207  0.50928  Biso   1.000  C
  C109     1.0000 0.92190  0.44270  0.11368  Biso   1.000  C
  C110     1.0000 0.55730  0.47920  0.11368  Biso   1.000  C
  C111     1.0000 0.52080  0.07810  0.11368  Biso   1.000  C
  C112     1.0000 0.58857  0.77603  0.44701  Biso   1.000  C
  C113     1.0000 0.22397  0.81253  0.44701  Biso   1.000  C
  C114     1.0000 0.18747  0.41143  0.44701  Biso   1.000  C
  C115     1.0000 0.25523  0.10937  0.78035  Biso   1.000  C
  C116     1.0000 0.89063  0.14587  0.78035  Biso   1.000  C
  C117     1.0000 0.85413  0.74477  0.78035  Biso   1.000  C
  C118     1.0000 0.07810  0.55730  0.88632  Biso   1.000  C
  C119     1.0000 0.44270  0.52080  0.88632  Biso   1.000  C
  C120     1.0000 0.47920  0.92190  0.88632  Biso   1.000  C
  C121     1.0000 0.74477  0.89063  0.21965  Biso   1.000  C
  C122     1.0000 0.10937  0.85413  0.21965  Biso   1.000  C
  C123     1.0000 0.14587  0.25523  0.21965  Biso   1.000  C
  C124     1.0000 0.41143  0.22397  0.55299  Biso   1.000  C
  C125     1.0000 0.77603  0.18747  0.55299  Biso   1.000  C
  C126     1.0000 0.81253  0.58857  0.55299  Biso   1.000  C
  C127     1.0000 0.83550  0.40630  0.08304  Biso   1.000  C
  C128     1.0000 0.59370  0.42920  0.08304  Biso   1.000  C
  C129     1.0000 0.57080  0.16450  0.08304  Biso   1.000  C
  C130     1.0000 0.50217  0.73963  0.41637  Biso   1.000  C
  C131     1.0000 0.26037  0.76253  0.41637  Biso   1.000  C
  C132     1.0000 0.23747  0.49783  0.41637  Biso   1.000  C
  C133     1.0000 0.16883  0.07297  0.74971  Biso   1.000  C
  C134     1.0000 0.92703  0.09587  0.74971  Biso   1.000  C
  C135     1.0000 0.90413  0.83117  0.74971  Biso   1.000  C
  C136     1.0000 0.16450  0.59370  0.91696  Biso   1.000  C
  C137     1.0000 0.40630  0.57080  0.91696  Biso   1.000  C
  C138     1.0000 0.42920  0.83550  0.91696  Biso   1.000  C
  C139     1.0000 0.83117  0.92703  0.25029  Biso   1.000  C
  C140     1.0000 0.07297  0.90413  0.25029  Biso   1.000  C
  C141     1.0000 0.09587  0.16883  0.25029  Biso   1.000  C
  C142     1.0000 0.49783  0.26037  0.58363  Biso   1.000  C
  C143     1.0000 0.73963  0.23747  0.58363  Biso   1.000  C
  C144     1.0000 0.76253  0.50217  0.58363  Biso   1.000  C
  C145     1.0000 0.83240  0.46210  0.04167  Biso   1.000  C
  C146     1.0000 0.53790  0.37030  0.04167  Biso   1.000  C
  C147     1.0000 0.62970  0.16760  0.04167  Biso   1.000  C
  C148     1.0000 0.49907  0.79543  0.37500  Biso   1.000  C
  C149     1.0000 0.20457  0.70363  0.37500  Biso   1.000  C
  C150     1.0000 0.29637  0.50093  0.37500  Biso   1.000  C
  C151     1.0000 0.16573  0.12877  0.70834  Biso   1.000  C
  C152     1.0000 0.87123  0.03697  0.70834  Biso   1.000  C
  C153     1.0000 0.96303  0.83427  0.70834  Biso   1.000  C
  C154     1.0000 0.16760  0.53790  0.95833  Biso   1.000  C
  C155     1.0000 0.46210  0.62970  0.95833  Biso   1.000  C
  C156     1.0000 0.37030  0.83240  0.95833  Biso   1.000  C
  C157     1.0000 0.83427  0.87123  0.29166  Biso   1.000  C
  C158     1.0000 0.12877  0.96303  0.29166  Biso   1.000  C
  C159     1.0000 0.03697  0.16573  0.29166  Biso   1.000  C
  C160     1.0000 0.50093  0.20457  0.62500  Biso   1.000  C
  C161     1.0000 0.79543  0.29637  0.62500  Biso   1.000  C
  C162     1.0000 0.70363  0.49907  0.62500  Biso   1.000  C
  C163     1.0000 0.91440  0.55510  0.03170  Biso   1.000  C
  C164     1.0000 0.44490  0.35930  0.03170  Biso   1.000  C
  C165     1.0000 0.64070  0.08560  0.03170  Biso   1.000  C
  C166     1.0000 0.58107  0.88843  0.36503  Biso   1.000  C
  C167     1.0000 0.11157  0.69263  0.36503  Biso   1.000  C
  C168     1.0000 0.30737  0.41893  0.36503  Biso   1.000  C
  C169     1.0000 0.24773  0.22177  0.69837  Biso   1.000  C
  C170     1.0000 0.77823  0.02597  0.69837  Biso   1.000  C
  C171     1.0000 0.97403  0.75227  0.69837  Biso   1.000  C
  C172     1.0000 0.08560  0.44490  0.96830  Biso   1.000  C
  C173     1.0000 0.55510  0.64070  0.96830  Biso   1.000  C
  C174     1.0000 0.35930  0.91440  0.96830  Biso   1.000  C
  C175     1.0000 0.75227  0.77823  0.30163  Biso   1.000  C
  C176     1.0000 0.22177  0.97403  0.30163  Biso   1.000  C
  C177     1.0000 0.02597  0.24773  0.30163  Biso   1.000  C
  C178     1.0000 0.41893  0.11157  0.63497  Biso   1.000  C
  C179     1.0000 0.88843  0.30737  0.63497  Biso   1.000  C
  C180     1.0000 0.69263  0.58107  0.63497  Biso   1.000  C
  C181     1.0000 0.99740  0.58780  0.06332  Biso   1.000  C
  C182     1.0000 0.41220  0.40960  0.06332  Biso   1.000  C
  C183     1.0000 0.59040  0.00260  0.06332  Biso   1.000  C
  C184     1.0000 0.66407  0.92113  0.39665  Biso   1.000  C
  C185     1.0000 0.07887  0.74293  0.39665  Biso   1.000  C
  C186     1.0000 0.25707  0.33593  0.39665  Biso   1.000  C
  C187     1.0000 0.33073  0.25447  0.72999  Biso   1.000  C
  C188     1.0000 0.74553  0.07627  0.72999  Biso   1.000  C
  C189     1.0000 0.92373  0.66927  0.72999  Biso   1.000  C
  C190     1.0000 0.00260  0.41220  0.93668  Biso   1.000  C
  C191     1.0000 0.58780  0.59040  0.93668  Biso   1.000  C
  C192     1.0000 0.40960  0.99740  0.93668  Biso   1.000  C
  C193     1.0000 0.66927  0.74553  0.27001  Biso   1.000  C
  C194     1.0000 0.25447  0.92373  0.27001  Biso   1.000  C
  C195     1.0000 0.07627  0.33073  0.27001  Biso   1.000  C
  C196     1.0000 0.33593  0.07887  0.60335  Biso   1.000  C
  C197     1.0000 0.92113  0.25707  0.60335  Biso   1.000  C
  C198     1.0000 0.74293  0.66407  0.60335  Biso   1.000  C
  H1       1.0000 0.67010  0.11630  0.19490  Biso   1.000  H
  H2       1.0000 0.88370  0.55380  0.19490  Biso   1.000  H
  H3       1.0000 0.44620  0.32990  0.19490  Biso   1.000  H
  H4       1.0000 0.33677  0.44963  0.52823  Biso   1.000  H
  H5       1.0000 0.55037  0.88713  0.52823  Biso   1.000  H
  H6       1.0000 0.11287  0.66323  0.52823  Biso   1.000  H
  H7       1.0000 0.00343  0.78297  0.86157  Biso   1.000  H
  H8       1.0000 0.21703  0.22047  0.86157  Biso   1.000  H
  H9       1.0000 0.77953  0.99657  0.86157  Biso   1.000  H
  H10      1.0000 0.32990  0.88370  0.80510  Biso   1.000  H
  H11      1.0000 0.11630  0.44620  0.80510  Biso   1.000  H
  H12      1.0000 0.55380  0.67010  0.80510  Biso   1.000  H
  H13      1.0000 0.99657  0.21703  0.13843  Biso   1.000  H
  H14      1.0000 0.78297  0.77953  0.13843  Biso   1.000  H
  H15      1.0000 0.22047  0.00343  0.13843  Biso   1.000  H
  H16      1.0000 0.66323  0.55037  0.47177  Biso   1.000  H
  H17      1.0000 0.44963  0.11287  0.47177  Biso   1.000  H
  H18      1.0000 0.88713  0.33677  0.47177  Biso   1.000  H
  H19      1.0000 0.78320  0.19700  0.19820  Biso   1.000  H
  H20      1.0000 0.80300  0.58620  0.19820  Biso   1.000  H
  H21      1.0000 0.41380  0.21680  0.19820  Biso   1.000  H
  H22      1.0000 0.44987  0.53033  0.53153  Biso   1.000  H
  H23      1.0000 0.46967  0.91953  0.53153  Biso   1.000  H
  H24      1.0000 0.08047  0.55013  0.53153  Biso   1.000  H
  H25      1.0000 0.11653  0.86367  0.86487  Biso   1.000  H
  H26      1.0000 0.13633  0.25287  0.86487  Biso   1.000  H
  H27      1.0000 0.74713  0.88347  0.86487  Biso   1.000  H
  H28      1.0000 0.21680  0.80300  0.80180  Biso   1.000  H
  H29      1.0000 0.19700  0.41380  0.80180  Biso   1.000  H
  H30      1.0000 0.58620  0.78320  0.80180  Biso   1.000  H
  H31      1.0000 0.88347  0.13633  0.13513  Biso   1.000  H
  H32      1.0000 0.86367  0.74713  0.13513  Biso   1.000  H
  H33      1.0000 0.25287  0.11653  0.13513  Biso   1.000  H
  H34      1.0000 0.55013  0.46967  0.46847  Biso   1.000  H
  H35      1.0000 0.53033  0.08047  0.46847  Biso   1.000  H
  H36      1.0000 0.91953  0.44987  0.46847  Biso   1.000  H
  H37      1.0000 0.78660  0.18620  0.28420  Biso   1.000  H
  H38      1.0000 0.81380  0.60040  0.28420  Biso   1.000  H
  H39      1.0000 0.39960  0.21340  0.28420  Biso   1.000  H
  H40      1.0000 0.45327  0.51953  0.61753  Biso   1.000  H
  H41      1.0000 0.48047  0.93373  0.61753  Biso   1.000  H
  H42      1.0000 0.06627  0.54673  0.61753  Biso   1.000  H
  H43      1.0000 0.11993  0.85287  0.95087  Biso   1.000  H
  H44      1.0000 0.14713  0.26707  0.95087  Biso   1.000  H
  H45      1.0000 0.73293  0.88007  0.95087  Biso   1.000  H
  H46      1.0000 0.21340  0.81380  0.71580  Biso   1.000  H
  H47      1.0000 0.18620  0.39960  0.71580  Biso   1.000  H
  H48      1.0000 0.60040  0.78660  0.71580  Biso   1.000  H
  H49      1.0000 0.88007  0.14713  0.04913  Biso   1.000  H
  H50      1.0000 0.85287  0.73293  0.04913  Biso   1.000  H
  H51      1.0000 0.26707  0.11993  0.04913  Biso   1.000  H
  H52      1.0000 0.54673  0.48047  0.38247  Biso   1.000  H
  H53      1.0000 0.51953  0.06627  0.38247  Biso   1.000  H
  H54      1.0000 0.93373  0.45327  0.38247  Biso   1.000  H
  H55      1.0000 0.70290  0.07650  0.27280  Biso   1.000  H
  H56      1.0000 0.92350  0.62640  0.27280  Biso   1.000  H
  H57      1.0000 0.37360  0.29710  0.27280  Biso   1.000  H
  H58      1.0000 0.36957  0.40983  0.60613  Biso   1.000  H
  H59      1.0000 0.59017  0.95973  0.60613  Biso   1.000  H
  H60      1.0000 0.04027  0.63043  0.60613  Biso   1.000  H
  H61      1.0000 0.03623  0.74317  0.93947  Biso   1.000  H
  H62      1.0000 0.25683  0.29307  0.93947  Biso   1.000  H
  H63      1.0000 0.70693  0.96377  0.93947  Biso   1.000  H
  H64      1.0000 0.29710  0.92350  0.72720  Biso   1.000  H
  H65      1.0000 0.07650  0.37360  0.72720  Biso   1.000  H
  H66      1.0000 0.62640  0.70290  0.72720  Biso   1.000  H
  H67      1.0000 0.96377  0.25683  0.06053  Biso   1.000  H
  H68      1.0000 0.74317  0.70693  0.06053  Biso   1.000  H
  H69      1.0000 0.29307  0.03623  0.06053  Biso   1.000  H
  H70      1.0000 0.63043  0.59017  0.39387  Biso   1.000  H
  H71      1.0000 0.40983  0.04027  0.39387  Biso   1.000  H
  H72      1.0000 0.95973  0.36957  0.39387  Biso   1.000  H
  H73      1.0000 0.67440  0.15600  0.28990  Biso   1.000  H
  H74      1.0000 0.84400  0.51840  0.28990  Biso   1.000  H
  H75      1.0000 0.48160  0.32560  0.28990  Biso   1.000  H
  H76      1.0000 0.34107  0.48933  0.62323  Biso   1.000  H
  H77      1.0000 0.51067  0.85173  0.62323  Biso   1.000  H
  H78      1.0000 0.14827  0.65893  0.62323  Biso   1.000  H
  H79      1.0000 0.00773  0.82267  0.95657  Biso   1.000  H
  H80      1.0000 0.17733  0.18507  0.95657  Biso   1.000  H
  H81      1.0000 0.81493  0.99227  0.95657  Biso   1.000  H
  H82      1.0000 0.32560  0.84400  0.71010  Biso   1.000  H
  H83      1.0000 0.15600  0.48160  0.71010  Biso   1.000  H
  H84      1.0000 0.51840  0.67440  0.71010  Biso   1.000  H
  H85      1.0000 0.99227  0.17733  0.04343  Biso   1.000  H
  H86      1.0000 0.82267  0.81493  0.04343  Biso   1.000  H
  H87      1.0000 0.18507  0.00773  0.04343  Biso   1.000  H
  H88      1.0000 0.65893  0.51067  0.37677  Biso   1.000  H
  H89      1.0000 0.48933  0.14827  0.37677  Biso   1.000  H
  H90      1.0000 0.85173  0.34107  0.37677  Biso   1.000  H
  H91      1.0000 0.91700  0.45250  0.22210  Biso   1.000  H
  H92      1.0000 0.54750  0.46450  0.22210  Biso   1.000  H
  H93      1.0000 0.53550  0.08300  0.22210  Biso   1.000  H
  H94      1.0000 0.58367  0.78583  0.55543  Biso   1.000  H
  H95      1.0000 0.21417  0.79783  0.55543  Biso   1.000  H
  H96      1.0000 0.20217  0.41633  0.55543  Biso   1.000  H
  H97      1.0000 0.25033  0.11917  0.88877  Biso   1.000  H
  H98      1.0000 0.88083  0.13117  0.88877  Biso   1.000  H
  H99      1.0000 0.86883  0.74967  0.88877  Biso   1.000  H
  H100     1.0000 0.08300  0.54750  0.77790  Biso   1.000  H
  H101     1.0000 0.45250  0.53550  0.77790  Biso   1.000  H
  H102     1.0000 0.46450  0.91700  0.77790  Biso   1.000  H
  H103     1.0000 0.74967  0.88083  0.11123  Biso   1.000  H
  H104     1.0000 0.11917  0.86883  0.11123  Biso   1.000  H
  H105     1.0000 0.13117  0.25033  0.11123  Biso   1.000  H
  H106     1.0000 0.41633  0.21417  0.44457  Biso   1.000  H
  H107     1.0000 0.78583  0.20217  0.44457  Biso   1.000  H
  H108     1.0000 0.79783  0.58367  0.44457  Biso   1.000  H
  H109     1.0000 0.88380  0.34100  0.23400  Biso   1.000  H
  H110     1.0000 0.65900  0.54280  0.23400  Biso   1.000  H
  H111     1.0000 0.45720  0.11620  0.23400  Biso   1.000  H
  H112     1.0000 0.55047  0.67433  0.56733  Biso   1.000  H
  H113     1.0000 0.32567  0.87613  0.56733  Biso   1.000  H
  H114     1.0000 0.12387  0.44953  0.56733  Biso   1.000  H
  H115     1.0000 0.21713  0.00767  0.90067  Biso   1.000  H
  H116     1.0000 0.99233  0.20947  0.90067  Biso   1.000  H
  H117     1.0000 0.79053  0.78287  0.90067  Biso   1.000  H
  H118     1.0000 0.11620  0.65900  0.76600  Biso   1.000  H
  H119     1.0000 0.34100  0.45720  0.76600  Biso   1.000  H
  H120     1.0000 0.54280  0.88380  0.76600  Biso   1.000  H
  H121     1.0000 0.78287  0.99233  0.09933  Biso   1.000  H
  H122     1.0000 0.00767  0.79053  0.09933  Biso   1.000  H
  H123     1.0000 0.20947  0.21713  0.09933  Biso   1.000  H
  H124     1.0000 0.44953  0.32567  0.43267  Biso   1.000  H
  H125     1.0000 0.67433  0.12387  0.43267  Biso   1.000  H
  H126     1.0000 0.87613  0.55047  0.43267  Biso   1.000  H
  H127     1.0000 0.99410  0.40050  0.16350  Biso   1.000  H
  H128     1.0000 0.59950  0.59360  0.16350  Biso   1.000  H
  H129     1.0000 0.40640  0.00590  0.16350  Biso   1.000  H
  H130     1.0000 0.66077  0.73383  0.49683  Biso   1.000  H
  H131     1.0000 0.26617  0.92693  0.49683  Biso   1.000  H
  H132     1.0000 0.07307  0.33923  0.49683  Biso   1.000  H
  H133     1.0000 0.32743  0.06717  0.83017  Biso   1.000  H
  H134     1.0000 0.93283  0.26027  0.83017  Biso   1.000  H
  H135     1.0000 0.73973  0.67257  0.83017  Biso   1.000  H
  H136     1.0000 0.00590  0.59950  0.83650  Biso   1.000  H
  H137     1.0000 0.40050  0.40640  0.83650  Biso   1.000  H
  H138     1.0000 0.59360  0.99410  0.83650  Biso   1.000  H
  H139     1.0000 0.67257  0.93283  0.16983  Biso   1.000  H
  H140     1.0000 0.06717  0.73973  0.16983  Biso   1.000  H
  H141     1.0000 0.26027  0.32743  0.16983  Biso   1.000  H
  H142     1.0000 0.33923  0.26617  0.50317  Biso   1.000  H
  H143     1.0000 0.73383  0.07307  0.50317  Biso   1.000  H
  H144     1.0000 0.92693  0.66077  0.50317  Biso   1.000  H
  H145     1.0000 0.89080  0.31150  0.14640  Biso   1.000  H
  H146     1.0000 0.68850  0.57930  0.14640  Biso   1.000  H
  H147     1.0000 0.42070  0.10920  0.14640  Biso   1.000  H
  H148     1.0000 0.55747  0.64483  0.47973  Biso   1.000  H
  H149     1.0000 0.35517  0.91263  0.47973  Biso   1.000  H
  H150     1.0000 0.08737  0.44253  0.47973  Biso   1.000  H
  H151     1.0000 0.22413  0.97817  0.81307  Biso   1.000  H
  H152     1.0000 0.02183  0.24597  0.81307  Biso   1.000  H
  H153     1.0000 0.75403  0.77587  0.81307  Biso   1.000  H
  H154     1.0000 0.10920  0.68850  0.85360  Biso   1.000  H
  H155     1.0000 0.31150  0.42070  0.85360  Biso   1.000  H
  H156     1.0000 0.57930  0.89080  0.85360  Biso   1.000  H
  H157     1.0000 0.77587  0.02183  0.18693  Biso   1.000  H
  H158     1.0000 0.97817  0.75403  0.18693  Biso   1.000  H
  H159     1.0000 0.24597  0.22413  0.18693  Biso   1.000  H
  H160     1.0000 0.44253  0.35517  0.52027  Biso   1.000  H
  H161     1.0000 0.64483  0.08737  0.52027  Biso   1.000  H
  H162     1.0000 0.91263  0.55747  0.52027  Biso   1.000  H
  H163     1.0000 0.77900  0.34240  0.09070  Biso   1.000  H
  H164     1.0000 0.65760  0.43660  0.09070  Biso   1.000  H
  H165     1.0000 0.56340  0.22100  0.09070  Biso   1.000  H
  H166     1.0000 0.44567  0.67573  0.42403  Biso   1.000  H
  H167     1.0000 0.32427  0.76993  0.42403  Biso   1.000  H
  H168     1.0000 0.23007  0.55433  0.42403  Biso   1.000  H
  H169     1.0000 0.11233  0.00907  0.75737  Biso   1.000  H
  H170     1.0000 0.99093  0.10327  0.75737  Biso   1.000  H
  H171     1.0000 0.89673  0.88767  0.75737  Biso   1.000  H
  H172     1.0000 0.22100  0.65760  0.90930  Biso   1.000  H
  H173     1.0000 0.34240  0.56340  0.90930  Biso   1.000  H
  H174     1.0000 0.43660  0.77900  0.90930  Biso   1.000  H
  H175     1.0000 0.88767  0.99093  0.24263  Biso   1.000  H
  H176     1.0000 0.00907  0.89673  0.24263  Biso   1.000  H
  H177     1.0000 0.10327  0.11233  0.24263  Biso   1.000  H
  H178     1.0000 0.55433  0.32427  0.57597  Biso   1.000  H
  H179     1.0000 0.67573  0.23007  0.57597  Biso   1.000  H
  H180     1.0000 0.76993  0.44567  0.57597  Biso   1.000  H
  H181     1.0000 0.77440  0.43630  0.02010  Biso   1.000  H
  H182     1.0000 0.56370  0.33810  0.02010  Biso   1.000  H
  H183     1.0000 0.66190  0.22560  0.02010  Biso   1.000  H
  H184     1.0000 0.44107  0.76963  0.35343  Biso   1.000  H
  H185     1.0000 0.23037  0.67143  0.35343  Biso   1.000  H
  H186     1.0000 0.32857  0.55893  0.35343  Biso   1.000  H
  H187     1.0000 0.10773  0.10297  0.68677  Biso   1.000  H
  H188     1.0000 0.89703  0.00477  0.68677  Biso   1.000  H
  H189     1.0000 0.99523  0.89227  0.68677  Biso   1.000  H
  H190     1.0000 0.22560  0.56370  0.97990  Biso   1.000  H
  H191     1.0000 0.43630  0.66190  0.97990  Biso   1.000  H
  H192     1.0000 0.33810  0.77440  0.97990  Biso   1.000  H
  H193     1.0000 0.89227  0.89703  0.31323  Biso   1.000  H
  H194     1.0000 0.10297  0.99523  0.31323  Biso   1.000  H
  H195     1.0000 0.00477  0.10773  0.31323  Biso   1.000  H
  H196     1.0000 0.55893  0.23037  0.64657  Biso   1.000  H
  H197     1.0000 0.76963  0.32857  0.64657  Biso   1.000  H
  H198     1.0000 0.67143  0.44107  0.64657  Biso   1.000  H
  H199     1.0000 0.91360  0.59580  0.00390  Biso   1.000  H
  H200     1.0000 0.40420  0.31780  0.00390  Biso   1.000  H
  H201     1.0000 0.68220  0.08640  0.00390  Biso   1.000  H
  H202     1.0000 0.58027  0.92913  0.33723  Biso   1.000  H
  H203     1.0000 0.07087  0.65113  0.33723  Biso   1.000  H
  H204     1.0000 0.34887  0.41973  0.33723  Biso   1.000  H
  H205     1.0000 0.24693  0.26247  0.67057  Biso   1.000  H
  H206     1.0000 0.73753  0.98447  0.67057  Biso   1.000  H
  H207     1.0000 0.01553  0.75307  0.67057  Biso   1.000  H
  H208     1.0000 0.08640  0.40420  0.99610  Biso   1.000  H
  H209     1.0000 0.59580  0.68220  0.99610  Biso   1.000  H
  H210     1.0000 0.31780  0.91360  0.99610  Biso   1.000  H
  H211     1.0000 0.75307  0.73753  0.32943  Biso   1.000  H
  H212     1.0000 0.26247  0.01553  0.32943  Biso   1.000  H
  H213     1.0000 0.98447  0.24693  0.32943  Biso   1.000  H
  H214     1.0000 0.41973  0.07087  0.66277  Biso   1.000  H
  H215     1.0000 0.92913  0.34887  0.66277  Biso   1.000  H
  H216     1.0000 0.65113  0.58027  0.66277  Biso   1.000  H
  H217     1.0000 0.05390  0.65230  0.05670  Biso   1.000  H
  H218     1.0000 0.34770  0.40160  0.05670  Biso   1.000  H
  H219     1.0000 0.59840  0.94610  0.05670  Biso   1.000  H
  H220     1.0000 0.72057  0.98563  0.39003  Biso   1.000  H
  H221     1.0000 0.01437  0.73493  0.39003  Biso   1.000  H
  H222     1.0000 0.26507  0.27943  0.39003  Biso   1.000  H
  H223     1.0000 0.38723  0.31897  0.72337  Biso   1.000  H
  H224     1.0000 0.68103  0.06827  0.72337  Biso   1.000  H
  H225     1.0000 0.93173  0.61277  0.72337  Biso   1.000  H
  H226     1.0000 0.94610  0.34770  0.94330  Biso   1.000  H
  H227     1.0000 0.65230  0.59840  0.94330  Biso   1.000  H
  H228     1.0000 0.40160  0.05390  0.94330  Biso   1.000  H
  H229     1.0000 0.61277  0.68103  0.27663  Biso   1.000  H
  H230     1.0000 0.31897  0.93173  0.27663  Biso   1.000  H
  H231     1.0000 0.06827  0.38723  0.27663  Biso   1.000  H
  H232     1.0000 0.27943  0.01437  0.60997  Biso   1.000  H
  H233     1.0000 0.98563  0.26507  0.60997  Biso   1.000  H
  H234     1.0000 0.73493  0.72057  0.60997  Biso   1.000  H
