data_image0
_cell_length_a       7.2574
_cell_length_b       7.9897
_cell_length_c       13.9518
_cell_angle_alpha    74.6
_cell_angle_beta     81.066
_cell_angle_gamma    63.818

_symmetry_space_group_name_H-M    "P 1"
_symmetry_int_tables_number       1

loop_
  _symmetry_equiv_pos_as_xyz
  'x, y, z'

loop_
  _atom_site_label
  _atom_site_occupancy
  _atom_site_fract_x
  _atom_site_fract_y
  _atom_site_fract_z
  _atom_site_thermal_displace_type
  _atom_site_B_iso_or_equiv
  _atom_site_type_symbol
  Cu1      1.0000 0.83305  0.98036  0.78827  Biso   1.000  Cu
  Cu2      1.0000 0.16695  0.01964  0.21173  Biso   1.000  Cu
  Cu3      1.0000 0.15309  0.68346  0.74993  Biso   1.000  Cu
  Cu4      1.0000 0.84691  0.31654  0.25007  Biso   1.000  Cu
  C1       1.0000 0.04620  0.72670  0.97730  Biso   1.000  C
  C2       1.0000 0.95380  0.27330  0.02270  Biso   1.000  C
  C3       1.0000 0.92130  0.77470  0.14200  Biso   1.000  C
  C4       1.0000 0.07870  0.22530  0.85800  Biso   1.000  C
  H1       1.0000 0.93740  0.73130  0.21180  Biso   1.000  H
  H2       1.0000 0.06260  0.26870  0.78820  Biso   1.000  H
  C5       1.0000 0.75920  0.94040  0.10380  Biso   1.000  C
  C6       1.0000 0.24080  0.05960  0.89620  Biso   1.000  C
  H3       1.0000 0.65930  0.01670  0.14550  Biso   1.000  H
  H4       1.0000 0.34070  0.98330  0.85450  Biso   1.000  H
  C7       1.0000 0.74810  0.99150  0.00120  Biso   1.000  C
  C8       1.0000 0.25190  0.00850  0.99880  Biso   1.000  C
  H5       1.0000 0.63530  0.10550  0.97350  Biso   1.000  H
  H6       1.0000 0.36470  0.89450  0.02650  Biso   1.000  H
  C9       1.0000 0.45310  0.34430  0.67090  Biso   1.000  C
  C10      1.0000 0.54690  0.65570  0.32910  Biso   1.000  C
  C11      1.0000 0.43520  0.28110  0.51490  Biso   1.000  C
  C12      1.0000 0.56480  0.71890  0.48510  Biso   1.000  C
  H7       1.0000 0.48840  0.19810  0.46990  Biso   1.000  H
  H8       1.0000 0.51160  0.80190  0.53010  Biso   1.000  H
  C13      1.0000 0.26830  0.45420  0.49170  Biso   1.000  C
  C14      1.0000 0.73170  0.54580  0.50830  Biso   1.000  C
  H9       1.0000 0.20520  0.49720  0.42970  Biso   1.000  H
  H10      1.0000 0.79480  0.50280  0.57030  Biso   1.000  H
  C15      1.0000 0.19660  0.56330  0.56340  Biso   1.000  C
  C16      1.0000 0.80340  0.43670  0.43660  Biso   1.000  C
  H11      1.0000 0.07920  0.68190  0.54950  Biso   1.000  H
  H12      1.0000 0.92080  0.31810  0.45050  Biso   1.000  H
  I1       1.0000 0.73459  0.73734  0.73593  Biso   1.000  I
  I2       1.0000 0.26541  0.26266  0.26407  Biso   1.000  I
  I3       1.0000 0.11440  0.02488  0.64192  Biso   1.000  I
  I4       1.0000 0.88560  0.97512  0.35808  Biso   1.000  I
  N1       1.0000 0.88400  0.89230  0.93850  Biso   1.000  N
  N2       1.0000 0.11600  0.10770  0.06150  Biso   1.000  N
  N3       1.0000 0.05780  0.67400  0.07840  Biso   1.000  N
  N4       1.0000 0.94220  0.32600  0.92160  Biso   1.000  N
  H13      1.0000 0.16140  0.56720  0.10380  Biso   1.000  H
  H14      1.0000 0.83860  0.43280  0.89620  Biso   1.000  H
  N5       1.0000 0.28190  0.51210  0.65020  Biso   1.000  N
  N6       1.0000 0.71810  0.48790  0.34980  Biso   1.000  N
  N7       1.0000 0.52190  0.23130  0.60280  Biso   1.000  N
  N8       1.0000 0.47810  0.76870  0.39720  Biso   1.000  N
  H15      1.0000 0.62860  0.12020  0.61710  Biso   1.000  H
  H16      1.0000 0.37140  0.87980  0.38290  Biso   1.000  H
  S1       1.0000 0.23210  0.58317  0.90975  Biso   1.000  S
  S2       1.0000 0.76790  0.41683  0.09025  Biso   1.000  S
  S3       1.0000 0.57754  0.28121  0.77534  Biso   1.000  S
  S4       1.0000 0.42246  0.71879  0.22466  Biso   1.000  S
