data_image0
_cell_length_a       10.3368
_cell_length_b       7.6318
_cell_length_c       17.4468
_cell_angle_alpha    90
_cell_angle_beta     120.782
_cell_angle_gamma    90

_symmetry_space_group_name_H-M    "P 1"
_symmetry_int_tables_number       1

loop_
  _symmetry_equiv_pos_as_xyz
  'x, y, z'

loop_
  _atom_site_label
  _atom_site_occupancy
  _atom_site_fract_x
  _atom_site_fract_y
  _atom_site_fract_z
  _atom_site_thermal_displace_type
  _atom_site_B_iso_or_equiv
  _atom_site_type_symbol
  Cu1      1.0000 0.66797  0.24214  0.86454  Biso   1.000  Cu
  Cu2      1.0000 0.33203  0.74214  0.63546  Biso   1.000  Cu
  Cu3      1.0000 0.33203  0.75786  0.13546  Biso   1.000  Cu
  Cu4      1.0000 0.66797  0.25786  0.36454  Biso   1.000  Cu
  Cu5      1.0000 0.49039  0.55569  0.85950  Biso   1.000  Cu
  Cu6      1.0000 0.50961  0.05569  0.64050  Biso   1.000  Cu
  Cu7      1.0000 0.50961  0.44431  0.14050  Biso   1.000  Cu
  Cu8      1.0000 0.49039  0.94431  0.35950  Biso   1.000  Cu
  Cu9      1.0000 0.79692  0.53957  0.93262  Biso   1.000  Cu
  Cu10     1.0000 0.20308  0.03957  0.56738  Biso   1.000  Cu
  Cu11     1.0000 0.20308  0.46043  0.06738  Biso   1.000  Cu
  Cu12     1.0000 0.79692  0.96043  0.43262  Biso   1.000  Cu
  Br1      1.0000 0.93048  0.28825  0.90509  Biso   1.000  Br
  Br2      1.0000 0.06952  0.78825  0.59491  Biso   1.000  Br
  Br3      1.0000 0.06952  0.71175  0.09491  Biso   1.000  Br
  Br4      1.0000 0.93048  0.21175  0.40509  Biso   1.000  Br
  C1       1.0000 0.31660  0.29740  0.71640  Biso   1.000  C
  C2       1.0000 0.68340  0.79740  0.78360  Biso   1.000  C
  C3       1.0000 0.68340  0.70260  0.28360  Biso   1.000  C
  C4       1.0000 0.31660  0.20260  0.21640  Biso   1.000  C
  C5       1.0000 0.17620  0.42450  0.76850  Biso   1.000  C
  C6       1.0000 0.82380  0.92450  0.73150  Biso   1.000  C
  C7       1.0000 0.82380  0.57550  0.23150  Biso   1.000  C
  C8       1.0000 0.17620  0.07550  0.26850  Biso   1.000  C
  H1       1.0000 0.16800  0.50230  0.80840  Biso   1.000  H
  H2       1.0000 0.83200  0.00230  0.69160  Biso   1.000  H
  H3       1.0000 0.83200  0.49770  0.19160  Biso   1.000  H
  H4       1.0000 0.16800  0.99770  0.30840  Biso   1.000  H
  C9       1.0000 0.05020  0.33630  0.70690  Biso   1.000  C
  C10      1.0000 0.94980  0.83630  0.79310  Biso   1.000  C
  C11      1.0000 0.94980  0.66370  0.29310  Biso   1.000  C
  C12      1.0000 0.05020  0.16370  0.20690  Biso   1.000  C
  H5       1.0000 0.95730  0.34560  0.70550  Biso   1.000  H
  H6       1.0000 0.04270  0.84560  0.79450  Biso   1.000  H
  H7       1.0000 0.04270  0.65440  0.29450  Biso   1.000  H
  H8       1.0000 0.95730  0.15440  0.20550  Biso   1.000  H
  C13      1.0000 0.06460  0.23540  0.64820  Biso   1.000  C
  C14      1.0000 0.93540  0.73540  0.85180  Biso   1.000  C
  C15      1.0000 0.93540  0.76460  0.35180  Biso   1.000  C
  C16      1.0000 0.06460  0.26460  0.14820  Biso   1.000  C
  H9       1.0000 0.97790  0.17800  0.60240  Biso   1.000  H
  H10      1.0000 0.02210  0.67800  0.89760  Biso   1.000  H
  H11      1.0000 0.02210  0.82200  0.39760  Biso   1.000  H
  H12      1.0000 0.97790  0.32200  0.10240  Biso   1.000  H
  C17      1.0000 0.66420  0.28000  0.02590  Biso   1.000  C
  C18      1.0000 0.33580  0.78000  0.47410  Biso   1.000  C
  C19      1.0000 0.33580  0.72000  0.97410  Biso   1.000  C
  C20      1.0000 0.66420  0.22000  0.52590  Biso   1.000  C
  C21      1.0000 0.69300  0.99040  0.00210  Biso   1.000  C
  C22      1.0000 0.30700  0.49040  0.49790  Biso   1.000  C
  C23      1.0000 0.30700  0.00960  0.99790  Biso   1.000  C
  C24      1.0000 0.69300  0.50960  0.50210  Biso   1.000  C
  H13      1.0000 0.70640  0.90220  0.96840  Biso   1.000  H
  H14      1.0000 0.29360  0.40220  0.53160  Biso   1.000  H
  H15      1.0000 0.29360  0.09780  0.03160  Biso   1.000  H
  H16      1.0000 0.70640  0.59780  0.46840  Biso   1.000  H
  C25      1.0000 0.68990  0.94250  0.07640  Biso   1.000  C
  C26      1.0000 0.31010  0.44250  0.42360  Biso   1.000  C
  C27      1.0000 0.31010  0.05750  0.92360  Biso   1.000  C
  C28      1.0000 0.68990  0.55750  0.57640  Biso   1.000  C
  H17      1.0000 0.70390  0.82420  0.09610  Biso   1.000  H
  H18      1.0000 0.29610  0.32420  0.40390  Biso   1.000  H
  H19      1.0000 0.29610  0.17580  0.90390  Biso   1.000  H
  H20      1.0000 0.70390  0.67580  0.59610  Biso   1.000  H
  C29      1.0000 0.66550  0.07430  0.12180  Biso   1.000  C
  C30      1.0000 0.33450  0.57430  0.37820  Biso   1.000  C
  C31      1.0000 0.33450  0.92570  0.87820  Biso   1.000  C
  C32      1.0000 0.66550  0.42570  0.62180  Biso   1.000  C
  H21      1.0000 0.65790  0.04450  0.17220  Biso   1.000  H
  H22      1.0000 0.34210  0.54450  0.32780  Biso   1.000  H
  H23      1.0000 0.34210  0.95550  0.82780  Biso   1.000  H
  H24      1.0000 0.65790  0.45550  0.67220  Biso   1.000  H
  N1       1.0000 0.30990  0.40640  0.77520  Biso   1.000  N
  N2       1.0000 0.69010  0.90640  0.72480  Biso   1.000  N
  N3       1.0000 0.69010  0.59360  0.22480  Biso   1.000  N
  N4       1.0000 0.30990  0.09360  0.27520  Biso   1.000  N
  N5       1.0000 0.19670  0.21270  0.65190  Biso   1.000  N
  N6       1.0000 0.80330  0.71270  0.84810  Biso   1.000  N
  N7       1.0000 0.80330  0.78730  0.34810  Biso   1.000  N
  N8       1.0000 0.19670  0.28730  0.15190  Biso   1.000  N
  N9       1.0000 0.67800  0.15600  0.97500  Biso   1.000  N
  N10      1.0000 0.32200  0.65600  0.52500  Biso   1.000  N
  N11      1.0000 0.32200  0.84400  0.02500  Biso   1.000  N
  N12      1.0000 0.67800  0.34400  0.47500  Biso   1.000  N
  N13      1.0000 0.65220  0.24380  0.09720  Biso   1.000  N
  N14      1.0000 0.34780  0.74380  0.40280  Biso   1.000  N
  N15      1.0000 0.34780  0.75620  0.90280  Biso   1.000  N
  N16      1.0000 0.65220  0.25620  0.59720  Biso   1.000  N
  S1       1.0000 0.49145  0.27255  0.72486  Biso   1.000  S
  S2       1.0000 0.50855  0.77255  0.77514  Biso   1.000  S
  S3       1.0000 0.50855  0.72745  0.27514  Biso   1.000  S
  S4       1.0000 0.49145  0.22745  0.22486  Biso   1.000  S
  S5       1.0000 0.67029  0.50085  0.00168  Biso   1.000  S
  S6       1.0000 0.32971  0.00085  0.49832  Biso   1.000  S
  S7       1.0000 0.32971  0.49915  0.99832  Biso   1.000  S
  S8       1.0000 0.67029  0.99915  0.50168  Biso   1.000  S
