data_image0
_cell_length_a       7.3069
_cell_length_b       8.0037
_cell_length_c       8.5871
_cell_angle_alpha    97.41
_cell_angle_beta     100.887
_cell_angle_gamma    111.137

_symmetry_space_group_name_H-M    "P 1"
_symmetry_int_tables_number       1

loop_
  _symmetry_equiv_pos_as_xyz
  'x, y, z'

loop_
  _atom_site_label
  _atom_site_occupancy
  _atom_site_fract_x
  _atom_site_fract_y
  _atom_site_fract_z
  _atom_site_thermal_displace_type
  _atom_site_B_iso_or_equiv
  _atom_site_type_symbol
  Cu1      1.0000 0.33406  0.92235  0.87895  Biso   1.000  Cu
  Cu2      1.0000 0.66594  0.07765  0.12105  Biso   1.000  Cu
  Cu3      1.0000 0.39234  0.27946  0.95347  Biso   1.000  Cu
  Cu4      1.0000 0.60766  0.72054  0.04653  Biso   1.000  Cu
  I1       1.0000 0.31406  0.07838  0.16423  Biso   1.000  I
  I2       1.0000 0.68594  0.92162  0.83577  Biso   1.000  I
  I3       1.0000 0.27554  0.12342  0.65296  Biso   1.000  I
  I4       1.0000 0.72446  0.87658  0.34704  Biso   1.000  I
  C1       1.0000 0.94720  0.65630  0.66310  Biso   1.000  C
  C2       1.0000 0.05280  0.34370  0.33690  Biso   1.000  C
  H1       1.0000 0.94450  0.76550  0.63270  Biso   1.000  H
  H2       1.0000 0.05550  0.23450  0.36730  Biso   1.000  H
  C3       1.0000 0.78850  0.49000  0.58190  Biso   1.000  C
  C4       1.0000 0.21150  0.51000  0.41810  Biso   1.000  C
  H3       1.0000 0.67590  0.48540  0.50260  Biso   1.000  H
  H4       1.0000 0.32410  0.51460  0.49740  Biso   1.000  H
  C5       1.0000 0.80160  0.33520  0.62070  Biso   1.000  C
  C6       1.0000 0.19840  0.66480  0.37930  Biso   1.000  C
  H5       1.0000 0.70070  0.21800  0.56560  Biso   1.000  H
  H6       1.0000 0.29930  0.78200  0.43440  Biso   1.000  H
  C7       1.0000 0.10420  0.51560  0.82680  Biso   1.000  C
  C8       1.0000 0.89580  0.48440  0.17320  Biso   1.000  C
  N1       1.0000 0.10240  0.66960  0.78110  Biso   1.000  N
  N2       1.0000 0.89760  0.33040  0.21890  Biso   1.000  N
  N3       1.0000 0.95940  0.35090  0.73840  Biso   1.000  N
  N4       1.0000 0.04060  0.64910  0.26160  Biso   1.000  N
  H7       1.0000 0.97050  0.24990  0.76000  Biso   1.000  H
  H8       1.0000 0.02950  0.75010  0.24000  Biso   1.000  H
  S1       1.0000 0.27090  0.51513  0.99360  Biso   1.000  S
  S2       1.0000 0.72910  0.48487  0.00640  Biso   1.000  S
