data_image0
_cell_length_a       4.2472
_cell_length_b       6.89
_cell_length_c       11.065
_cell_angle_alpha    90
_cell_angle_beta     98.104
_cell_angle_gamma    90

_symmetry_space_group_name_H-M    "P 1"
_symmetry_int_tables_number       1

loop_
  _symmetry_equiv_pos_as_xyz
  'x, y, z'

loop_
  _atom_site_label
  _atom_site_occupancy
  _atom_site_fract_x
  _atom_site_fract_y
  _atom_site_fract_z
  _atom_site_thermal_displace_type
  _atom_site_B_iso_or_equiv
  _atom_site_type_symbol
  I1       1.0000 0.00000  0.97855  0.25000  Biso   1.000  I
  I2       1.0000 0.00000  0.02145  0.75000  Biso   1.000  I
  Cu1      1.0000 0.50000  0.19855  0.25000  Biso   1.000  Cu
  Cu2      1.0000 0.50000  0.80145  0.75000  Biso   1.000  Cu
  N1       1.0000 0.50600  0.37538  0.40000  Biso   1.000  N
  N2       1.0000 0.49400  0.37538  0.10000  Biso   1.000  N
  N3       1.0000 0.49400  0.62462  0.60000  Biso   1.000  N
  N4       1.0000 0.50600  0.62462  0.90000  Biso   1.000  N
  C1       1.0000 0.64000  0.55260  0.40489  Biso   1.000  C
  C2       1.0000 0.36000  0.55260  0.09511  Biso   1.000  C
  C3       1.0000 0.36000  0.44740  0.59511  Biso   1.000  C
  C4       1.0000 0.64000  0.44740  0.90489  Biso   1.000  C
  H1       1.0000 0.74330  0.59450  0.33870  Biso   1.000  H
  H2       1.0000 0.25670  0.59450  0.16130  Biso   1.000  H
  H3       1.0000 0.25670  0.40550  0.66130  Biso   1.000  H
  H4       1.0000 0.74330  0.40550  0.83870  Biso   1.000  H
  C5       1.0000 0.36740  0.32390  0.49685  Biso   1.000  C
  C6       1.0000 0.63260  0.32390  0.00315  Biso   1.000  C
  C7       1.0000 0.63260  0.67610  0.50315  Biso   1.000  C
  C8       1.0000 0.36740  0.67610  0.99685  Biso   1.000  C
  H5       1.0000 0.27180  0.19930  0.49810  Biso   1.000  H
  H6       1.0000 0.72820  0.19930  0.00190  Biso   1.000  H
  H7       1.0000 0.72820  0.80070  0.50190  Biso   1.000  H
  H8       1.0000 0.27180  0.80070  0.99810  Biso   1.000  H
