data_image0
_cell_length_a       12.598
_cell_length_b       9.471
_cell_length_c       7.095
_cell_angle_alpha    90
_cell_angle_beta     117.768
_cell_angle_gamma    90

_symmetry_space_group_name_H-M    "P 1"
_symmetry_int_tables_number       1

loop_
  _symmetry_equiv_pos_as_xyz
  'x, y, z'

loop_
  _atom_site_label
  _atom_site_occupancy
  _atom_site_fract_x
  _atom_site_fract_y
  _atom_site_fract_z
  _atom_site_thermal_displace_type
  _atom_site_B_iso_or_equiv
  _atom_site_type_symbol
  Cu1      1.0000 0.26628  0.50000  0.10410  Biso   1.000  Cu
  Cu2      1.0000 0.76628  0.00000  0.10410  Biso   1.000  Cu
  Cu3      1.0000 0.73372  0.50000  0.89590  Biso   1.000  Cu
  Cu4      1.0000 0.23372  0.00000  0.89590  Biso   1.000  Cu
  Cu5      1.0000 0.07030  0.50000  0.73030  Biso   1.000  Cu
  Cu6      1.0000 0.57030  0.00000  0.73030  Biso   1.000  Cu
  Cu7      1.0000 0.92970  0.50000  0.26970  Biso   1.000  Cu
  Cu8      1.0000 0.42970  0.00000  0.26970  Biso   1.000  Cu
  S1       1.0000 0.00000  0.50000  0.00000  Biso   1.000  S
  S2       1.0000 0.50000  0.00000  0.00000  Biso   1.000  S
  N1       1.0000 0.34630  0.50000  0.43550  Biso   1.000  N
  N2       1.0000 0.84630  0.00000  0.43550  Biso   1.000  N
  N3       1.0000 0.65370  0.50000  0.56450  Biso   1.000  N
  N4       1.0000 0.15370  0.00000  0.56450  Biso   1.000  N
  C1       1.0000 0.37670  0.38060  0.54740  Biso   1.000  C
  C2       1.0000 0.87670  0.88060  0.54740  Biso   1.000  C
  C3       1.0000 0.62330  0.38060  0.45260  Biso   1.000  C
  C4       1.0000 0.12330  0.88060  0.45260  Biso   1.000  C
  C5       1.0000 0.62330  0.61940  0.45260  Biso   1.000  C
  C6       1.0000 0.12330  0.11940  0.45260  Biso   1.000  C
  C7       1.0000 0.37670  0.61940  0.54740  Biso   1.000  C
  C8       1.0000 0.87670  0.11940  0.54740  Biso   1.000  C
  H1       1.0000 0.35710  0.29580  0.47290  Biso   1.000  H
  H2       1.0000 0.85710  0.79580  0.47290  Biso   1.000  H
  H3       1.0000 0.64290  0.29580  0.52710  Biso   1.000  H
  H4       1.0000 0.14290  0.79580  0.52710  Biso   1.000  H
  H5       1.0000 0.64290  0.70420  0.52710  Biso   1.000  H
  H6       1.0000 0.14290  0.20420  0.52710  Biso   1.000  H
  H7       1.0000 0.35710  0.70420  0.47290  Biso   1.000  H
  H8       1.0000 0.85710  0.20420  0.47290  Biso   1.000  H
  C9       1.0000 0.43550  0.37490  0.76690  Biso   1.000  C
  C10      1.0000 0.93550  0.87490  0.76690  Biso   1.000  C
  C11      1.0000 0.56450  0.37490  0.23310  Biso   1.000  C
  C12      1.0000 0.06450  0.87490  0.23310  Biso   1.000  C
  C13      1.0000 0.56450  0.62510  0.23310  Biso   1.000  C
  C14      1.0000 0.06450  0.12510  0.23310  Biso   1.000  C
  C15      1.0000 0.43550  0.62510  0.76690  Biso   1.000  C
  C16      1.0000 0.93550  0.12510  0.76690  Biso   1.000  C
  H9       1.0000 0.45320  0.28840  0.83690  Biso   1.000  H
  H10      1.0000 0.95320  0.78840  0.83690  Biso   1.000  H
  H11      1.0000 0.54680  0.28840  0.16310  Biso   1.000  H
  H12      1.0000 0.04680  0.78840  0.16310  Biso   1.000  H
  H13      1.0000 0.54680  0.71160  0.16310  Biso   1.000  H
  H14      1.0000 0.04680  0.21160  0.16310  Biso   1.000  H
  H15      1.0000 0.45320  0.71160  0.83690  Biso   1.000  H
  H16      1.0000 0.95320  0.21160  0.83690  Biso   1.000  H
  C17      1.0000 0.46790  0.50000  0.88170  Biso   1.000  C
  C18      1.0000 0.96790  0.00000  0.88170  Biso   1.000  C
  C19      1.0000 0.53210  0.50000  0.11830  Biso   1.000  C
  C20      1.0000 0.03210  0.00000  0.11830  Biso   1.000  C
  N5       1.0000 0.25100  0.30840  0.01620  Biso   1.000  N
  N6       1.0000 0.75100  0.80840  0.01620  Biso   1.000  N
  N7       1.0000 0.74900  0.30840  0.98380  Biso   1.000  N
  N8       1.0000 0.24900  0.80840  0.98380  Biso   1.000  N
  N9       1.0000 0.74900  0.69160  0.98380  Biso   1.000  N
  N10      1.0000 0.24900  0.19160  0.98380  Biso   1.000  N
  N11      1.0000 0.25100  0.69160  0.01620  Biso   1.000  N
  N12      1.0000 0.75100  0.19160  0.01620  Biso   1.000  N
  N13      1.0000 0.05600  0.50000  0.45300  Biso   1.000  N
  N14      1.0000 0.55600  0.00000  0.45300  Biso   1.000  N
  N15      1.0000 0.94400  0.50000  0.54700  Biso   1.000  N
  N16      1.0000 0.44400  0.00000  0.54700  Biso   1.000  N
  C21      1.0000 0.04300  0.50000  0.28800  Biso   1.000  C
  C22      1.0000 0.54300  0.00000  0.28800  Biso   1.000  C
  C23      1.0000 0.95700  0.50000  0.71200  Biso   1.000  C
  C24      1.0000 0.45700  0.00000  0.71200  Biso   1.000  C
