data_image0
_cell_length_a       8.3632
_cell_length_b       14.526
_cell_length_c       15.3848
_cell_angle_alpha    90
_cell_angle_beta     90
_cell_angle_gamma    90

_symmetry_space_group_name_H-M    "P 1"
_symmetry_int_tables_number       1

loop_
  _symmetry_equiv_pos_as_xyz
  'x, y, z'

loop_
  _atom_site_label
  _atom_site_occupancy
  _atom_site_fract_x
  _atom_site_fract_y
  _atom_site_fract_z
  _atom_site_thermal_displace_type
  _atom_site_B_iso_or_equiv
  _atom_site_type_symbol
  C1       1.0000 0.85440  0.40790  0.65060  Biso   1.000  C
  C2       1.0000 0.64560  0.59210  0.15060  Biso   1.000  C
  C3       1.0000 0.35440  0.09210  0.34940  Biso   1.000  C
  C4       1.0000 0.14560  0.90790  0.84940  Biso   1.000  C
  N1       1.0000 0.83110  0.46510  0.70000  Biso   1.000  N
  N2       1.0000 0.66890  0.53490  0.20000  Biso   1.000  N
  N3       1.0000 0.33110  0.03490  0.30000  Biso   1.000  N
  N4       1.0000 0.16890  0.96510  0.80000  Biso   1.000  N
  K1       1.0000 0.66388  0.59730  0.60831  Biso   1.000  K
  K2       1.0000 0.83612  0.40270  0.10831  Biso   1.000  K
  K3       1.0000 0.16388  0.90270  0.39169  Biso   1.000  K
  K4       1.0000 0.33612  0.09730  0.89169  Biso   1.000  K
  Cu1      1.0000 0.89838  0.31620  0.56478  Biso   1.000  Cu
  Cu2      1.0000 0.60162  0.68380  0.06478  Biso   1.000  Cu
  Cu3      1.0000 0.39838  0.18380  0.43522  Biso   1.000  Cu
  Cu4      1.0000 0.10162  0.81620  0.93522  Biso   1.000  Cu
  C5       1.0000 0.10210  0.27880  0.51800  Biso   1.000  C
  C6       1.0000 0.39790  0.72120  0.01800  Biso   1.000  C
  C7       1.0000 0.60210  0.22120  0.48200  Biso   1.000  C
  C8       1.0000 0.89790  0.77880  0.98200  Biso   1.000  C
  N5       1.0000 0.21840  0.25000  0.48860  Biso   1.000  N
  N6       1.0000 0.28160  0.75000  0.98860  Biso   1.000  N
  N7       1.0000 0.71840  0.25000  0.51140  Biso   1.000  N
  N8       1.0000 0.78160  0.75000  0.01140  Biso   1.000  N
  O1       1.0000 0.74390  0.56490  0.42760  Biso   1.000  O
  O2       1.0000 0.75610  0.43510  0.92760  Biso   1.000  O
  O3       1.0000 0.24390  0.93510  0.57240  Biso   1.000  O
  O4       1.0000 0.25610  0.06490  0.07240  Biso   1.000  O
  O5       1.0000 0.46370  0.49690  0.49760  Biso   1.000  O
  O6       1.0000 0.03630  0.50310  0.99760  Biso   1.000  O
  O7       1.0000 0.96370  0.00310  0.50240  Biso   1.000  O
  O8       1.0000 0.53630  0.99690  0.00240  Biso   1.000  O
  O9       1.0000 0.93280  0.67850  0.53230  Biso   1.000  O
  O10      1.0000 0.56720  0.32150  0.03230  Biso   1.000  O
  O11      1.0000 0.43280  0.82150  0.46770  Biso   1.000  O
  O12      1.0000 0.06720  0.17850  0.96770  Biso   1.000  O
  O13      1.0000 0.80100  0.76400  0.67970  Biso   1.000  O
  O14      1.0000 0.69900  0.23600  0.17970  Biso   1.000  O
  O15      1.0000 0.30100  0.73600  0.32030  Biso   1.000  O
  O16      1.0000 0.19900  0.26400  0.82030  Biso   1.000  O
  O17      1.0000 0.32500  0.58480  0.64020  Biso   1.000  O
  O18      1.0000 0.17500  0.41520  0.14020  Biso   1.000  O
  O19      1.0000 0.82500  0.91520  0.35980  Biso   1.000  O
  O20      1.0000 0.67500  0.08480  0.85980  Biso   1.000  O
  O21      1.0000 0.52700  0.68100  0.75300  Biso   1.000  O
  O22      1.0000 0.97300  0.31900  0.25300  Biso   1.000  O
  O23      1.0000 0.02700  0.81900  0.24700  Biso   1.000  O
  O24      1.0000 0.47300  0.18100  0.74700  Biso   1.000  O
  C9       1.0000 0.68980  0.47450  0.40640  Biso   1.000  C
  C10      1.0000 0.81020  0.52550  0.90640  Biso   1.000  C
  C11      1.0000 0.18980  0.02550  0.59360  Biso   1.000  C
  C12      1.0000 0.31020  0.97450  0.09360  Biso   1.000  C
  H1       1.0000 0.73460  0.42910  0.44780  Biso   1.000  H
  H2       1.0000 0.76540  0.57090  0.94780  Biso   1.000  H
  H3       1.0000 0.23460  0.07090  0.55220  Biso   1.000  H
  H4       1.0000 0.26540  0.92910  0.05220  Biso   1.000  H
  H5       1.0000 0.72480  0.45760  0.34700  Biso   1.000  H
  H6       1.0000 0.77520  0.54240  0.84700  Biso   1.000  H
  H7       1.0000 0.22480  0.04240  0.65300  Biso   1.000  H
  H8       1.0000 0.27520  0.95760  0.15300  Biso   1.000  H
  C13      1.0000 0.50900  0.47480  0.41170  Biso   1.000  C
  C14      1.0000 0.99100  0.52520  0.91170  Biso   1.000  C
  C15      1.0000 0.00900  0.02520  0.58830  Biso   1.000  C
  C16      1.0000 0.49100  0.97480  0.08830  Biso   1.000  C
  H9       1.0000 0.46420  0.52080  0.37080  Biso   1.000  H
  H10      1.0000 0.03580  0.47920  0.87080  Biso   1.000  H
  H11      1.0000 0.96420  0.97920  0.62920  Biso   1.000  H
  H12      1.0000 0.53580  0.02080  0.12920  Biso   1.000  H
  H13      1.0000 0.46610  0.41350  0.39570  Biso   1.000  H
  H14      1.0000 0.03390  0.58650  0.89570  Biso   1.000  H
  H15      1.0000 0.96610  0.08650  0.60430  Biso   1.000  H
  H16      1.0000 0.53390  0.91350  0.10430  Biso   1.000  H
  C17      1.0000 0.29370  0.50250  0.50590  Biso   1.000  C
  C18      1.0000 0.20630  0.49750  0.00590  Biso   1.000  C
  C19      1.0000 0.79370  0.99750  0.49410  Biso   1.000  C
  C20      1.0000 0.70630  0.00250  0.99410  Biso   1.000  C
  H17      1.0000 0.24280  0.44860  0.47800  Biso   1.000  H
  H18      1.0000 0.25720  0.55140  0.97800  Biso   1.000  H
  H19      1.0000 0.74280  0.05140  0.52200  Biso   1.000  H
  H20      1.0000 0.75720  0.94860  0.02200  Biso   1.000  H
  H21      1.0000 0.25360  0.55900  0.47720  Biso   1.000  H
  H22      1.0000 0.24640  0.44100  0.97720  Biso   1.000  H
  H23      1.0000 0.75360  0.94100  0.52280  Biso   1.000  H
  H24      1.0000 0.74640  0.05900  0.02280  Biso   1.000  H
  C21      1.0000 0.25300  0.50470  0.60300  Biso   1.000  C
  C22      1.0000 0.24700  0.49530  0.10300  Biso   1.000  C
  C23      1.0000 0.75300  0.99530  0.39700  Biso   1.000  C
  C24      1.0000 0.74700  0.00470  0.89700  Biso   1.000  C
  H25      1.0000 0.13530  0.50700  0.61150  Biso   1.000  H
  H26      1.0000 0.36470  0.49300  0.11150  Biso   1.000  H
  H27      1.0000 0.63530  0.99300  0.38850  Biso   1.000  H
  H28      1.0000 0.86470  0.00700  0.88850  Biso   1.000  H
  H29      1.0000 0.29390  0.44870  0.63240  Biso   1.000  H
  H30      1.0000 0.20610  0.55130  0.13240  Biso   1.000  H
  H31      1.0000 0.79390  0.05130  0.36760  Biso   1.000  H
  H32      1.0000 0.70610  0.94870  0.86760  Biso   1.000  H
  C25      1.0000 0.29670  0.58780  0.73090  Biso   1.000  C
  C26      1.0000 0.20330  0.41220  0.23090  Biso   1.000  C
  C27      1.0000 0.79670  0.91220  0.26910  Biso   1.000  C
  C28      1.0000 0.70330  0.08780  0.76910  Biso   1.000  C
  H33      1.0000 0.31800  0.52560  0.75450  Biso   1.000  H
  H34      1.0000 0.18200  0.47440  0.25450  Biso   1.000  H
  H35      1.0000 0.81800  0.97440  0.24550  Biso   1.000  H
  H36      1.0000 0.68200  0.02560  0.74550  Biso   1.000  H
  H37      1.0000 0.18150  0.60040  0.73970  Biso   1.000  H
  H38      1.0000 0.31850  0.39960  0.23970  Biso   1.000  H
  H39      1.0000 0.68150  0.89960  0.26030  Biso   1.000  H
  H40      1.0000 0.81850  0.10040  0.76030  Biso   1.000  H
  C29      1.0000 0.39400  0.65940  0.78770  Biso   1.000  C
  C30      1.0000 0.10600  0.34060  0.28770  Biso   1.000  C
  C31      1.0000 0.89400  0.84060  0.21230  Biso   1.000  C
  C32      1.0000 0.60600  0.15940  0.71230  Biso   1.000  C
  H41      1.0000 0.32910  0.71580  0.79550  Biso   1.000  H
  H42      1.0000 0.17090  0.28420  0.29550  Biso   1.000  H
  H43      1.0000 0.82910  0.78420  0.20450  Biso   1.000  H
  H44      1.0000 0.67090  0.21580  0.70450  Biso   1.000  H
  H45      1.0000 0.41420  0.63270  0.84580  Biso   1.000  H
  H46      1.0000 0.08580  0.36730  0.34580  Biso   1.000  H
  H47      1.0000 0.91420  0.86730  0.15420  Biso   1.000  H
  H48      1.0000 0.58580  0.13270  0.65420  Biso   1.000  H
  C33      1.0000 0.59590  0.76190  0.78850  Biso   1.000  C
  C34      1.0000 0.90410  0.23810  0.28850  Biso   1.000  C
  C35      1.0000 0.09590  0.73810  0.21150  Biso   1.000  C
  C36      1.0000 0.40410  0.26190  0.71150  Biso   1.000  C
  H49      1.0000 0.57670  0.76400  0.85190  Biso   1.000  H
  H50      1.0000 0.92330  0.23600  0.35190  Biso   1.000  H
  H51      1.0000 0.07670  0.73600  0.14810  Biso   1.000  H
  H52      1.0000 0.42330  0.26400  0.64810  Biso   1.000  H
  H53      1.0000 0.54580  0.81690  0.76200  Biso   1.000  H
  H54      1.0000 0.95420  0.18310  0.26200  Biso   1.000  H
  H55      1.0000 0.04580  0.68310  0.23800  Biso   1.000  H
  H56      1.0000 0.45420  0.31690  0.73800  Biso   1.000  H
  C37      1.0000 0.77090  0.76230  0.77090  Biso   1.000  C
  C38      1.0000 0.72910  0.23770  0.27090  Biso   1.000  C
  C39      1.0000 0.27090  0.73770  0.22910  Biso   1.000  C
  C40      1.0000 0.22910  0.26230  0.72910  Biso   1.000  C
  H57      1.0000 0.82020  0.81690  0.79850  Biso   1.000  H
  H58      1.0000 0.67980  0.18310  0.29850  Biso   1.000  H
  H59      1.0000 0.32020  0.68310  0.20150  Biso   1.000  H
  H60      1.0000 0.17980  0.31690  0.70150  Biso   1.000  H
  H61      1.0000 0.82020  0.70660  0.79660  Biso   1.000  H
  H62      1.0000 0.67980  0.29340  0.29660  Biso   1.000  H
  H63      1.0000 0.32020  0.79340  0.20340  Biso   1.000  H
  H64      1.0000 0.17980  0.20660  0.70340  Biso   1.000  H
  C41      1.0000 0.96900  0.76590  0.66040  Biso   1.000  C
  C42      1.0000 0.53100  0.23410  0.16040  Biso   1.000  C
  C43      1.0000 0.46900  0.73410  0.33960  Biso   1.000  C
  C44      1.0000 0.03100  0.26590  0.83960  Biso   1.000  C
  H65      1.0000 0.02240  0.72250  0.70060  Biso   1.000  H
  H66      1.0000 0.47760  0.27750  0.20060  Biso   1.000  H
  H67      1.0000 0.52240  0.77750  0.29940  Biso   1.000  H
  H68      1.0000 0.97760  0.22250  0.79940  Biso   1.000  H
  H69      1.0000 0.00870  0.82830  0.67480  Biso   1.000  H
  H70      1.0000 0.49130  0.17170  0.17480  Biso   1.000  H
  H71      1.0000 0.50870  0.67170  0.32520  Biso   1.000  H
  H72      1.0000 0.99130  0.32830  0.82520  Biso   1.000  H
  C45      1.0000 0.02570  0.74330  0.56860  Biso   1.000  C
  C46      1.0000 0.47430  0.25670  0.06860  Biso   1.000  C
  C47      1.0000 0.52570  0.75670  0.43140  Biso   1.000  C
  C48      1.0000 0.97430  0.24330  0.93140  Biso   1.000  C
  H73      1.0000 0.02280  0.79970  0.53250  Biso   1.000  H
  H74      1.0000 0.47720  0.20030  0.03250  Biso   1.000  H
  H75      1.0000 0.52280  0.70030  0.46750  Biso   1.000  H
  H76      1.0000 0.97720  0.29970  0.96750  Biso   1.000  H
  H77      1.0000 0.13760  0.72120  0.57070  Biso   1.000  H
  H78      1.0000 0.36240  0.27880  0.07070  Biso   1.000  H
  H79      1.0000 0.63760  0.77880  0.42930  Biso   1.000  H
  H80      1.0000 0.86240  0.22120  0.92930  Biso   1.000  H
  C49      1.0000 0.96230  0.66790  0.44200  Biso   1.000  C
  C50      1.0000 0.53770  0.33210  0.94200  Biso   1.000  C
  C51      1.0000 0.46230  0.83210  0.55800  Biso   1.000  C
  C52      1.0000 0.03770  0.16790  0.05800  Biso   1.000  C
  H81      1.0000 0.07740  0.67680  0.42960  Biso   1.000  H
  H82      1.0000 0.42260  0.32320  0.92960  Biso   1.000  H
  H83      1.0000 0.57740  0.82320  0.57040  Biso   1.000  H
  H84      1.0000 0.92260  0.17680  0.07040  Biso   1.000  H
  H85      1.0000 0.90100  0.71430  0.40870  Biso   1.000  H
  H86      1.0000 0.59900  0.28570  0.90870  Biso   1.000  H
  H87      1.0000 0.40100  0.78570  0.59130  Biso   1.000  H
  H88      1.0000 0.09900  0.21430  0.09130  Biso   1.000  H
  C53      1.0000 0.91000  0.57000  0.41530  Biso   1.000  C
  C54      1.0000 0.59000  0.43000  0.91530  Biso   1.000  C
  C55      1.0000 0.41000  0.93000  0.58470  Biso   1.000  C
  C56      1.0000 0.09000  0.07000  0.08470  Biso   1.000  C
  H89      1.0000 0.93730  0.55840  0.35360  Biso   1.000  H
  H90      1.0000 0.56270  0.44160  0.85360  Biso   1.000  H
  H91      1.0000 0.43730  0.94160  0.64640  Biso   1.000  H
  H92      1.0000 0.06270  0.05840  0.14640  Biso   1.000  H
  H93      1.0000 0.96510  0.52350  0.45160  Biso   1.000  H
  H94      1.0000 0.53490  0.47650  0.95160  Biso   1.000  H
  H95      1.0000 0.46510  0.97650  0.54840  Biso   1.000  H
  H96      1.0000 0.03490  0.02350  0.04840  Biso   1.000  H
  O25      1.0000 0.63070  0.52490  0.43830  Biso   1.000  O
  O26      1.0000 0.86930  0.47510  0.93830  Biso   1.000  O
  O27      1.0000 0.13070  0.97510  0.56170  Biso   1.000  O
  O28      1.0000 0.36930  0.02490  0.06170  Biso   1.000  O
  O29      1.0000 0.38560  0.51150  0.55920  Biso   1.000  O
  O30      1.0000 0.11440  0.48850  0.05920  Biso   1.000  O
  O31      1.0000 0.88560  0.98850  0.44080  Biso   1.000  O
  O32      1.0000 0.61440  0.01150  0.94080  Biso   1.000  O
  O33      1.0000 0.36780  0.63490  0.70100  Biso   1.000  O
  O34      1.0000 0.13220  0.36510  0.20100  Biso   1.000  O
  O35      1.0000 0.86780  0.86510  0.29900  Biso   1.000  O
  O36      1.0000 0.63220  0.13490  0.79900  Biso   1.000  O
  O37      1.0000 0.65110  0.72200  0.74650  Biso   1.000  O
  O38      1.0000 0.84890  0.27800  0.24650  Biso   1.000  O
  O39      1.0000 0.15110  0.77800  0.25350  Biso   1.000  O
  O40      1.0000 0.34890  0.22200  0.75350  Biso   1.000  O
  O41      1.0000 0.87900  0.75100  0.61450  Biso   1.000  O
  O42      1.0000 0.62100  0.24900  0.11450  Biso   1.000  O
  O43      1.0000 0.37900  0.74900  0.38550  Biso   1.000  O
  O44      1.0000 0.12100  0.25100  0.88550  Biso   1.000  O
  O45      1.0000 0.90700  0.62040  0.48030  Biso   1.000  O
  O46      1.0000 0.59300  0.37960  0.98030  Biso   1.000  O
  O47      1.0000 0.40700  0.87960  0.51970  Biso   1.000  O
  O48      1.0000 0.09300  0.12040  0.01970  Biso   1.000  O
  C57      1.0000 0.51800  0.45230  0.43340  Biso   1.000  C
  C58      1.0000 0.98200  0.54770  0.93340  Biso   1.000  C
  C59      1.0000 0.01800  0.04770  0.56660  Biso   1.000  C
  C60      1.0000 0.48200  0.95230  0.06660  Biso   1.000  C
  H97      1.0000 0.55620  0.39850  0.46700  Biso   1.000  H
  H98      1.0000 0.94380  0.60150  0.96700  Biso   1.000  H
  H99      1.0000 0.05620  0.10150  0.53300  Biso   1.000  H
  H100     1.0000 0.44380  0.89850  0.03300  Biso   1.000  H
  H101     1.0000 0.50230  0.43330  0.37220  Biso   1.000  H
  H102     1.0000 0.99770  0.56670  0.87220  Biso   1.000  H
  H103     1.0000 0.00230  0.06670  0.62780  Biso   1.000  H
  H104     1.0000 0.49770  0.93330  0.12780  Biso   1.000  H
  C61      1.0000 0.36360  0.48880  0.47130  Biso   1.000  C
  C62      1.0000 0.13640  0.51120  0.97130  Biso   1.000  C
  C63      1.0000 0.86360  0.01120  0.52870  Biso   1.000  C
  C64      1.0000 0.63640  0.98880  0.02870  Biso   1.000  C
  H105     1.0000 0.32910  0.54400  0.43860  Biso   1.000  H
  H106     1.0000 0.17090  0.45600  0.93860  Biso   1.000  H
  H107     1.0000 0.82910  0.95600  0.56140  Biso   1.000  H
  H108     1.0000 0.67090  0.04400  0.06140  Biso   1.000  H
  H109     1.0000 0.27900  0.44150  0.46600  Biso   1.000  H
  H110     1.0000 0.22100  0.55850  0.96600  Biso   1.000  H
  H111     1.0000 0.77900  0.05850  0.53400  Biso   1.000  H
  H112     1.0000 0.72100  0.94150  0.03400  Biso   1.000  H
  C65      1.0000 0.24100  0.53220  0.59800  Biso   1.000  C
  C66      1.0000 0.25900  0.46780  0.09800  Biso   1.000  C
  C67      1.0000 0.74100  0.96780  0.40200  Biso   1.000  C
  C68      1.0000 0.75900  0.03220  0.90200  Biso   1.000  C
  H113     1.0000 0.16640  0.47940  0.59290  Biso   1.000  H
  H114     1.0000 0.33360  0.52060  0.09290  Biso   1.000  H
  H115     1.0000 0.66640  0.02060  0.40710  Biso   1.000  H
  H116     1.0000 0.83360  0.97940  0.90710  Biso   1.000  H
  H117     1.0000 0.19110  0.58630  0.56970  Biso   1.000  H
  H118     1.0000 0.30890  0.41370  0.06970  Biso   1.000  H
  H119     1.0000 0.69110  0.91370  0.43030  Biso   1.000  H
  H120     1.0000 0.80890  0.08630  0.93030  Biso   1.000  H
  C69      1.0000 0.27430  0.55340  0.69580  Biso   1.000  C
  C70      1.0000 0.22570  0.44660  0.19580  Biso   1.000  C
  C71      1.0000 0.77430  0.94660  0.30420  Biso   1.000  C
  C72      1.0000 0.72570  0.05340  0.80420  Biso   1.000  C
  H121     1.0000 0.17230  0.56190  0.72740  Biso   1.000  H
  H122     1.0000 0.32770  0.43810  0.22740  Biso   1.000  H
  H123     1.0000 0.67230  0.93810  0.27260  Biso   1.000  H
  H124     1.0000 0.82770  0.06190  0.77260  Biso   1.000  H
  H125     1.0000 0.33260  0.50130  0.72270  Biso   1.000  H
  H126     1.0000 0.16740  0.49870  0.22270  Biso   1.000  H
  H127     1.0000 0.83260  0.99870  0.27730  Biso   1.000  H
  H128     1.0000 0.66740  0.00130  0.77730  Biso   1.000  H
  C73      1.0000 0.36100  0.67860  0.76480  Biso   1.000  C
  C74      1.0000 0.13900  0.32140  0.26480  Biso   1.000  C
  C75      1.0000 0.86100  0.82140  0.23520  Biso   1.000  C
  C76      1.0000 0.63900  0.17860  0.73520  Biso   1.000  C
  H129     1.0000 0.34590  0.63530  0.81370  Biso   1.000  H
  H130     1.0000 0.15410  0.36470  0.31370  Biso   1.000  H
  H131     1.0000 0.84590  0.86470  0.18630  Biso   1.000  H
  H132     1.0000 0.65410  0.13530  0.68630  Biso   1.000  H
  H133     1.0000 0.26370  0.71690  0.76130  Biso   1.000  H
  H134     1.0000 0.23630  0.28310  0.26130  Biso   1.000  H
  H135     1.0000 0.76370  0.78310  0.23870  Biso   1.000  H
  H136     1.0000 0.73630  0.21690  0.73870  Biso   1.000  H
  C77      1.0000 0.50250  0.74370  0.78980  Biso   1.000  C
  C78      1.0000 0.99750  0.25630  0.28980  Biso   1.000  C
  C79      1.0000 0.00250  0.75630  0.21020  Biso   1.000  C
  C80      1.0000 0.49750  0.24370  0.71020  Biso   1.000  C
  H137     1.0000 0.47230  0.80780  0.77540  Biso   1.000  H
  H138     1.0000 0.02770  0.19220  0.27540  Biso   1.000  H
  H139     1.0000 0.97230  0.69220  0.22460  Biso   1.000  H
  H140     1.0000 0.52770  0.30780  0.72460  Biso   1.000  H
  H141     1.0000 0.51940  0.74030  0.85340  Biso   1.000  H
  H142     1.0000 0.98060  0.25970  0.35340  Biso   1.000  H
  H143     1.0000 0.01940  0.75970  0.14660  Biso   1.000  H
  H144     1.0000 0.48060  0.24030  0.64660  Biso   1.000  H
  C81      1.0000 0.76210  0.79770  0.74830  Biso   1.000  C
  C82      1.0000 0.73790  0.20230  0.24830  Biso   1.000  C
  C83      1.0000 0.26210  0.70230  0.25170  Biso   1.000  C
  C84      1.0000 0.23790  0.29770  0.75170  Biso   1.000  C
  H145     1.0000 0.78570  0.81490  0.80930  Biso   1.000  H
  H146     1.0000 0.71430  0.18510  0.30930  Biso   1.000  H
  H147     1.0000 0.28570  0.68510  0.19070  Biso   1.000  H
  H148     1.0000 0.21430  0.31490  0.69070  Biso   1.000  H
  H149     1.0000 0.71460  0.85180  0.71890  Biso   1.000  H
  H150     1.0000 0.78540  0.14820  0.21890  Biso   1.000  H
  H151     1.0000 0.21460  0.64820  0.28110  Biso   1.000  H
  H152     1.0000 0.28540  0.35180  0.78110  Biso   1.000  H
  C85      1.0000 0.91130  0.77050  0.70370  Biso   1.000  C
  C86      1.0000 0.58870  0.22950  0.20370  Biso   1.000  C
  C87      1.0000 0.41130  0.72950  0.29630  Biso   1.000  C
  C88      1.0000 0.08870  0.27050  0.79630  Biso   1.000  C
  H153     1.0000 0.99070  0.82080  0.70800  Biso   1.000  H
  H154     1.0000 0.50930  0.17920  0.20800  Biso   1.000  H
  H155     1.0000 0.49070  0.67920  0.29200  Biso   1.000  H
  H156     1.0000 0.00930  0.32080  0.79200  Biso   1.000  H
  H157     1.0000 0.95680  0.71520  0.73220  Biso   1.000  H
  H158     1.0000 0.54320  0.28480  0.23220  Biso   1.000  H
  H159     1.0000 0.45680  0.78480  0.26780  Biso   1.000  H
  H160     1.0000 0.04320  0.21520  0.76780  Biso   1.000  H
  C89      1.0000 0.98600  0.76050  0.56140  Biso   1.000  C
  C90      1.0000 0.51400  0.23950  0.06140  Biso   1.000  C
  C91      1.0000 0.48600  0.73950  0.43860  Biso   1.000  C
  C92      1.0000 0.01400  0.26050  0.93860  Biso   1.000  C
  H161     1.0000 0.08720  0.74510  0.59120  Biso   1.000  H
  H162     1.0000 0.41280  0.25490  0.09120  Biso   1.000  H
  H163     1.0000 0.58720  0.75490  0.40880  Biso   1.000  H
  H164     1.0000 0.91280  0.24510  0.90880  Biso   1.000  H
  H165     1.0000 0.99070  0.82690  0.54690  Biso   1.000  H
  H166     1.0000 0.50930  0.17310  0.04690  Biso   1.000  H
  H167     1.0000 0.49070  0.67310  0.45310  Biso   1.000  H
  H168     1.0000 0.00930  0.32690  0.95310  Biso   1.000  H
  C93      1.0000 0.98460  0.70770  0.47520  Biso   1.000  C
  C94      1.0000 0.51540  0.29230  0.97520  Biso   1.000  C
  C95      1.0000 0.48460  0.79230  0.52480  Biso   1.000  C
  C96      1.0000 0.01540  0.20770  0.02480  Biso   1.000  C
  H169     1.0000 0.93010  0.74570  0.43070  Biso   1.000  H
  H170     1.0000 0.56990  0.25430  0.93070  Biso   1.000  H
  H171     1.0000 0.43010  0.75430  0.56930  Biso   1.000  H
  H172     1.0000 0.06990  0.24570  0.06930  Biso   1.000  H
  H173     1.0000 0.09630  0.69830  0.45590  Biso   1.000  H
  H174     1.0000 0.40370  0.30170  0.95590  Biso   1.000  H
  H175     1.0000 0.59630  0.80170  0.54410  Biso   1.000  H
  H176     1.0000 0.90370  0.19830  0.04410  Biso   1.000  H
  C97      1.0000 0.88500  0.58290  0.39600  Biso   1.000  C
  C98      1.0000 0.61500  0.41710  0.89600  Biso   1.000  C
  C99      1.0000 0.38500  0.91710  0.60400  Biso   1.000  C
  C100     1.0000 0.11500  0.08290  0.10400  Biso   1.000  C
  H177     1.0000 0.98930  0.56760  0.36950  Biso   1.000  H
  H178     1.0000 0.51070  0.43240  0.86950  Biso   1.000  H
  H179     1.0000 0.48930  0.93240  0.63050  Biso   1.000  H
  H180     1.0000 0.01070  0.06760  0.13050  Biso   1.000  H
  H181     1.0000 0.82950  0.62790  0.35810  Biso   1.000  H
  H182     1.0000 0.67050  0.37210  0.85810  Biso   1.000  H
  H183     1.0000 0.32950  0.87210  0.64190  Biso   1.000  H
  H184     1.0000 0.17050  0.12790  0.14190  Biso   1.000  H
  C101     1.0000 0.78260  0.49520  0.40620  Biso   1.000  C
  C102     1.0000 0.71740  0.50480  0.90620  Biso   1.000  C
  C103     1.0000 0.28260  0.00480  0.59380  Biso   1.000  C
  C104     1.0000 0.21740  0.99520  0.09380  Biso   1.000  C
  H185     1.0000 0.77010  0.46370  0.34950  Biso   1.000  H
  H186     1.0000 0.72990  0.53630  0.84950  Biso   1.000  H
  H187     1.0000 0.27010  0.03630  0.65050  Biso   1.000  H
  H188     1.0000 0.22990  0.96370  0.15050  Biso   1.000  H
  H189     1.0000 0.83340  0.45210  0.44770  Biso   1.000  H
  H190     1.0000 0.66660  0.54790  0.94770  Biso   1.000  H
  H191     1.0000 0.33340  0.04790  0.55230  Biso   1.000  H
  H192     1.0000 0.16660  0.95210  0.05230  Biso   1.000  H
