data_image0
_cell_length_a       13.4597
_cell_length_b       8.7914
_cell_length_c       21.8869
_cell_angle_alpha    90
_cell_angle_beta     99.443
_cell_angle_gamma    90

_symmetry_space_group_name_H-M    "P 1"
_symmetry_int_tables_number       1

loop_
  _symmetry_equiv_pos_as_xyz
  'x, y, z'

loop_
  _atom_site_label
  _atom_site_occupancy
  _atom_site_fract_x
  _atom_site_fract_y
  _atom_site_fract_z
  _atom_site_thermal_displace_type
  _atom_site_B_iso_or_equiv
  _atom_site_type_symbol
  C1       1.0000 0.69370  0.17350  0.04580  Biso   1.000  C
  C2       1.0000 0.30630  0.67350  0.45420  Biso   1.000  C
  C3       1.0000 0.30630  0.82650  0.95420  Biso   1.000  C
  C4       1.0000 0.69370  0.32650  0.54580  Biso   1.000  C
  C5       1.0000 0.51370  0.97300  0.16124  Biso   1.000  C
  C6       1.0000 0.48630  0.47300  0.33876  Biso   1.000  C
  C7       1.0000 0.48630  0.02700  0.83876  Biso   1.000  C
  C8       1.0000 0.51370  0.52700  0.66124  Biso   1.000  C
  H1       1.0000 0.58330  0.00960  0.16640  Biso   1.000  H
  H2       1.0000 0.41670  0.50960  0.33360  Biso   1.000  H
  H3       1.0000 0.41670  0.99040  0.83360  Biso   1.000  H
  H4       1.0000 0.58330  0.49040  0.66640  Biso   1.000  H
  H5       1.0000 0.51310  0.86160  0.15920  Biso   1.000  H
  H6       1.0000 0.48690  0.36160  0.34080  Biso   1.000  H
  H7       1.0000 0.48690  0.13840  0.84080  Biso   1.000  H
  H8       1.0000 0.51310  0.63840  0.65920  Biso   1.000  H
  H9       1.0000 0.48260  0.00620  0.19650  Biso   1.000  H
  H10      1.0000 0.51740  0.50620  0.30350  Biso   1.000  H
  H11      1.0000 0.51740  0.99380  0.80350  Biso   1.000  H
  H12      1.0000 0.48260  0.49380  0.69650  Biso   1.000  H
  C9       1.0000 0.30620  0.98680  0.09267  Biso   1.000  C
  C10      1.0000 0.69380  0.48680  0.40733  Biso   1.000  C
  C11      1.0000 0.69380  0.01320  0.90733  Biso   1.000  C
  C12      1.0000 0.30620  0.51320  0.59267  Biso   1.000  C
  H13      1.0000 0.29940  0.87840  0.08230  Biso   1.000  H
  H14      1.0000 0.70060  0.37840  0.41770  Biso   1.000  H
  H15      1.0000 0.70060  0.12160  0.91770  Biso   1.000  H
  H16      1.0000 0.29940  0.62160  0.58230  Biso   1.000  H
  H17      1.0000 0.25740  0.04520  0.06370  Biso   1.000  H
  H18      1.0000 0.74260  0.54520  0.43630  Biso   1.000  H
  H19      1.0000 0.74260  0.95480  0.93630  Biso   1.000  H
  H20      1.0000 0.25740  0.45480  0.56370  Biso   1.000  H
  H21      1.0000 0.29320  0.00270  0.13500  Biso   1.000  H
  H22      1.0000 0.70680  0.50270  0.36500  Biso   1.000  H
  H23      1.0000 0.70680  0.99730  0.86500  Biso   1.000  H
  H24      1.0000 0.29320  0.49730  0.63500  Biso   1.000  H
  C13      1.0000 0.42740  0.26450  0.10501  Biso   1.000  C
  C14      1.0000 0.57260  0.76450  0.39499  Biso   1.000  C
  C15      1.0000 0.57260  0.73550  0.89499  Biso   1.000  C
  C16      1.0000 0.42740  0.23550  0.60501  Biso   1.000  C
  C17      1.0000 0.42720  0.37910  0.06121  Biso   1.000  C
  C18      1.0000 0.57280  0.87910  0.43879  Biso   1.000  C
  C19      1.0000 0.57280  0.62090  0.93879  Biso   1.000  C
  C20      1.0000 0.42720  0.12090  0.56121  Biso   1.000  C
  H25      1.0000 0.44060  0.35390  0.02110  Biso   1.000  H
  H26      1.0000 0.55940  0.85390  0.47890  Biso   1.000  H
  H27      1.0000 0.55940  0.64610  0.97890  Biso   1.000  H
  H28      1.0000 0.44060  0.14610  0.52110  Biso   1.000  H
  C21      1.0000 0.40720  0.53410  0.07510  Biso   1.000  C
  C22      1.0000 0.59280  0.03410  0.42490  Biso   1.000  C
  C23      1.0000 0.59280  0.46590  0.92490  Biso   1.000  C
  C24      1.0000 0.40720  0.96590  0.57510  Biso   1.000  C
  H29      1.0000 0.40600  0.61040  0.04420  Biso   1.000  H
  H30      1.0000 0.59400  0.11040  0.45580  Biso   1.000  H
  H31      1.0000 0.59400  0.38960  0.95580  Biso   1.000  H
  H32      1.0000 0.40600  0.88960  0.54420  Biso   1.000  H
  C25      1.0000 0.39000  0.57150  0.13290  Biso   1.000  C
  C26      1.0000 0.61000  0.07150  0.36710  Biso   1.000  C
  C27      1.0000 0.61000  0.42850  0.86710  Biso   1.000  C
  C28      1.0000 0.39000  0.92850  0.63290  Biso   1.000  C
  H33      1.0000 0.37710  0.67440  0.14230  Biso   1.000  H
  H34      1.0000 0.62290  0.17440  0.35770  Biso   1.000  H
  H35      1.0000 0.62290  0.32560  0.85770  Biso   1.000  H
  H36      1.0000 0.37710  0.82560  0.64230  Biso   1.000  H
  C29      1.0000 0.39100  0.46300  0.17730  Biso   1.000  C
  C30      1.0000 0.60900  0.96300  0.32270  Biso   1.000  C
  C31      1.0000 0.60900  0.53700  0.82270  Biso   1.000  C
  C32      1.0000 0.39100  0.03700  0.67730  Biso   1.000  C
  H37      1.0000 0.37870  0.48980  0.21740  Biso   1.000  H
  H38      1.0000 0.62130  0.98980  0.28260  Biso   1.000  H
  H39      1.0000 0.62130  0.51020  0.78260  Biso   1.000  H
  H40      1.0000 0.37870  0.01020  0.71740  Biso   1.000  H
  C33      1.0000 0.40990  0.31320  0.16349  Biso   1.000  C
  C34      1.0000 0.59010  0.81320  0.33651  Biso   1.000  C
  C35      1.0000 0.59010  0.68680  0.83651  Biso   1.000  C
  C36      1.0000 0.40990  0.18680  0.66349  Biso   1.000  C
  H41      1.0000 0.41120  0.23930  0.19530  Biso   1.000  H
  H42      1.0000 0.58880  0.73930  0.30470  Biso   1.000  H
  H43      1.0000 0.58880  0.76070  0.80470  Biso   1.000  H
  H44      1.0000 0.41120  0.26070  0.69530  Biso   1.000  H
  N1       1.0000 0.77004  0.23290  0.05835  Biso   1.000  N
  N2       1.0000 0.22996  0.73290  0.44165  Biso   1.000  N
  N3       1.0000 0.22996  0.76710  0.94165  Biso   1.000  N
  N4       1.0000 0.77004  0.26710  0.55835  Biso   1.000  N
  O1       1.0000 0.73350  0.44420  0.18537  Biso   1.000  O
  O2       1.0000 0.26650  0.94420  0.31463  Biso   1.000  O
  O3       1.0000 0.26650  0.55580  0.81463  Biso   1.000  O
  O4       1.0000 0.73350  0.05580  0.68537  Biso   1.000  O
  C37      1.0000 0.70040  0.32870  0.21470  Biso   1.000  C
  C38      1.0000 0.29960  0.82870  0.28530  Biso   1.000  C
  C39      1.0000 0.29960  0.67130  0.78530  Biso   1.000  C
  C40      1.0000 0.70040  0.17130  0.71470  Biso   1.000  C
  H45      1.0000 0.64160  0.28290  0.18790  Biso   1.000  H
  H46      1.0000 0.35840  0.78290  0.31210  Biso   1.000  H
  H47      1.0000 0.35840  0.71710  0.81210  Biso   1.000  H
  H48      1.0000 0.64160  0.21710  0.68790  Biso   1.000  H
  H49      1.0000 0.67740  0.36680  0.25270  Biso   1.000  H
  H50      1.0000 0.32260  0.86680  0.24730  Biso   1.000  H
  H51      1.0000 0.32260  0.63320  0.74730  Biso   1.000  H
  H52      1.0000 0.67740  0.13320  0.75270  Biso   1.000  H
  C41      1.0000 0.77810  0.20950  0.23230  Biso   1.000  C
  C42      1.0000 0.22190  0.70950  0.26770  Biso   1.000  C
  C43      1.0000 0.22190  0.79050  0.76770  Biso   1.000  C
  C44      1.0000 0.77810  0.29050  0.73230  Biso   1.000  C
  H53      1.0000 0.76880  0.16920  0.27320  Biso   1.000  H
  H54      1.0000 0.23120  0.66920  0.22680  Biso   1.000  H
  H55      1.0000 0.23120  0.83080  0.72680  Biso   1.000  H
  H56      1.0000 0.76880  0.33080  0.77320  Biso   1.000  H
  H57      1.0000 0.76300  0.12520  0.20220  Biso   1.000  H
  H58      1.0000 0.23700  0.62520  0.29780  Biso   1.000  H
  H59      1.0000 0.23700  0.87480  0.79780  Biso   1.000  H
  H60      1.0000 0.76300  0.37480  0.70220  Biso   1.000  H
  O5       1.0000 0.88170  0.24590  0.23588  Biso   1.000  O
  O6       1.0000 0.11830  0.74590  0.26412  Biso   1.000  O
  O7       1.0000 0.11830  0.75410  0.76412  Biso   1.000  O
  O8       1.0000 0.88170  0.25410  0.73588  Biso   1.000  O
  C45      1.0000 0.93890  0.13120  0.23790  Biso   1.000  C
  C46      1.0000 0.06110  0.63120  0.26210  Biso   1.000  C
  C47      1.0000 0.06110  0.86880  0.76210  Biso   1.000  C
  C48      1.0000 0.93890  0.36880  0.73790  Biso   1.000  C
  H61      1.0000 0.90920  0.06020  0.20480  Biso   1.000  H
  H62      1.0000 0.09080  0.56020  0.29520  Biso   1.000  H
  H63      1.0000 0.09080  0.93980  0.79520  Biso   1.000  H
  H64      1.0000 0.90920  0.43980  0.70480  Biso   1.000  H
  H65      1.0000 0.93830  0.07900  0.27790  Biso   1.000  H
  H66      1.0000 0.06170  0.57900  0.22210  Biso   1.000  H
  H67      1.0000 0.06170  0.92100  0.72210  Biso   1.000  H
  H68      1.0000 0.93830  0.42100  0.77790  Biso   1.000  H
  C49      1.0000 0.04690  0.15790  0.23120  Biso   1.000  C
  C50      1.0000 0.95310  0.65790  0.26880  Biso   1.000  C
  C51      1.0000 0.95310  0.84210  0.76880  Biso   1.000  C
  C52      1.0000 0.04690  0.34210  0.73120  Biso   1.000  C
  H69      1.0000 0.08150  0.21610  0.26720  Biso   1.000  H
  H70      1.0000 0.91850  0.71610  0.23280  Biso   1.000  H
  H71      1.0000 0.91850  0.78390  0.73280  Biso   1.000  H
  H72      1.0000 0.08150  0.28390  0.76720  Biso   1.000  H
  H73      1.0000 0.08190  0.05920  0.22980  Biso   1.000  H
  H74      1.0000 0.91810  0.55920  0.27020  Biso   1.000  H
  H75      1.0000 0.91810  0.94080  0.77020  Biso   1.000  H
  H76      1.0000 0.08190  0.44080  0.72980  Biso   1.000  H
  O9       1.0000 0.05020  0.24030  0.17584  Biso   1.000  O
  O10      1.0000 0.94980  0.74030  0.32416  Biso   1.000  O
  O11      1.0000 0.94980  0.75970  0.82416  Biso   1.000  O
  O12      1.0000 0.05020  0.25970  0.67584  Biso   1.000  O
  C53      1.0000 0.15080  0.27320  0.16750  Biso   1.000  C
  C54      1.0000 0.84920  0.77320  0.33250  Biso   1.000  C
  C55      1.0000 0.84920  0.72680  0.83250  Biso   1.000  C
  C56      1.0000 0.15080  0.22680  0.66750  Biso   1.000  C
  H77      1.0000 0.18930  0.17740  0.16700  Biso   1.000  H
  H78      1.0000 0.81070  0.67740  0.33300  Biso   1.000  H
  H79      1.0000 0.81070  0.82260  0.83300  Biso   1.000  H
  H80      1.0000 0.18930  0.32260  0.66700  Biso   1.000  H
  H81      1.0000 0.18440  0.33640  0.20230  Biso   1.000  H
  H82      1.0000 0.81560  0.83640  0.29770  Biso   1.000  H
  H83      1.0000 0.81560  0.66360  0.79770  Biso   1.000  H
  H84      1.0000 0.18440  0.16360  0.70230  Biso   1.000  H
  C57      1.0000 0.14920  0.35520  0.10860  Biso   1.000  C
  C58      1.0000 0.85080  0.85520  0.39140  Biso   1.000  C
  C59      1.0000 0.85080  0.64480  0.89140  Biso   1.000  C
  C60      1.0000 0.14920  0.14480  0.60860  Biso   1.000  C
  H85      1.0000 0.21880  0.36940  0.10040  Biso   1.000  H
  H86      1.0000 0.78120  0.86940  0.39960  Biso   1.000  H
  H87      1.0000 0.78120  0.63060  0.89960  Biso   1.000  H
  H88      1.0000 0.21880  0.13060  0.60040  Biso   1.000  H
  H89      1.0000 0.11140  0.29540  0.07400  Biso   1.000  H
  H90      1.0000 0.88860  0.79540  0.42600  Biso   1.000  H
  H91      1.0000 0.88860  0.70460  0.92600  Biso   1.000  H
  H92      1.0000 0.11140  0.20460  0.57400  Biso   1.000  H
  O13      1.0000 0.10220  0.49970  0.11244  Biso   1.000  O
  O14      1.0000 0.89780  0.99970  0.38756  Biso   1.000  O
  O15      1.0000 0.89780  0.50030  0.88756  Biso   1.000  O
  O16      1.0000 0.10220  0.00030  0.61244  Biso   1.000  O
  C61      1.0000 0.11340  0.59440  0.06110  Biso   1.000  C
  C62      1.0000 0.88660  0.09440  0.43890  Biso   1.000  C
  C63      1.0000 0.88660  0.40560  0.93890  Biso   1.000  C
  C64      1.0000 0.11340  0.90560  0.56110  Biso   1.000  C
  H93      1.0000 0.08580  0.54290  0.02170  Biso   1.000  H
  H94      1.0000 0.91420  0.04290  0.47830  Biso   1.000  H
  H95      1.0000 0.91420  0.45710  0.97830  Biso   1.000  H
  H96      1.0000 0.08580  0.95710  0.52170  Biso   1.000  H
  H97      1.0000 0.18560  0.61640  0.06100  Biso   1.000  H
  H98      1.0000 0.81440  0.11640  0.43900  Biso   1.000  H
  H99      1.0000 0.81440  0.38360  0.93900  Biso   1.000  H
  H100     1.0000 0.18560  0.88360  0.56100  Biso   1.000  H
  C65      1.0000 0.05670  0.74040  0.06740  Biso   1.000  C
  C66      1.0000 0.94330  0.24040  0.43260  Biso   1.000  C
  C67      1.0000 0.94330  0.25960  0.93260  Biso   1.000  C
  C68      1.0000 0.05670  0.75960  0.56740  Biso   1.000  C
  H101     1.0000 0.08210  0.78950  0.10760  Biso   1.000  H
  H102     1.0000 0.91790  0.28950  0.39240  Biso   1.000  H
  H103     1.0000 0.91790  0.21050  0.89240  Biso   1.000  H
  H104     1.0000 0.08210  0.71050  0.60760  Biso   1.000  H
  H105     1.0000 0.06570  0.81190  0.03380  Biso   1.000  H
  H106     1.0000 0.93430  0.31190  0.46620  Biso   1.000  H
  H107     1.0000 0.93430  0.18810  0.96620  Biso   1.000  H
  H108     1.0000 0.06570  0.68810  0.53380  Biso   1.000  H
  O17      1.0000 0.95290  0.70270  0.06373  Biso   1.000  O
  O18      1.0000 0.04710  0.20270  0.43627  Biso   1.000  O
  O19      1.0000 0.04710  0.29730  0.93627  Biso   1.000  O
  O20      1.0000 0.95290  0.79730  0.56373  Biso   1.000  O
  C69      1.0000 0.89660  0.83100  0.06780  Biso   1.000  C
  C70      1.0000 0.10340  0.33100  0.43220  Biso   1.000  C
  C71      1.0000 0.10340  0.16900  0.93220  Biso   1.000  C
  C72      1.0000 0.89660  0.66900  0.56780  Biso   1.000  C
  H109     1.0000 0.90600  0.90380  0.03470  Biso   1.000  H
  H110     1.0000 0.09400  0.40380  0.46530  Biso   1.000  H
  H111     1.0000 0.09400  0.09620  0.96530  Biso   1.000  H
  H112     1.0000 0.90600  0.59620  0.53470  Biso   1.000  H
  H113     1.0000 0.91720  0.88090  0.10840  Biso   1.000  H
  H114     1.0000 0.08280  0.38090  0.39160  Biso   1.000  H
  H115     1.0000 0.08280  0.11910  0.89160  Biso   1.000  H
  H116     1.0000 0.91720  0.61910  0.60840  Biso   1.000  H
  C73      1.0000 0.78370  0.77860  0.06010  Biso   1.000  C
  C74      1.0000 0.21630  0.27860  0.43990  Biso   1.000  C
  C75      1.0000 0.21630  0.22140  0.93990  Biso   1.000  C
  C76      1.0000 0.78370  0.72140  0.56010  Biso   1.000  C
  H117     1.0000 0.73820  0.86780  0.05490  Biso   1.000  H
  H118     1.0000 0.26180  0.36780  0.44510  Biso   1.000  H
  H119     1.0000 0.26180  0.13220  0.94510  Biso   1.000  H
  H120     1.0000 0.73820  0.63220  0.55490  Biso   1.000  H
  H121     1.0000 0.76670  0.71200  0.02340  Biso   1.000  H
  H122     1.0000 0.23330  0.21200  0.47660  Biso   1.000  H
  H123     1.0000 0.23330  0.28800  0.97660  Biso   1.000  H
  H124     1.0000 0.76670  0.78800  0.52340  Biso   1.000  H
  O21      1.0000 0.77330  0.69710  0.11542  Biso   1.000  O
  O22      1.0000 0.22670  0.19710  0.38458  Biso   1.000  O
  O23      1.0000 0.22670  0.30290  0.88458  Biso   1.000  O
  O24      1.0000 0.77330  0.80290  0.61542  Biso   1.000  O
  C77      1.0000 0.67430  0.63690  0.11290  Biso   1.000  C
  C78      1.0000 0.32570  0.13690  0.38710  Biso   1.000  C
  C79      1.0000 0.32570  0.36310  0.88710  Biso   1.000  C
  C80      1.0000 0.67430  0.86310  0.61290  Biso   1.000  C
  H125     1.0000 0.66160  0.55730  0.08050  Biso   1.000  H
  H126     1.0000 0.33840  0.05730  0.41950  Biso   1.000  H
  H127     1.0000 0.33840  0.44270  0.91950  Biso   1.000  H
  H128     1.0000 0.66160  0.94270  0.58050  Biso   1.000  H
  H129     1.0000 0.62380  0.71860  0.10230  Biso   1.000  H
  H130     1.0000 0.37620  0.21860  0.39770  Biso   1.000  H
  H131     1.0000 0.37620  0.28140  0.89770  Biso   1.000  H
  H132     1.0000 0.62380  0.78140  0.60230  Biso   1.000  H
  C81      1.0000 0.66570  0.57140  0.17400  Biso   1.000  C
  C82      1.0000 0.33430  0.07140  0.32600  Biso   1.000  C
  C83      1.0000 0.33430  0.42860  0.82600  Biso   1.000  C
  C84      1.0000 0.66570  0.92860  0.67400  Biso   1.000  C
  H133     1.0000 0.68320  0.64900  0.20680  Biso   1.000  H
  H134     1.0000 0.31680  0.14900  0.29320  Biso   1.000  H
  H135     1.0000 0.31680  0.35100  0.79320  Biso   1.000  H
  H136     1.0000 0.68320  0.85100  0.70680  Biso   1.000  H
  H137     1.0000 0.59560  0.53740  0.17440  Biso   1.000  H
  H138     1.0000 0.40440  0.03740  0.32560  Biso   1.000  H
  H139     1.0000 0.40440  0.46260  0.82560  Biso   1.000  H
  H140     1.0000 0.59560  0.96260  0.67440  Biso   1.000  H
  Si1      1.0000 0.43986  0.05320  0.08686  Biso   1.000  Si
  Si2      1.0000 0.56014  0.55320  0.41314  Biso   1.000  Si
  Si3      1.0000 0.56014  0.94680  0.91314  Biso   1.000  Si
  Si4      1.0000 0.43986  0.44680  0.58686  Biso   1.000  Si
  Cu1      1.0000 0.57003  0.06625  0.01887  Biso   1.000  Cu
  Cu2      1.0000 0.42997  0.56625  0.48113  Biso   1.000  Cu
  Cu3      1.0000 0.42997  0.93375  0.98113  Biso   1.000  Cu
  Cu4      1.0000 0.57003  0.43375  0.51887  Biso   1.000  Cu
  K1       1.0000 0.89490  0.43817  0.12647  Biso   1.000  K
  K2       1.0000 0.10510  0.93817  0.37353  Biso   1.000  K
  K3       1.0000 0.10510  0.56183  0.87353  Biso   1.000  K
  K4       1.0000 0.89490  0.06183  0.62647  Biso   1.000  K
  O25      1.0000 0.80230  0.30500  0.22600  Biso   1.000  O
  O26      1.0000 0.19770  0.80500  0.27400  Biso   1.000  O
  O27      1.0000 0.19770  0.69500  0.77400  Biso   1.000  O
  O28      1.0000 0.80230  0.19500  0.72600  Biso   1.000  O
  C85      1.0000 0.82680  0.14960  0.22930  Biso   1.000  C
  C86      1.0000 0.17320  0.64960  0.27070  Biso   1.000  C
  C87      1.0000 0.17320  0.85040  0.77070  Biso   1.000  C
  C88      1.0000 0.82680  0.35040  0.72930  Biso   1.000  C
  H141     1.0000 0.79180  0.10010  0.19110  Biso   1.000  H
  H142     1.0000 0.20820  0.60010  0.30890  Biso   1.000  H
  H143     1.0000 0.20820  0.89990  0.80890  Biso   1.000  H
  H144     1.0000 0.79180  0.39990  0.69110  Biso   1.000  H
  H145     1.0000 0.79920  0.10520  0.26450  Biso   1.000  H
  H146     1.0000 0.20080  0.60520  0.23550  Biso   1.000  H
  H147     1.0000 0.20080  0.89480  0.73550  Biso   1.000  H
  H148     1.0000 0.79920  0.39480  0.76450  Biso   1.000  H
  C89      1.0000 0.94140  0.10700  0.23710  Biso   1.000  C
  C90      1.0000 0.05860  0.60700  0.26290  Biso   1.000  C
  C91      1.0000 0.05860  0.89300  0.76290  Biso   1.000  C
  C92      1.0000 0.94140  0.39300  0.73710  Biso   1.000  C
  H149     1.0000 0.97610  0.13130  0.27930  Biso   1.000  H
  H150     1.0000 0.02390  0.63130  0.22070  Biso   1.000  H
  H151     1.0000 0.02390  0.86870  0.72070  Biso   1.000  H
  H152     1.0000 0.97610  0.36870  0.77930  Biso   1.000  H
  H153     1.0000 0.94970  0.99650  0.22960  Biso   1.000  H
  H154     1.0000 0.05030  0.49650  0.27040  Biso   1.000  H
  H155     1.0000 0.05030  0.00350  0.77040  Biso   1.000  H
  H156     1.0000 0.94970  0.50350  0.72960  Biso   1.000  H
  O29      1.0000 0.98000  0.19160  0.19370  Biso   1.000  O
  O30      1.0000 0.02000  0.69160  0.30630  Biso   1.000  O
  O31      1.0000 0.02000  0.80840  0.80630  Biso   1.000  O
  O32      1.0000 0.98000  0.30840  0.69370  Biso   1.000  O
  C93      1.0000 0.08460  0.17690  0.20220  Biso   1.000  C
  C94      1.0000 0.91540  0.67690  0.29780  Biso   1.000  C
  C95      1.0000 0.91540  0.82310  0.79780  Biso   1.000  C
  C96      1.0000 0.08460  0.32310  0.70220  Biso   1.000  C
  H157     1.0000 0.10380  0.06950  0.21110  Biso   1.000  H
  H158     1.0000 0.89620  0.56950  0.28890  Biso   1.000  H
  H159     1.0000 0.89620  0.93050  0.78890  Biso   1.000  H
  H160     1.0000 0.10380  0.43050  0.71110  Biso   1.000  H
  H161     1.0000 0.11560  0.23960  0.23780  Biso   1.000  H
  H162     1.0000 0.88440  0.73960  0.26220  Biso   1.000  H
  H163     1.0000 0.88440  0.76040  0.76220  Biso   1.000  H
  H164     1.0000 0.11560  0.26040  0.73780  Biso   1.000  H
  C97      1.0000 0.12170  0.22760  0.14500  Biso   1.000  C
  C98      1.0000 0.87830  0.72760  0.35500  Biso   1.000  C
  C99      1.0000 0.87830  0.77240  0.85500  Biso   1.000  C
  C100     1.0000 0.12170  0.27240  0.64500  Biso   1.000  C
  H165     1.0000 0.19500  0.20850  0.14900  Biso   1.000  H
  H166     1.0000 0.80500  0.70850  0.35100  Biso   1.000  H
  H167     1.0000 0.80500  0.79150  0.85100  Biso   1.000  H
  H168     1.0000 0.19500  0.29150  0.64900  Biso   1.000  H
  H169     1.0000 0.08710  0.17040  0.10880  Biso   1.000  H
  H170     1.0000 0.91290  0.67040  0.39120  Biso   1.000  H
  H171     1.0000 0.91290  0.82960  0.89120  Biso   1.000  H
  H172     1.0000 0.08710  0.32960  0.60880  Biso   1.000  H
  O33      1.0000 0.10160  0.38730  0.13680  Biso   1.000  O
  O34      1.0000 0.89840  0.88730  0.36320  Biso   1.000  O
  O35      1.0000 0.89840  0.61270  0.86320  Biso   1.000  O
  O36      1.0000 0.10160  0.11270  0.63680  Biso   1.000  O
  C101     1.0000 0.13430  0.44390  0.08290  Biso   1.000  C
  C102     1.0000 0.86570  0.94390  0.41710  Biso   1.000  C
  C103     1.0000 0.86570  0.55610  0.91710  Biso   1.000  C
  C104     1.0000 0.13430  0.05610  0.58290  Biso   1.000  C
  H173     1.0000 0.09200  0.40140  0.04550  Biso   1.000  H
  H174     1.0000 0.90800  0.90140  0.45450  Biso   1.000  H
  H175     1.0000 0.90800  0.59860  0.95450  Biso   1.000  H
  H176     1.0000 0.09200  0.09860  0.54550  Biso   1.000  H
  H177     1.0000 0.20500  0.41360  0.08250  Biso   1.000  H
  H178     1.0000 0.79500  0.91360  0.41750  Biso   1.000  H
  H179     1.0000 0.79500  0.58640  0.91750  Biso   1.000  H
  H180     1.0000 0.20500  0.08640  0.58250  Biso   1.000  H
  C105     1.0000 0.12560  0.61600  0.08290  Biso   1.000  C
  C106     1.0000 0.87440  0.11600  0.41710  Biso   1.000  C
  C107     1.0000 0.87440  0.38400  0.91710  Biso   1.000  C
  C108     1.0000 0.12560  0.88400  0.58290  Biso   1.000  C
  H181     1.0000 0.16310  0.65760  0.12190  Biso   1.000  H
  H182     1.0000 0.83690  0.15760  0.37810  Biso   1.000  H
  H183     1.0000 0.83690  0.34240  0.87810  Biso   1.000  H
  H184     1.0000 0.16310  0.84240  0.62190  Biso   1.000  H
  H185     1.0000 0.15450  0.65890  0.04790  Biso   1.000  H
  H186     1.0000 0.84550  0.15890  0.45210  Biso   1.000  H
  H187     1.0000 0.84550  0.34110  0.95210  Biso   1.000  H
  H188     1.0000 0.15450  0.84110  0.54790  Biso   1.000  H
  O37      1.0000 0.02270  0.65430  0.07700  Biso   1.000  O
  O38      1.0000 0.97730  0.15430  0.42300  Biso   1.000  O
  O39      1.0000 0.97730  0.34570  0.92300  Biso   1.000  O
  O40      1.0000 0.02270  0.84570  0.57700  Biso   1.000  O
  C109     1.0000 0.00980  0.81560  0.08430  Biso   1.000  C
  C110     1.0000 0.99020  0.31560  0.41570  Biso   1.000  C
  C111     1.0000 0.99020  0.18440  0.91570  Biso   1.000  C
  C112     1.0000 0.00980  0.68440  0.58430  Biso   1.000  C
  H189     1.0000 0.04760  0.87230  0.05650  Biso   1.000  H
  H190     1.0000 0.95240  0.37230  0.44350  Biso   1.000  H
  H191     1.0000 0.95240  0.12770  0.94350  Biso   1.000  H
  H192     1.0000 0.04760  0.62770  0.55650  Biso   1.000  H
  H193     1.0000 0.03540  0.84630  0.12750  Biso   1.000  H
  H194     1.0000 0.96460  0.34630  0.37250  Biso   1.000  H
  H195     1.0000 0.96460  0.15370  0.87250  Biso   1.000  H
  H196     1.0000 0.03540  0.65370  0.62750  Biso   1.000  H
  C113     1.0000 0.88800  0.85400  0.06660  Biso   1.000  C
  C114     1.0000 0.11200  0.35400  0.43340  Biso   1.000  C
  C115     1.0000 0.11200  0.14600  0.93340  Biso   1.000  C
  C116     1.0000 0.88800  0.64600  0.56660  Biso   1.000  C
  H197     1.0000 0.87430  0.96410  0.06860  Biso   1.000  H
  H198     1.0000 0.12570  0.46410  0.43140  Biso   1.000  H
  H199     1.0000 0.12570  0.03590  0.93140  Biso   1.000  H
  H200     1.0000 0.87430  0.53590  0.56860  Biso   1.000  H
  H201     1.0000 0.85890  0.81470  0.02500  Biso   1.000  H
  H202     1.0000 0.14110  0.31470  0.47500  Biso   1.000  H
  H203     1.0000 0.14110  0.18530  0.97500  Biso   1.000  H
  H204     1.0000 0.85890  0.68530  0.52500  Biso   1.000  H
  O41      1.0000 0.85030  0.77220  0.11450  Biso   1.000  O
  O42      1.0000 0.14970  0.27220  0.38550  Biso   1.000  O
  O43      1.0000 0.14970  0.22780  0.88550  Biso   1.000  O
  O44      1.0000 0.85030  0.72780  0.61450  Biso   1.000  O
  C117     1.0000 0.74360  0.77090  0.09530  Biso   1.000  C
  C118     1.0000 0.25640  0.27090  0.40470  Biso   1.000  C
  C119     1.0000 0.25640  0.22910  0.90470  Biso   1.000  C
  C120     1.0000 0.74360  0.72910  0.59530  Biso   1.000  C
  H205     1.0000 0.72590  0.70440  0.05860  Biso   1.000  H
  H206     1.0000 0.27410  0.20440  0.44140  Biso   1.000  H
  H207     1.0000 0.27410  0.29560  0.94140  Biso   1.000  H
  H208     1.0000 0.72590  0.79560  0.55860  Biso   1.000  H
  H209     1.0000 0.71950  0.87500  0.08370  Biso   1.000  H
  H210     1.0000 0.28050  0.37500  0.41630  Biso   1.000  H
  H211     1.0000 0.28050  0.12500  0.91630  Biso   1.000  H
  H212     1.0000 0.71950  0.62500  0.58370  Biso   1.000  H
  C121     1.0000 0.69400  0.71290  0.14770  Biso   1.000  C
  C122     1.0000 0.30600  0.21290  0.35230  Biso   1.000  C
  C123     1.0000 0.30600  0.28710  0.85230  Biso   1.000  C
  C124     1.0000 0.69400  0.78710  0.64770  Biso   1.000  C
  H213     1.0000 0.71480  0.77540  0.18530  Biso   1.000  H
  H214     1.0000 0.28520  0.27540  0.31470  Biso   1.000  H
  H215     1.0000 0.28520  0.22460  0.81470  Biso   1.000  H
  H216     1.0000 0.71480  0.72460  0.68530  Biso   1.000  H
  H217     1.0000 0.61980  0.71890  0.13630  Biso   1.000  H
  H218     1.0000 0.38020  0.21890  0.36370  Biso   1.000  H
  H219     1.0000 0.38020  0.28110  0.86370  Biso   1.000  H
  H220     1.0000 0.61980  0.78110  0.63630  Biso   1.000  H
  O45      1.0000 0.72430  0.55900  0.15950  Biso   1.000  O
  O46      1.0000 0.27570  0.05900  0.34050  Biso   1.000  O
  O47      1.0000 0.27570  0.44100  0.84050  Biso   1.000  O
  O48      1.0000 0.72430  0.94100  0.65950  Biso   1.000  O
  C125     1.0000 0.67470  0.49670  0.20490  Biso   1.000  C
  C126     1.0000 0.32530  0.99670  0.29510  Biso   1.000  C
  C127     1.0000 0.32530  0.50330  0.79510  Biso   1.000  C
  C128     1.0000 0.67470  0.00330  0.70490  Biso   1.000  C
  H221     1.0000 0.60550  0.46880  0.18540  Biso   1.000  H
  H222     1.0000 0.39450  0.96880  0.31460  Biso   1.000  H
  H223     1.0000 0.39450  0.53120  0.81460  Biso   1.000  H
  H224     1.0000 0.60550  0.03120  0.68540  Biso   1.000  H
  H225     1.0000 0.66910  0.57600  0.23630  Biso   1.000  H
  H226     1.0000 0.33090  0.07600  0.26370  Biso   1.000  H
  H227     1.0000 0.33090  0.42400  0.76370  Biso   1.000  H
  H228     1.0000 0.66910  0.92400  0.73630  Biso   1.000  H
  C129     1.0000 0.72390  0.35920  0.23740  Biso   1.000  C
  C130     1.0000 0.27610  0.85920  0.26260  Biso   1.000  C
  C131     1.0000 0.27610  0.64080  0.76260  Biso   1.000  C
  C132     1.0000 0.72390  0.14080  0.73740  Biso   1.000  C
  H229     1.0000 0.73550  0.38310  0.28220  Biso   1.000  H
  H230     1.0000 0.26450  0.88310  0.21780  Biso   1.000  H
  H231     1.0000 0.26450  0.61690  0.71780  Biso   1.000  H
  H232     1.0000 0.73550  0.11690  0.78220  Biso   1.000  H
  H233     1.0000 0.67320  0.27670  0.23120  Biso   1.000  H
  H234     1.0000 0.32680  0.77670  0.26880  Biso   1.000  H
  H235     1.0000 0.32680  0.72330  0.76880  Biso   1.000  H
  H236     1.0000 0.67320  0.22330  0.73120  Biso   1.000  H
