data_image0
_cell_length_a       5.5781
_cell_length_b       12.931
_cell_length_c       9.81
_cell_angle_alpha    90
_cell_angle_beta     97.69
_cell_angle_gamma    90

_symmetry_space_group_name_H-M    "P 1"
_symmetry_int_tables_number       1

loop_
  _symmetry_equiv_pos_as_xyz
  'x, y, z'

loop_
  _atom_site_label
  _atom_site_occupancy
  _atom_site_fract_x
  _atom_site_fract_y
  _atom_site_fract_z
  _atom_site_thermal_displace_type
  _atom_site_B_iso_or_equiv
  _atom_site_type_symbol
  Cu1      1.0000 0.25060  0.99881  0.51220  Biso   1.000  Cu
  Cu2      1.0000 0.24940  0.49881  0.98780  Biso   1.000  Cu
  Cu3      1.0000 0.74940  0.00119  0.48780  Biso   1.000  Cu
  Cu4      1.0000 0.75060  0.50119  0.01220  Biso   1.000  Cu
  Br1      1.0000 0.02520  0.07438  0.68746  Biso   1.000  Br
  Br2      1.0000 0.47480  0.57438  0.81254  Biso   1.000  Br
  Br3      1.0000 0.97480  0.92562  0.31254  Biso   1.000  Br
  Br4      1.0000 0.52520  0.42562  0.18746  Biso   1.000  Br
  S1       1.0000 0.52061  0.86702  0.58000  Biso   1.000  S
  S2       1.0000 0.97939  0.36702  0.92000  Biso   1.000  S
  S3       1.0000 0.47939  0.13298  0.42000  Biso   1.000  S
  S4       1.0000 0.02061  0.63298  0.08000  Biso   1.000  S
  N1       1.0000 0.54640  0.93890  0.84530  Biso   1.000  N
  N2       1.0000 0.95360  0.43890  0.65470  Biso   1.000  N
  N3       1.0000 0.45360  0.06110  0.15470  Biso   1.000  N
  N4       1.0000 0.04640  0.56110  0.34530  Biso   1.000  N
  H1       1.0000 0.41700  0.97600  0.83800  Biso   1.000  H
  H2       1.0000 0.08300  0.47600  0.66200  Biso   1.000  H
  H3       1.0000 0.58300  0.02400  0.16200  Biso   1.000  H
  H4       1.0000 0.91700  0.52400  0.33800  Biso   1.000  H
  N5       1.0000 0.69100  0.93410  0.97060  Biso   1.000  N
  N6       1.0000 0.80900  0.43410  0.52940  Biso   1.000  N
  N7       1.0000 0.30900  0.06590  0.02940  Biso   1.000  N
  N8       1.0000 0.19100  0.56590  0.47060  Biso   1.000  N
  N9       1.0000 0.83410  0.83717  0.81490  Biso   1.000  N
  N10      1.0000 0.66590  0.33717  0.68510  Biso   1.000  N
  N11      1.0000 0.16590  0.16283  0.18510  Biso   1.000  N
  N12      1.0000 0.33410  0.66283  0.31490  Biso   1.000  N
  C1       1.0000 0.63090  0.88190  0.74990  Biso   1.000  C
  C2       1.0000 0.86910  0.38190  0.75010  Biso   1.000  C
  C3       1.0000 0.36910  0.11810  0.25010  Biso   1.000  C
  C4       1.0000 0.13090  0.61810  0.24990  Biso   1.000  C
  C5       1.0000 0.86360  0.87190  0.94800  Biso   1.000  C
  C6       1.0000 0.63640  0.37190  0.55200  Biso   1.000  C
  C7       1.0000 0.13640  0.12810  0.05200  Biso   1.000  C
  C8       1.0000 0.36360  0.62810  0.44800  Biso   1.000  C
  H5       1.0000 0.99440  0.85280  0.01540  Biso   1.000  H
  H6       1.0000 0.50560  0.35280  0.48460  Biso   1.000  H
  H7       1.0000 0.00560  0.14720  0.98460  Biso   1.000  H
  H8       1.0000 0.49440  0.64720  0.51540  Biso   1.000  H
  C9       1.0000 0.99380  0.76740  0.75170  Biso   1.000  C
  C10      1.0000 0.50620  0.26740  0.74830  Biso   1.000  C
  C11      1.0000 0.00620  0.23260  0.24830  Biso   1.000  C
  C12      1.0000 0.49380  0.73260  0.25170  Biso   1.000  C
  H9       1.0000 0.90860  0.70250  0.72630  Biso   1.000  H
  H10      1.0000 0.59140  0.20250  0.77370  Biso   1.000  H
  H11      1.0000 0.09140  0.29750  0.27370  Biso   1.000  H
  H12      1.0000 0.40860  0.79750  0.22630  Biso   1.000  H
  H13      1.0000 0.13850  0.75300  0.81730  Biso   1.000  H
  H14      1.0000 0.36150  0.25300  0.68270  Biso   1.000  H
  H15      1.0000 0.86150  0.24700  0.18270  Biso   1.000  H
  H16      1.0000 0.63850  0.74700  0.31730  Biso   1.000  H
  H17      1.0000 0.04140  0.79990  0.66920  Biso   1.000  H
  H18      1.0000 0.45860  0.29990  0.83080  Biso   1.000  H
  H19      1.0000 0.95860  0.20010  0.33080  Biso   1.000  H
  H20      1.0000 0.54140  0.70010  0.16920  Biso   1.000  H
