data_image0
_cell_length_a       11.099
_cell_length_b       19.106
_cell_length_c       12.558
_cell_angle_alpha    90
_cell_angle_beta     104.1
_cell_angle_gamma    90

_symmetry_space_group_name_H-M    "P 1"
_symmetry_int_tables_number       1

loop_
  _symmetry_equiv_pos_as_xyz
  'x, y, z'

loop_
  _atom_site_label
  _atom_site_occupancy
  _atom_site_fract_x
  _atom_site_fract_y
  _atom_site_fract_z
  _atom_site_thermal_displace_type
  _atom_site_B_iso_or_equiv
  _atom_site_type_symbol
  Cu1      1.0000 0.00000  0.20632  0.25000  Biso   1.000  Cu
  Cu2      1.0000 0.50000  0.70632  0.25000  Biso   1.000  Cu
  Cu3      1.0000 0.00000  0.79368  0.75000  Biso   1.000  Cu
  Cu4      1.0000 0.50000  0.29368  0.75000  Biso   1.000  Cu
  Cu5      1.0000 0.50000  0.13811  0.25000  Biso   1.000  Cu
  Cu6      1.0000 0.00000  0.63811  0.25000  Biso   1.000  Cu
  Cu7      1.0000 0.50000  0.86189  0.75000  Biso   1.000  Cu
  Cu8      1.0000 0.00000  0.36189  0.75000  Biso   1.000  Cu
  Cl1      1.0000 0.72350  0.12242  0.54190  Biso   1.000  Cl
  Cl2      1.0000 0.22350  0.62242  0.54190  Biso   1.000  Cl
  Cl3      1.0000 0.27650  0.12242  0.95810  Biso   1.000  Cl
  Cl4      1.0000 0.77650  0.62242  0.95810  Biso   1.000  Cl
  Cl5      1.0000 0.27650  0.87758  0.45810  Biso   1.000  Cl
  Cl6      1.0000 0.77650  0.37758  0.45810  Biso   1.000  Cl
  Cl7      1.0000 0.72350  0.87758  0.04190  Biso   1.000  Cl
  Cl8      1.0000 0.22350  0.37758  0.04190  Biso   1.000  Cl
  O1       1.0000 0.63150  0.15930  0.47010  Biso   1.000  O
  O2       1.0000 0.13150  0.65930  0.47010  Biso   1.000  O
  O3       1.0000 0.36850  0.15930  0.02990  Biso   1.000  O
  O4       1.0000 0.86850  0.65930  0.02990  Biso   1.000  O
  O5       1.0000 0.36850  0.84070  0.52990  Biso   1.000  O
  O6       1.0000 0.86850  0.34070  0.52990  Biso   1.000  O
  O7       1.0000 0.63150  0.84070  0.97010  Biso   1.000  O
  O8       1.0000 0.13150  0.34070  0.97010  Biso   1.000  O
  O9       1.0000 0.81190  0.10590  0.48530  Biso   1.000  O
  O10      1.0000 0.31190  0.60590  0.48530  Biso   1.000  O
  O11      1.0000 0.18810  0.10590  0.01470  Biso   1.000  O
  O12      1.0000 0.68810  0.60590  0.01470  Biso   1.000  O
  O13      1.0000 0.18810  0.89410  0.51470  Biso   1.000  O
  O14      1.0000 0.68810  0.39410  0.51470  Biso   1.000  O
  O15      1.0000 0.81190  0.89410  0.98530  Biso   1.000  O
  O16      1.0000 0.31190  0.39410  0.98530  Biso   1.000  O
  O17      1.0000 0.67890  0.05970  0.56800  Biso   1.000  O
  O18      1.0000 0.17890  0.55970  0.56800  Biso   1.000  O
  O19      1.0000 0.32110  0.05970  0.93200  Biso   1.000  O
  O20      1.0000 0.82110  0.55970  0.93200  Biso   1.000  O
  O21      1.0000 0.32110  0.94030  0.43200  Biso   1.000  O
  O22      1.0000 0.82110  0.44030  0.43200  Biso   1.000  O
  O23      1.0000 0.67890  0.94030  0.06800  Biso   1.000  O
  O24      1.0000 0.17890  0.44030  0.06800  Biso   1.000  O
  O25      1.0000 0.78100  0.15850  0.63240  Biso   1.000  O
  O26      1.0000 0.28100  0.65850  0.63240  Biso   1.000  O
  O27      1.0000 0.21900  0.15850  0.86760  Biso   1.000  O
  O28      1.0000 0.71900  0.65850  0.86760  Biso   1.000  O
  O29      1.0000 0.21900  0.84150  0.36760  Biso   1.000  O
  O30      1.0000 0.71900  0.34150  0.36760  Biso   1.000  O
  O31      1.0000 0.78100  0.84150  0.13240  Biso   1.000  O
  O32      1.0000 0.28100  0.34150  0.13240  Biso   1.000  O
  O33      1.0000 0.00000  0.09670  0.25000  Biso   1.000  O
  O34      1.0000 0.50000  0.59670  0.25000  Biso   1.000  O
  O35      1.0000 0.00000  0.90330  0.75000  Biso   1.000  O
  O36      1.0000 0.50000  0.40330  0.75000  Biso   1.000  O
  N1       1.0000 0.82580  0.23090  0.20610  Biso   1.000  N
  N2       1.0000 0.32580  0.73090  0.20610  Biso   1.000  N
  N3       1.0000 0.17420  0.23090  0.29390  Biso   1.000  N
  N4       1.0000 0.67420  0.73090  0.29390  Biso   1.000  N
  N5       1.0000 0.17420  0.76910  0.79390  Biso   1.000  N
  N6       1.0000 0.67420  0.26910  0.79390  Biso   1.000  N
  N7       1.0000 0.82580  0.76910  0.70610  Biso   1.000  N
  N8       1.0000 0.32580  0.26910  0.70610  Biso   1.000  N
  N9       1.0000 0.61890  0.20440  0.20490  Biso   1.000  N
  N10      1.0000 0.11890  0.70440  0.20490  Biso   1.000  N
  N11      1.0000 0.38110  0.20440  0.29510  Biso   1.000  N
  N12      1.0000 0.88110  0.70440  0.29510  Biso   1.000  N
  N13      1.0000 0.38110  0.79560  0.79510  Biso   1.000  N
  N14      1.0000 0.88110  0.29560  0.79510  Biso   1.000  N
  N15      1.0000 0.61890  0.79560  0.70490  Biso   1.000  N
  N16      1.0000 0.11890  0.29560  0.70490  Biso   1.000  N
  C1       1.0000 0.74200  0.19400  0.23580  Biso   1.000  C
  C2       1.0000 0.24200  0.69400  0.23580  Biso   1.000  C
  C3       1.0000 0.25800  0.19400  0.26420  Biso   1.000  C
  C4       1.0000 0.75800  0.69400  0.26420  Biso   1.000  C
  C5       1.0000 0.25800  0.80600  0.76420  Biso   1.000  C
  C6       1.0000 0.75800  0.30600  0.76420  Biso   1.000  C
  C7       1.0000 0.74200  0.80600  0.73580  Biso   1.000  C
  C8       1.0000 0.24200  0.30600  0.73580  Biso   1.000  C
  C9       1.0000 0.57900  0.25780  0.13730  Biso   1.000  C
  C10      1.0000 0.07900  0.75780  0.13730  Biso   1.000  C
  C11      1.0000 0.42100  0.25780  0.36270  Biso   1.000  C
  C12      1.0000 0.92100  0.75780  0.36270  Biso   1.000  C
  C13      1.0000 0.42100  0.74220  0.86270  Biso   1.000  C
  C14      1.0000 0.92100  0.24220  0.86270  Biso   1.000  C
  C15      1.0000 0.57900  0.74220  0.63730  Biso   1.000  C
  C16      1.0000 0.07900  0.24220  0.63730  Biso   1.000  C
  C17      1.0000 0.66160  0.30150  0.10040  Biso   1.000  C
  C18      1.0000 0.16160  0.80150  0.10040  Biso   1.000  C
  C19      1.0000 0.33840  0.30150  0.39960  Biso   1.000  C
  C20      1.0000 0.83840  0.80150  0.39960  Biso   1.000  C
  C21      1.0000 0.33840  0.69850  0.89960  Biso   1.000  C
  C22      1.0000 0.83840  0.19850  0.89960  Biso   1.000  C
  C23      1.0000 0.66160  0.69850  0.60040  Biso   1.000  C
  C24      1.0000 0.16160  0.19850  0.60040  Biso   1.000  C
  C25      1.0000 0.62230  0.35850  0.02900  Biso   1.000  C
  C26      1.0000 0.12230  0.85850  0.02900  Biso   1.000  C
  C27      1.0000 0.37770  0.35850  0.47100  Biso   1.000  C
  C28      1.0000 0.87770  0.85850  0.47100  Biso   1.000  C
  C29      1.0000 0.37770  0.64150  0.97100  Biso   1.000  C
  C30      1.0000 0.87770  0.14150  0.97100  Biso   1.000  C
  C31      1.0000 0.62230  0.64150  0.52900  Biso   1.000  C
  C32      1.0000 0.12230  0.14150  0.52900  Biso   1.000  C
  C33      1.0000 0.70950  0.40160  0.00260  Biso   1.000  C
  C34      1.0000 0.20950  0.90160  0.00260  Biso   1.000  C
  C35      1.0000 0.29050  0.40160  0.49740  Biso   1.000  C
  C36      1.0000 0.79050  0.90160  0.49740  Biso   1.000  C
  C37      1.0000 0.29050  0.59840  0.99740  Biso   1.000  C
  C38      1.0000 0.79050  0.09840  0.99740  Biso   1.000  C
  C39      1.0000 0.70950  0.59840  0.50260  Biso   1.000  C
  C40      1.0000 0.20950  0.09840  0.50260  Biso   1.000  C
  C41      1.0000 0.83670  0.38640  0.04010  Biso   1.000  C
  C42      1.0000 0.33670  0.88640  0.04010  Biso   1.000  C
  C43      1.0000 0.16330  0.38640  0.45990  Biso   1.000  C
  C44      1.0000 0.66330  0.88640  0.45990  Biso   1.000  C
  C45      1.0000 0.16330  0.61360  0.95990  Biso   1.000  C
  C46      1.0000 0.66330  0.11360  0.95990  Biso   1.000  C
  C47      1.0000 0.83670  0.61360  0.54010  Biso   1.000  C
  C48      1.0000 0.33670  0.11360  0.54010  Biso   1.000  C
  C49      1.0000 0.87640  0.33120  0.10680  Biso   1.000  C
  C50      1.0000 0.37640  0.83120  0.10680  Biso   1.000  C
  C51      1.0000 0.12360  0.33120  0.39320  Biso   1.000  C
  C52      1.0000 0.62360  0.83120  0.39320  Biso   1.000  C
  C53      1.0000 0.12360  0.66880  0.89320  Biso   1.000  C
  C54      1.0000 0.62360  0.16880  0.89320  Biso   1.000  C
  C55      1.0000 0.87640  0.66880  0.60680  Biso   1.000  C
  C56      1.0000 0.37640  0.16880  0.60680  Biso   1.000  C
  C57      1.0000 0.78840  0.28750  0.13830  Biso   1.000  C
  C58      1.0000 0.28840  0.78750  0.13830  Biso   1.000  C
  C59      1.0000 0.21160  0.28750  0.36170  Biso   1.000  C
  C60      1.0000 0.71160  0.78750  0.36170  Biso   1.000  C
  C61      1.0000 0.21160  0.71250  0.86170  Biso   1.000  C
  C62      1.0000 0.71160  0.21250  0.86170  Biso   1.000  C
  C63      1.0000 0.78840  0.71250  0.63830  Biso   1.000  C
  C64      1.0000 0.28840  0.21250  0.63830  Biso   1.000  C
  C65      1.0000 0.00000  0.03410  0.25000  Biso   1.000  C
  C66      1.0000 0.50000  0.53410  0.25000  Biso   1.000  C
  C67      1.0000 0.00000  0.96590  0.75000  Biso   1.000  C
  C68      1.0000 0.50000  0.46590  0.75000  Biso   1.000  C
  C69      1.0000 0.06670  0.99290  0.18430  Biso   1.000  C
  C70      1.0000 0.56670  0.49290  0.18430  Biso   1.000  C
  C71      1.0000 0.93330  0.99290  0.31570  Biso   1.000  C
  C72      1.0000 0.43330  0.49290  0.31570  Biso   1.000  C
  C73      1.0000 0.93330  0.00710  0.81570  Biso   1.000  C
  C74      1.0000 0.43330  0.50710  0.81570  Biso   1.000  C
  C75      1.0000 0.06670  0.00710  0.68430  Biso   1.000  C
  C76      1.0000 0.56670  0.50710  0.68430  Biso   1.000  C
  C77      1.0000 0.55200  0.03790  0.23470  Biso   1.000  C
  C78      1.0000 0.05200  0.53790  0.23470  Biso   1.000  C
  C79      1.0000 0.44800  0.03790  0.26530  Biso   1.000  C
  C80      1.0000 0.94800  0.53790  0.26530  Biso   1.000  C
  C81      1.0000 0.44800  0.96210  0.76530  Biso   1.000  C
  C82      1.0000 0.94800  0.46210  0.76530  Biso   1.000  C
  C83      1.0000 0.55200  0.96210  0.73470  Biso   1.000  C
  C84      1.0000 0.05200  0.46210  0.73470  Biso   1.000  C
  H1       1.0000 0.77350  0.15350  0.28230  Biso   1.000  H
  H2       1.0000 0.27350  0.65350  0.28230  Biso   1.000  H
  H3       1.0000 0.22650  0.15350  0.21770  Biso   1.000  H
  H4       1.0000 0.72650  0.65350  0.21770  Biso   1.000  H
  H5       1.0000 0.22650  0.84650  0.71770  Biso   1.000  H
  H6       1.0000 0.72650  0.34650  0.71770  Biso   1.000  H
  H7       1.0000 0.77350  0.84650  0.78230  Biso   1.000  H
  H8       1.0000 0.27350  0.34650  0.78230  Biso   1.000  H
  H9       1.0000 0.47960  0.26390  0.11080  Biso   1.000  H
  H10      1.0000 0.97960  0.76390  0.11080  Biso   1.000  H
  H11      1.0000 0.52040  0.26390  0.38920  Biso   1.000  H
  H12      1.0000 0.02040  0.76390  0.38920  Biso   1.000  H
  H13      1.0000 0.52040  0.73610  0.88920  Biso   1.000  H
  H14      1.0000 0.02040  0.23610  0.88920  Biso   1.000  H
  H15      1.0000 0.47960  0.73610  0.61080  Biso   1.000  H
  H16      1.0000 0.97960  0.23610  0.61080  Biso   1.000  H
  H17      1.0000 0.52690  0.36940  0.99100  Biso   1.000  H
  H18      1.0000 0.02690  0.86940  0.99100  Biso   1.000  H
  H19      1.0000 0.47310  0.36940  0.50900  Biso   1.000  H
  H20      1.0000 0.97310  0.86940  0.50900  Biso   1.000  H
  H21      1.0000 0.47310  0.63060  0.00900  Biso   1.000  H
  H22      1.0000 0.97310  0.13060  0.00900  Biso   1.000  H
  H23      1.0000 0.52690  0.63060  0.49100  Biso   1.000  H
  H24      1.0000 0.02690  0.13060  0.49100  Biso   1.000  H
  H25      1.0000 0.68620  0.43310  0.94130  Biso   1.000  H
  H26      1.0000 0.18620  0.93310  0.94130  Biso   1.000  H
  H27      1.0000 0.31380  0.43310  0.55870  Biso   1.000  H
  H28      1.0000 0.81380  0.93310  0.55870  Biso   1.000  H
  H29      1.0000 0.31380  0.56690  0.05870  Biso   1.000  H
  H30      1.0000 0.81380  0.06690  0.05870  Biso   1.000  H
  H31      1.0000 0.68620  0.56690  0.44130  Biso   1.000  H
  H32      1.0000 0.18620  0.06690  0.44130  Biso   1.000  H
  H33      1.0000 0.89660  0.41610  0.02030  Biso   1.000  H
  H34      1.0000 0.39660  0.91610  0.02030  Biso   1.000  H
  H35      1.0000 0.10340  0.41610  0.47970  Biso   1.000  H
  H36      1.0000 0.60340  0.91610  0.47970  Biso   1.000  H
  H37      1.0000 0.10340  0.58390  0.97970  Biso   1.000  H
  H38      1.0000 0.60340  0.08390  0.97970  Biso   1.000  H
  H39      1.0000 0.89660  0.58390  0.52030  Biso   1.000  H
  H40      1.0000 0.39660  0.08390  0.52030  Biso   1.000  H
  H41      1.0000 0.96680  0.31950  0.13430  Biso   1.000  H
  H42      1.0000 0.46680  0.81950  0.13430  Biso   1.000  H
  H43      1.0000 0.03320  0.31950  0.36570  Biso   1.000  H
  H44      1.0000 0.53320  0.81950  0.36570  Biso   1.000  H
  H45      1.0000 0.03320  0.68050  0.86570  Biso   1.000  H
  H46      1.0000 0.53320  0.18050  0.86570  Biso   1.000  H
  H47      1.0000 0.96680  0.68050  0.63430  Biso   1.000  H
  H48      1.0000 0.46680  0.18050  0.63430  Biso   1.000  H
  H49      1.0000 0.05850  0.94480  0.19430  Biso   1.000  H
  H50      1.0000 0.55850  0.44480  0.19430  Biso   1.000  H
  H51      1.0000 0.94150  0.94480  0.30570  Biso   1.000  H
  H52      1.0000 0.44150  0.44480  0.30570  Biso   1.000  H
  H53      1.0000 0.94150  0.05520  0.80570  Biso   1.000  H
  H54      1.0000 0.44150  0.55520  0.80570  Biso   1.000  H
  H55      1.0000 0.05850  0.05520  0.69430  Biso   1.000  H
  H56      1.0000 0.55850  0.55520  0.69430  Biso   1.000  H
  H57      1.0000 0.15430  0.00420  0.20590  Biso   1.000  H
  H58      1.0000 0.65430  0.50420  0.20590  Biso   1.000  H
  H59      1.0000 0.84570  0.00420  0.29410  Biso   1.000  H
  H60      1.0000 0.34570  0.50420  0.29410  Biso   1.000  H
  H61      1.0000 0.84570  0.99580  0.79410  Biso   1.000  H
  H62      1.0000 0.34570  0.49580  0.79410  Biso   1.000  H
  H63      1.0000 0.15430  0.99580  0.70590  Biso   1.000  H
  H64      1.0000 0.65430  0.49580  0.70590  Biso   1.000  H
  H65      1.0000 0.03780  0.00460  0.10820  Biso   1.000  H
  H66      1.0000 0.53780  0.50460  0.10820  Biso   1.000  H
  H67      1.0000 0.96220  0.00460  0.39180  Biso   1.000  H
  H68      1.0000 0.46220  0.50460  0.39180  Biso   1.000  H
  H69      1.0000 0.96220  0.99540  0.89180  Biso   1.000  H
  H70      1.0000 0.46220  0.49540  0.89180  Biso   1.000  H
  H71      1.0000 0.03780  0.99540  0.60820  Biso   1.000  H
  H72      1.0000 0.53780  0.49540  0.60820  Biso   1.000  H
  H73      1.0000 0.55630  0.02890  0.16110  Biso   1.000  H
  H74      1.0000 0.05630  0.52890  0.16110  Biso   1.000  H
  H75      1.0000 0.44370  0.02890  0.33890  Biso   1.000  H
  H76      1.0000 0.94370  0.52890  0.33890  Biso   1.000  H
  H77      1.0000 0.44370  0.97110  0.83890  Biso   1.000  H
  H78      1.0000 0.94370  0.47110  0.83890  Biso   1.000  H
  H79      1.0000 0.55630  0.97110  0.66110  Biso   1.000  H
  H80      1.0000 0.05630  0.47110  0.66110  Biso   1.000  H
  H81      1.0000 0.63520  0.03070  0.28140  Biso   1.000  H
  H82      1.0000 0.13520  0.53070  0.28140  Biso   1.000  H
  H83      1.0000 0.36480  0.03070  0.21860  Biso   1.000  H
  H84      1.0000 0.86480  0.53070  0.21860  Biso   1.000  H
  H85      1.0000 0.36480  0.96930  0.71860  Biso   1.000  H
  H86      1.0000 0.86480  0.46930  0.71860  Biso   1.000  H
  H87      1.0000 0.63520  0.96930  0.78140  Biso   1.000  H
  H88      1.0000 0.13520  0.46930  0.78140  Biso   1.000  H
