data_image0
_cell_length_a       9.757
_cell_length_b       11.593
_cell_length_c       8.124
_cell_angle_alpha    110.23
_cell_angle_beta     101.2
_cell_angle_gamma    74.98

_symmetry_space_group_name_H-M    "P 1"
_symmetry_int_tables_number       1

loop_
  _symmetry_equiv_pos_as_xyz
  'x, y, z'

loop_
  _atom_site_label
  _atom_site_occupancy
  _atom_site_fract_x
  _atom_site_fract_y
  _atom_site_fract_z
  _atom_site_thermal_displace_type
  _atom_site_B_iso_or_equiv
  _atom_site_type_symbol
  Cu1      1.0000 0.65215  0.12149  0.45611  Biso   1.000  Cu
  Cu2      1.0000 0.34785  0.87851  0.54389  Biso   1.000  Cu
  Cu3      1.0000 0.14757  0.28372  0.97452  Biso   1.000  Cu
  Cu4      1.0000 0.85243  0.71628  0.02548  Biso   1.000  Cu
  S1       1.0000 0.89480  0.22290  0.70050  Biso   1.000  S
  S2       1.0000 0.10520  0.77710  0.29950  Biso   1.000  S
  S3       1.0000 0.40360  0.16860  0.18210  Biso   1.000  S
  S4       1.0000 0.59640  0.83140  0.81790  Biso   1.000  S
  O1       1.0000 0.46150  0.13960  0.58530  Biso   1.000  O
  O2       1.0000 0.53850  0.86040  0.41470  Biso   1.000  O
  O3       1.0000 0.57510  0.14120  0.84350  Biso   1.000  O
  O4       1.0000 0.42490  0.85880  0.15650  Biso   1.000  O
  O5       1.0000 0.39460  0.05180  0.74680  Biso   1.000  O
  O6       1.0000 0.60540  0.94820  0.25320  Biso   1.000  O
  O7       1.0000 0.95590  0.41860  0.08330  Biso   1.000  O
  O8       1.0000 0.04410  0.58140  0.91670  Biso   1.000  O
  O9       1.0000 0.07870  0.50550  0.32570  Biso   1.000  O
  O10      1.0000 0.92130  0.49450  0.67430  Biso   1.000  O
  O11      1.0000 0.88610  0.61670  0.23090  Biso   1.000  O
  O12      1.0000 0.11390  0.38330  0.76910  Biso   1.000  O
  N1       1.0000 0.47860  0.11060  0.72580  Biso   1.000  N
  N2       1.0000 0.52140  0.88940  0.27420  Biso   1.000  N
  N3       1.0000 0.32790  0.28860  0.11560  Biso   1.000  N
  N4       1.0000 0.67210  0.71140  0.88440  Biso   1.000  N
  N5       1.0000 0.54230  0.21990  0.30210  Biso   1.000  N
  N6       1.0000 0.45770  0.78010  0.69790  Biso   1.000  N
  N7       1.0000 0.82360  0.10050  0.61120  Biso   1.000  N
  N8       1.0000 0.17640  0.89950  0.38880  Biso   1.000  N
  N9       1.0000 0.03270  0.16400  0.81600  Biso   1.000  N
  N10      1.0000 0.96730  0.83600  0.18400  Biso   1.000  N
  N11      1.0000 0.97520  0.51290  0.21460  Biso   1.000  N
  N12      1.0000 0.02480  0.48710  0.78540  Biso   1.000  N
  C1       1.0000 0.90760  0.00540  0.66870  Biso   1.000  C
  C2       1.0000 0.09240  0.99460  0.33130  Biso   1.000  C
  C3       1.0000 0.88330  0.88330  0.62500  Biso   1.000  C
  C4       1.0000 0.11670  0.11670  0.37500  Biso   1.000  C
  C5       1.0000 0.97980  0.80210  0.70110  Biso   1.000  C
  C6       1.0000 0.02020  0.19790  0.29890  Biso   1.000  C
  C7       1.0000 0.10010  0.83880  0.81850  Biso   1.000  C
  C8       1.0000 0.89990  0.16120  0.18150  Biso   1.000  C
  C9       1.0000 0.12860  0.95610  0.86140  Biso   1.000  C
  C10      1.0000 0.87140  0.04390  0.13860  Biso   1.000  C
  C11      1.0000 0.02850  0.04250  0.78720  Biso   1.000  C
  C12      1.0000 0.97150  0.95750  0.21280  Biso   1.000  C
  C13      1.0000 0.41170  0.37460  0.18130  Biso   1.000  C
  C14      1.0000 0.58830  0.62540  0.81870  Biso   1.000  C
  C15      1.0000 0.53630  0.33460  0.28830  Biso   1.000  C
  C16      1.0000 0.46370  0.66540  0.71170  Biso   1.000  C
  C17      1.0000 0.63800  0.41220  0.36790  Biso   1.000  C
  C18      1.0000 0.36200  0.58780  0.63210  Biso   1.000  C
  C19      1.0000 0.61040  0.52500  0.33750  Biso   1.000  C
  C20      1.0000 0.38960  0.47500  0.66250  Biso   1.000  C
  C21      1.0000 0.48500  0.56380  0.23050  Biso   1.000  C
  C22      1.0000 0.51500  0.43620  0.76950  Biso   1.000  C
  C23      1.0000 0.38490  0.49260  0.15300  Biso   1.000  C
  C24      1.0000 0.61510  0.50740  0.84700  Biso   1.000  C
  H1       1.0000 0.96290  0.71270  0.67090  Biso   1.000  H
  H2       1.0000 0.03710  0.28730  0.32910  Biso   1.000  H
  H3       1.0000 0.80220  0.86340  0.54340  Biso   1.000  H
  H4       1.0000 0.19780  0.13660  0.45660  Biso   1.000  H
  H5       1.0000 0.68040  0.58470  0.37460  Biso   1.000  H
  H6       1.0000 0.31960  0.41530  0.62540  Biso   1.000  H
  H7       1.0000 0.22290  0.98340  0.94260  Biso   1.000  H
  H8       1.0000 0.77710  0.01660  0.05740  Biso   1.000  H
  H9       1.0000 0.16720  0.77410  0.87040  Biso   1.000  H
  H10      1.0000 0.83280  0.22590  0.12960  Biso   1.000  H
  H11      1.0000 0.49320  0.64900  0.23800  Biso   1.000  H
  H12      1.0000 0.50680  0.35100  0.76200  Biso   1.000  H
  H13      1.0000 0.29260  0.51500  0.07020  Biso   1.000  H
  H14      1.0000 0.70740  0.48500  0.92980  Biso   1.000  H
  H15      1.0000 0.72360  0.37940  0.42100  Biso   1.000  H
  H16      1.0000 0.27640  0.62060  0.57900  Biso   1.000  H
