data_image0
_cell_length_a       17.817
_cell_length_b       11.22
_cell_length_c       18.186
_cell_angle_alpha    90
_cell_angle_beta     110.36
_cell_angle_gamma    90

_symmetry_space_group_name_H-M    "P 1"
_symmetry_int_tables_number       1

loop_
  _symmetry_equiv_pos_as_xyz
  'x, y, z'

loop_
  _atom_site_label
  _atom_site_occupancy
  _atom_site_fract_x
  _atom_site_fract_y
  _atom_site_fract_z
  _atom_site_thermal_displace_type
  _atom_site_B_iso_or_equiv
  _atom_site_type_symbol
  Cu1      1.0000 0.09577  0.04395  0.32192  Biso   1.000  Cu
  Cu2      1.0000 0.40423  0.54395  0.67808  Biso   1.000  Cu
  Cu3      1.0000 0.90423  0.95605  0.67808  Biso   1.000  Cu
  Cu4      1.0000 0.59577  0.45605  0.32192  Biso   1.000  Cu
  Cu5      1.0000 0.73870  0.96108  0.29241  Biso   1.000  Cu
  Cu6      1.0000 0.76130  0.46108  0.70759  Biso   1.000  Cu
  Cu7      1.0000 0.26130  0.03892  0.70759  Biso   1.000  Cu
  Cu8      1.0000 0.23870  0.53892  0.29241  Biso   1.000  Cu
  Cl1      1.0000 0.26990  0.03330  0.48520  Biso   1.000  Cl
  Cl2      1.0000 0.23010  0.53330  0.51480  Biso   1.000  Cl
  Cl3      1.0000 0.73010  0.96670  0.51480  Biso   1.000  Cl
  Cl4      1.0000 0.76990  0.46670  0.48520  Biso   1.000  Cl
  Cl5      1.0000 0.73450  0.12150  0.10970  Biso   1.000  Cl
  Cl6      1.0000 0.76550  0.62150  0.89030  Biso   1.000  Cl
  Cl7      1.0000 0.26550  0.87850  0.89030  Biso   1.000  Cl
  Cl8      1.0000 0.23450  0.37850  0.10970  Biso   1.000  Cl
  S1       1.0000 0.15640  0.77720  0.32530  Biso   1.000  S
  S2       1.0000 0.34360  0.27720  0.67470  Biso   1.000  S
  S3       1.0000 0.84360  0.22280  0.67470  Biso   1.000  S
  S4       1.0000 0.65640  0.72280  0.32530  Biso   1.000  S
  S5       1.0000 0.91110  0.04720  0.29560  Biso   1.000  S
  S6       1.0000 0.58890  0.54720  0.70440  Biso   1.000  S
  S7       1.0000 0.08890  0.95280  0.70440  Biso   1.000  S
  S8       1.0000 0.41110  0.45280  0.29560  Biso   1.000  S
  S9       1.0000 0.18370  0.29040  0.33500  Biso   1.000  S
  S10      1.0000 0.31630  0.79040  0.66500  Biso   1.000  S
  S11      1.0000 0.81630  0.70960  0.66500  Biso   1.000  S
  S12      1.0000 0.68370  0.20960  0.33500  Biso   1.000  S
  O1       1.0000 0.75480  0.03290  0.16860  Biso   1.000  O
  O2       1.0000 0.74520  0.53290  0.83140  Biso   1.000  O
  O3       1.0000 0.24520  0.96710  0.83140  Biso   1.000  O
  O4       1.0000 0.25480  0.46710  0.16860  Biso   1.000  O
  O5       1.0000 0.80090  0.14960  0.08990  Biso   1.000  O
  O6       1.0000 0.69910  0.64960  0.91010  Biso   1.000  O
  O7       1.0000 0.19910  0.85040  0.91010  Biso   1.000  O
  O8       1.0000 0.30090  0.35040  0.08990  Biso   1.000  O
  O9       1.0000 0.67830  0.07390  0.04410  Biso   1.000  O
  O10      1.0000 0.82170  0.57390  0.95590  Biso   1.000  O
  O11      1.0000 0.32170  0.92610  0.95590  Biso   1.000  O
  O12      1.0000 0.17830  0.42610  0.04410  Biso   1.000  O
  O13      1.0000 0.70120  0.21830  0.13470  Biso   1.000  O
  O14      1.0000 0.79880  0.71830  0.86530  Biso   1.000  O
  O15      1.0000 0.29880  0.78170  0.86530  Biso   1.000  O
  O16      1.0000 0.20120  0.28170  0.13470  Biso   1.000  O
  O17      1.0000 0.19120  0.07640  0.43880  Biso   1.000  O
  O18      1.0000 0.30880  0.57640  0.56120  Biso   1.000  O
  O19      1.0000 0.80880  0.92360  0.56120  Biso   1.000  O
  O20      1.0000 0.69120  0.42360  0.43880  Biso   1.000  O
  O21      1.0000 0.28270  0.05400  0.56710  Biso   1.000  O
  O22      1.0000 0.21730  0.55400  0.43290  Biso   1.000  O
  O23      1.0000 0.71730  0.94600  0.43290  Biso   1.000  O
  O24      1.0000 0.78270  0.44600  0.56710  Biso   1.000  O
  O25      1.0000 0.28360  0.91500  0.47250  Biso   1.000  O
  O26      1.0000 0.21640  0.41500  0.52750  Biso   1.000  O
  O27      1.0000 0.71640  0.08500  0.52750  Biso   1.000  O
  O28      1.0000 0.78360  0.58500  0.47250  Biso   1.000  O
  O29      1.0000 0.32230  0.10800  0.46400  Biso   1.000  O
  O30      1.0000 0.17770  0.60800  0.53600  Biso   1.000  O
  O31      1.0000 0.67770  0.89200  0.53600  Biso   1.000  O
  O32      1.0000 0.82230  0.39200  0.46400  Biso   1.000  O
  O33      1.0000 0.49340  0.25750  0.85530  Biso   1.000  O
  O34      1.0000 0.00660  0.75750  0.14470  Biso   1.000  O
  O35      1.0000 0.50660  0.74250  0.14470  Biso   1.000  O
  O36      1.0000 0.99340  0.24250  0.85530  Biso   1.000  O
  O37      1.0000 0.46930  0.11870  0.33410  Biso   1.000  O
  O38      1.0000 0.03070  0.61870  0.66590  Biso   1.000  O
  O39      1.0000 0.53070  0.88130  0.66590  Biso   1.000  O
  O40      1.0000 0.96930  0.38130  0.33410  Biso   1.000  O
  O41      1.0000 0.30400  0.09700  0.54500  Biso   1.000  O
  O42      1.0000 0.19600  0.59700  0.45500  Biso   1.000  O
  O43      1.0000 0.69600  0.90300  0.45500  Biso   1.000  O
  O44      1.0000 0.80400  0.40300  0.54500  Biso   1.000  O
  O45      1.0000 0.32000  0.03000  0.44400  Biso   1.000  O
  O46      1.0000 0.18000  0.53000  0.55600  Biso   1.000  O
  O47      1.0000 0.68000  0.97000  0.55600  Biso   1.000  O
  O48      1.0000 0.82000  0.47000  0.44400  Biso   1.000  O
  O49      1.0000 0.25600  0.91400  0.49700  Biso   1.000  O
  O50      1.0000 0.24400  0.41400  0.50300  Biso   1.000  O
  O51      1.0000 0.74400  0.08600  0.50300  Biso   1.000  O
  O52      1.0000 0.75600  0.58600  0.49700  Biso   1.000  O
  N1       1.0000 0.85850  0.96810  0.33450  Biso   1.000  N
  N2       1.0000 0.64150  0.46810  0.66550  Biso   1.000  N
  N3       1.0000 0.14150  0.03190  0.66550  Biso   1.000  N
  N4       1.0000 0.35850  0.53190  0.33450  Biso   1.000  N
  N5       1.0000 0.99990  0.00360  0.35120  Biso   1.000  N
  N6       1.0000 0.50010  0.50360  0.64880  Biso   1.000  N
  N7       1.0000 0.00010  0.99640  0.64880  Biso   1.000  N
  N8       1.0000 0.49990  0.49640  0.35120  Biso   1.000  N
  N9       1.0000 0.10860  0.20710  0.28530  Biso   1.000  N
  N10      1.0000 0.39140  0.70710  0.71470  Biso   1.000  N
  N11      1.0000 0.89140  0.79290  0.71470  Biso   1.000  N
  N12      1.0000 0.60860  0.29290  0.28530  Biso   1.000  N
  N13      1.0000 0.16140  0.40730  0.27980  Biso   1.000  N
  N14      1.0000 0.33860  0.90730  0.72020  Biso   1.000  N
  N15      1.0000 0.83860  0.59270  0.72020  Biso   1.000  N
  N16      1.0000 0.66140  0.09270  0.27980  Biso   1.000  N
  N17      1.0000 0.14570  0.90660  0.28410  Biso   1.000  N
  N18      1.0000 0.35430  0.40660  0.71590  Biso   1.000  N
  N19      1.0000 0.85430  0.09340  0.71590  Biso   1.000  N
  N20      1.0000 0.64570  0.59340  0.28410  Biso   1.000  N
  N21      1.0000 0.19530  0.70590  0.26930  Biso   1.000  N
  N22      1.0000 0.30470  0.20590  0.73070  Biso   1.000  N
  N23      1.0000 0.80470  0.29410  0.73070  Biso   1.000  N
  N24      1.0000 0.69530  0.79410  0.26930  Biso   1.000  N
  C1       1.0000 0.91040  0.90500  0.39400  Biso   1.000  C
  C2       1.0000 0.58960  0.40500  0.60600  Biso   1.000  C
  C3       1.0000 0.08960  0.09500  0.60600  Biso   1.000  C
  C4       1.0000 0.41040  0.59500  0.39400  Biso   1.000  C
  C5       1.0000 0.99200  0.92530  0.40310  Biso   1.000  C
  C6       1.0000 0.50800  0.42530  0.59690  Biso   1.000  C
  C7       1.0000 0.00800  0.07470  0.59690  Biso   1.000  C
  C8       1.0000 0.49200  0.57470  0.40310  Biso   1.000  C
  C9       1.0000 0.05430  0.86640  0.46330  Biso   1.000  C
  C10      1.0000 0.44570  0.36640  0.53670  Biso   1.000  C
  C11      1.0000 0.94570  0.13360  0.53670  Biso   1.000  C
  C12      1.0000 0.55430  0.63360  0.46330  Biso   1.000  C
  C13      1.0000 0.03180  0.79170  0.51090  Biso   1.000  C
  C14      1.0000 0.46820  0.29170  0.48910  Biso   1.000  C
  C15      1.0000 0.96820  0.20830  0.48910  Biso   1.000  C
  C16      1.0000 0.53180  0.70830  0.51090  Biso   1.000  C
  C17      1.0000 0.95010  0.77130  0.50150  Biso   1.000  C
  C18      1.0000 0.54990  0.27130  0.49850  Biso   1.000  C
  C19      1.0000 0.04990  0.22870  0.49850  Biso   1.000  C
  C20      1.0000 0.45010  0.72870  0.50150  Biso   1.000  C
  C21      1.0000 0.88920  0.82530  0.44450  Biso   1.000  C
  C22      1.0000 0.61080  0.32530  0.55550  Biso   1.000  C
  C23      1.0000 0.11080  0.17470  0.55550  Biso   1.000  C
  C24      1.0000 0.38920  0.67470  0.44450  Biso   1.000  C
  C25      1.0000 0.06270  0.27020  0.22350  Biso   1.000  C
  C26      1.0000 0.43730  0.77020  0.77650  Biso   1.000  C
  C27      1.0000 0.93730  0.72980  0.77650  Biso   1.000  C
  C28      1.0000 0.56270  0.22980  0.22350  Biso   1.000  C
  C29      1.0000 0.09270  0.38620  0.22030  Biso   1.000  C
  C30      1.0000 0.40730  0.88620  0.77970  Biso   1.000  C
  C31      1.0000 0.90730  0.61380  0.77970  Biso   1.000  C
  C32      1.0000 0.59270  0.11380  0.22030  Biso   1.000  C
  C33      1.0000 0.05230  0.46560  0.15940  Biso   1.000  C
  C34      1.0000 0.44770  0.96560  0.84060  Biso   1.000  C
  C35      1.0000 0.94770  0.53440  0.84060  Biso   1.000  C
  C36      1.0000 0.55230  0.03440  0.15940  Biso   1.000  C
  C37      1.0000 0.98360  0.42660  0.10520  Biso   1.000  C
  C38      1.0000 0.51640  0.92660  0.89480  Biso   1.000  C
  C39      1.0000 0.01640  0.57340  0.89480  Biso   1.000  C
  C40      1.0000 0.48360  0.07340  0.10520  Biso   1.000  C
  C41      1.0000 0.95230  0.31060  0.10830  Biso   1.000  C
  C42      1.0000 0.54770  0.81060  0.89170  Biso   1.000  C
  C43      1.0000 0.04770  0.68940  0.89170  Biso   1.000  C
  C44      1.0000 0.45230  0.18940  0.10830  Biso   1.000  C
  C45      1.0000 0.99080  0.23350  0.16520  Biso   1.000  C
  C46      1.0000 0.50920  0.73350  0.83480  Biso   1.000  C
  C47      1.0000 0.00920  0.76650  0.83480  Biso   1.000  C
  C48      1.0000 0.49080  0.26650  0.16520  Biso   1.000  C
  C49      1.0000 0.19990  0.78240  0.21480  Biso   1.000  C
  C50      1.0000 0.30010  0.28240  0.78520  Biso   1.000  C
  C51      1.0000 0.80010  0.21760  0.78520  Biso   1.000  C
  C52      1.0000 0.69990  0.71760  0.21480  Biso   1.000  C
  C53      1.0000 0.22940  0.75800  0.15370  Biso   1.000  C
  C54      1.0000 0.27060  0.25800  0.84630  Biso   1.000  C
  C55      1.0000 0.77060  0.24200  0.84630  Biso   1.000  C
  C56      1.0000 0.72940  0.74200  0.15370  Biso   1.000  C
  C57      1.0000 0.23060  0.84920  0.10490  Biso   1.000  C
  C58      1.0000 0.26940  0.34920  0.89510  Biso   1.000  C
  C59      1.0000 0.76940  0.15080  0.89510  Biso   1.000  C
  C60      1.0000 0.73060  0.65080  0.10490  Biso   1.000  C
  C61      1.0000 0.20540  0.96550  0.11460  Biso   1.000  C
  C62      1.0000 0.29460  0.46550  0.88540  Biso   1.000  C
  C63      1.0000 0.79460  0.03450  0.88540  Biso   1.000  C
  C64      1.0000 0.70540  0.53450  0.11460  Biso   1.000  C
  C65      1.0000 0.17500  0.99320  0.17230  Biso   1.000  C
  C66      1.0000 0.32500  0.49320  0.82770  Biso   1.000  C
  C67      1.0000 0.82500  0.00680  0.82770  Biso   1.000  C
  C68      1.0000 0.67500  0.50680  0.17230  Biso   1.000  C
  C69      1.0000 0.17280  0.89930  0.22340  Biso   1.000  C
  C70      1.0000 0.32720  0.39930  0.77660  Biso   1.000  C
  C71      1.0000 0.82720  0.10070  0.77660  Biso   1.000  C
  C72      1.0000 0.67280  0.60070  0.22340  Biso   1.000  C
  C73      1.0000 0.49850  0.27200  0.93630  Biso   1.000  C
  C74      1.0000 0.00150  0.77200  0.06370  Biso   1.000  C
  C75      1.0000 0.50150  0.72800  0.06370  Biso   1.000  C
  C76      1.0000 0.99850  0.22800  0.93630  Biso   1.000  C
  C77      1.0000 0.54870  0.37800  0.96060  Biso   1.000  C
  C78      1.0000 0.95130  0.87800  0.03940  Biso   1.000  C
  C79      1.0000 0.45130  0.62200  0.03940  Biso   1.000  C
  C80      1.0000 0.04870  0.12200  0.96060  Biso   1.000  C
  C81      1.0000 0.60430  0.36800  0.91700  Biso   1.000  C
  C82      1.0000 0.89570  0.86800  0.08300  Biso   1.000  C
  C83      1.0000 0.39570  0.63200  0.08300  Biso   1.000  C
  C84      1.0000 0.10430  0.13200  0.91700  Biso   1.000  C
  C85      1.0000 0.55670  0.32100  0.84320  Biso   1.000  C
  C86      1.0000 0.94330  0.82100  0.15680  Biso   1.000  C
  C87      1.0000 0.44330  0.67900  0.15680  Biso   1.000  C
  C88      1.0000 0.05670  0.17900  0.84320  Biso   1.000  C
  C89      1.0000 0.50790  0.01400  0.37400  Biso   1.000  C
  C90      1.0000 0.99210  0.51400  0.62600  Biso   1.000  C
  C91      1.0000 0.49210  0.98600  0.62600  Biso   1.000  C
  C92      1.0000 0.00790  0.48600  0.37400  Biso   1.000  C
  C93      1.0000 0.47100  0.91500  0.32720  Biso   1.000  C
  C94      1.0000 0.02900  0.41500  0.67280  Biso   1.000  C
  C95      1.0000 0.52900  0.08500  0.67280  Biso   1.000  C
  C96      1.0000 0.97100  0.58500  0.32720  Biso   1.000  C
  C97      1.0000 0.38600  0.95700  0.28620  Biso   1.000  C
  C98      1.0000 0.11400  0.45700  0.71380  Biso   1.000  C
  C99      1.0000 0.61400  0.04300  0.71380  Biso   1.000  C
  C100     1.0000 0.88600  0.54300  0.28620  Biso   1.000  C
  C101     1.0000 0.38890  0.09000  0.28850  Biso   1.000  C
  C102     1.0000 0.11110  0.59000  0.71150  Biso   1.000  C
  C103     1.0000 0.61110  0.91000  0.71150  Biso   1.000  C
  C104     1.0000 0.88890  0.41000  0.28850  Biso   1.000  C
  H1       1.0000 0.11410  0.88900  0.46750  Biso   1.000  H
  H2       1.0000 0.38590  0.38900  0.53250  Biso   1.000  H
  H3       1.0000 0.88590  0.11100  0.53250  Biso   1.000  H
  H4       1.0000 0.61410  0.61100  0.46750  Biso   1.000  H
  H5       1.0000 0.82490  0.80320  0.43590  Biso   1.000  H
  H6       1.0000 0.67510  0.30320  0.56410  Biso   1.000  H
  H7       1.0000 0.17510  0.19680  0.56410  Biso   1.000  H
  H8       1.0000 0.32490  0.69680  0.43590  Biso   1.000  H
  H9       1.0000 0.93030  0.71080  0.53550  Biso   1.000  H
  H10      1.0000 0.56970  0.21080  0.46450  Biso   1.000  H
  H11      1.0000 0.06970  0.28920  0.46450  Biso   1.000  H
  H12      1.0000 0.43030  0.78920  0.53550  Biso   1.000  H
  H13      1.0000 0.07410  0.74740  0.55270  Biso   1.000  H
  H14      1.0000 0.42590  0.24740  0.44730  Biso   1.000  H
  H15      1.0000 0.92590  0.25260  0.44730  Biso   1.000  H
  H16      1.0000 0.57410  0.75260  0.55270  Biso   1.000  H
  H17      1.0000 0.07310  0.54480  0.15650  Biso   1.000  H
  H18      1.0000 0.42690  0.04480  0.84350  Biso   1.000  H
  H19      1.0000 0.92690  0.45520  0.84350  Biso   1.000  H
  H20      1.0000 0.57310  0.95520  0.15650  Biso   1.000  H
  H21      1.0000 0.95410  0.48050  0.06340  Biso   1.000  H
  H22      1.0000 0.54590  0.98050  0.93660  Biso   1.000  H
  H23      1.0000 0.04590  0.51950  0.93660  Biso   1.000  H
  H24      1.0000 0.45410  0.01950  0.06340  Biso   1.000  H
  H25      1.0000 0.90230  0.28610  0.06780  Biso   1.000  H
  H26      1.0000 0.59770  0.78610  0.93220  Biso   1.000  H
  H27      1.0000 0.09770  0.71390  0.93220  Biso   1.000  H
  H28      1.0000 0.40230  0.21390  0.06780  Biso   1.000  H
  H29      1.0000 0.96960  0.15410  0.16710  Biso   1.000  H
  H30      1.0000 0.53040  0.65410  0.83290  Biso   1.000  H
  H31      1.0000 0.03040  0.84590  0.83290  Biso   1.000  H
  H32      1.0000 0.46960  0.34590  0.16710  Biso   1.000  H
  H33      1.0000 0.24810  0.67810  0.14710  Biso   1.000  H
  H34      1.0000 0.25190  0.17810  0.85290  Biso   1.000  H
  H35      1.0000 0.75190  0.32190  0.85290  Biso   1.000  H
  H36      1.0000 0.74810  0.82190  0.14710  Biso   1.000  H
  H37      1.0000 0.24900  0.83230  0.06130  Biso   1.000  H
  H38      1.0000 0.25100  0.33230  0.93870  Biso   1.000  H
  H39      1.0000 0.75100  0.16770  0.93870  Biso   1.000  H
  H40      1.0000 0.74900  0.66770  0.06130  Biso   1.000  H
  H41      1.0000 0.21040  0.02830  0.07990  Biso   1.000  H
  H42      1.0000 0.28960  0.52830  0.92010  Biso   1.000  H
  H43      1.0000 0.78960  0.97170  0.92010  Biso   1.000  H
  H44      1.0000 0.71040  0.47170  0.07990  Biso   1.000  H
  H45      1.0000 0.15670  0.07330  0.17870  Biso   1.000  H
  H46      1.0000 0.34330  0.57330  0.82130  Biso   1.000  H
  H47      1.0000 0.84330  0.92670  0.82130  Biso   1.000  H
  H48      1.0000 0.65670  0.42670  0.17870  Biso   1.000  H
