data_image0
_cell_length_a       16.576
_cell_length_b       10.711
_cell_length_c       11.001
_cell_angle_alpha    90
_cell_angle_beta     101.29
_cell_angle_gamma    90

_symmetry_space_group_name_H-M    "P 1"
_symmetry_int_tables_number       1

loop_
  _symmetry_equiv_pos_as_xyz
  'x, y, z'

loop_
  _atom_site_label
  _atom_site_occupancy
  _atom_site_fract_x
  _atom_site_fract_y
  _atom_site_fract_z
  _atom_site_thermal_displace_type
  _atom_site_B_iso_or_equiv
  _atom_site_type_symbol
  Cu1      1.0000 0.76557  0.01745  0.16254  Biso   1.000  Cu
  Cu2      1.0000 0.73443  0.51745  0.83746  Biso   1.000  Cu
  Cu3      1.0000 0.23443  0.98255  0.83746  Biso   1.000  Cu
  Cu4      1.0000 0.26557  0.48255  0.16254  Biso   1.000  Cu
  Cu5      1.0000 0.73754  0.25681  0.33821  Biso   1.000  Cu
  Cu6      1.0000 0.76246  0.75681  0.66179  Biso   1.000  Cu
  Cu7      1.0000 0.26246  0.74319  0.66179  Biso   1.000  Cu
  Cu8      1.0000 0.23754  0.24319  0.33821  Biso   1.000  Cu
  S1       1.0000 0.72690  0.88470  0.90780  Biso   1.000  S
  S2       1.0000 0.77310  0.38470  0.09220  Biso   1.000  S
  S3       1.0000 0.27310  0.11530  0.09220  Biso   1.000  S
  S4       1.0000 0.22690  0.61530  0.90780  Biso   1.000  S
  S5       1.0000 0.73510  0.89600  0.41130  Biso   1.000  S
  S6       1.0000 0.76490  0.39600  0.58870  Biso   1.000  S
  S7       1.0000 0.26490  0.10400  0.58870  Biso   1.000  S
  S8       1.0000 0.23510  0.60400  0.41130  Biso   1.000  S
  P1       1.0000 0.58610  0.12400  0.14620  Biso   1.000  P
  P2       1.0000 0.91390  0.62400  0.85380  Biso   1.000  P
  P3       1.0000 0.41390  0.87600  0.85380  Biso   1.000  P
  P4       1.0000 0.08610  0.37600  0.14620  Biso   1.000  P
  P5       1.0000 0.92100  0.14050  0.36460  Biso   1.000  P
  P6       1.0000 0.57900  0.64050  0.63540  Biso   1.000  P
  P7       1.0000 0.07900  0.85950  0.63540  Biso   1.000  P
  P8       1.0000 0.42100  0.35950  0.36460  Biso   1.000  P
  F1       1.0000 0.58910  0.24790  0.07170  Biso   1.000  F
  F2       1.0000 0.91090  0.74790  0.92830  Biso   1.000  F
  F3       1.0000 0.41090  0.75210  0.92830  Biso   1.000  F
  F4       1.0000 0.08910  0.25210  0.07170  Biso   1.000  F
  F5       1.0000 0.93000  0.02600  0.44470  Biso   1.000  F
  F6       1.0000 0.57000  0.52600  0.55530  Biso   1.000  F
  F7       1.0000 0.07000  0.97400  0.55530  Biso   1.000  F
  F8       1.0000 0.43000  0.47400  0.44470  Biso   1.000  F
  O1       1.0000 0.66860  0.11350  0.22760  Biso   1.000  O
  O2       1.0000 0.83140  0.61350  0.77240  Biso   1.000  O
  O3       1.0000 0.33140  0.88650  0.77240  Biso   1.000  O
  O4       1.0000 0.16860  0.38650  0.22760  Biso   1.000  O
  O5       1.0000 0.57030  0.02360  0.04740  Biso   1.000  O
  O6       1.0000 0.92970  0.52360  0.95260  Biso   1.000  O
  O7       1.0000 0.42970  0.97640  0.95260  Biso   1.000  O
  O8       1.0000 0.07030  0.47640  0.04740  Biso   1.000  O
  O9       1.0000 0.51570  0.13860  0.21100  Biso   1.000  O
  O10      1.0000 0.98430  0.63860  0.78900  Biso   1.000  O
  O11      1.0000 0.48430  0.86140  0.78900  Biso   1.000  O
  O12      1.0000 0.01570  0.36140  0.21100  Biso   1.000  O
  O13      1.0000 0.83960  0.15820  0.28260  Biso   1.000  O
  O14      1.0000 0.66040  0.65820  0.71740  Biso   1.000  O
  O15      1.0000 0.16040  0.84180  0.71740  Biso   1.000  O
  O16      1.0000 0.33960  0.34180  0.28260  Biso   1.000  O
  O17      1.0000 0.92190  0.25270  0.46440  Biso   1.000  O
  O18      1.0000 0.57810  0.75270  0.53560  Biso   1.000  O
  O19      1.0000 0.07810  0.74730  0.53560  Biso   1.000  O
  O20      1.0000 0.42190  0.24730  0.46440  Biso   1.000  O
  O21      1.0000 0.99360  0.16830  0.31610  Biso   1.000  O
  O22      1.0000 0.50640  0.66830  0.68390  Biso   1.000  O
  O23      1.0000 0.00640  0.83170  0.68390  Biso   1.000  O
  O24      1.0000 0.49360  0.33170  0.31610  Biso   1.000  O
  N1       1.0000 0.77690  0.99530  0.99150  Biso   1.000  N
  N2       1.0000 0.72310  0.49530  0.00850  Biso   1.000  N
  N3       1.0000 0.22310  0.00470  0.00850  Biso   1.000  N
  N4       1.0000 0.27690  0.50470  0.99150  Biso   1.000  N
  N5       1.0000 0.76340  0.90250  0.78370  Biso   1.000  N
  N6       1.0000 0.73660  0.40250  0.21630  Biso   1.000  N
  N7       1.0000 0.23660  0.09750  0.21630  Biso   1.000  N
  N8       1.0000 0.26340  0.59750  0.78370  Biso   1.000  N
  N9       1.0000 0.78080  0.78080  0.49350  Biso   1.000  N
  N10      1.0000 0.71920  0.28080  0.50650  Biso   1.000  N
  N11      1.0000 0.21920  0.21920  0.50650  Biso   1.000  N
  N12      1.0000 0.28080  0.71920  0.49350  Biso   1.000  N
  N13      1.0000 0.77030  0.87360  0.28600  Biso   1.000  N
  N14      1.0000 0.72970  0.37360  0.71400  Biso   1.000  N
  N15      1.0000 0.22970  0.12640  0.71400  Biso   1.000  N
  N16      1.0000 0.27030  0.62640  0.28600  Biso   1.000  N
  C1       1.0000 0.81680  0.99950  0.80250  Biso   1.000  C
  C2       1.0000 0.68320  0.49950  0.19750  Biso   1.000  C
  C3       1.0000 0.18320  0.00050  0.19750  Biso   1.000  C
  C4       1.0000 0.31680  0.50050  0.80250  Biso   1.000  C
  C5       1.0000 0.86120  0.04940  0.71630  Biso   1.000  C
  C6       1.0000 0.63880  0.54940  0.28370  Biso   1.000  C
  C7       1.0000 0.13880  0.95060  0.28370  Biso   1.000  C
  C8       1.0000 0.36120  0.45060  0.71630  Biso   1.000  C
  C9       1.0000 0.91085  0.14680  0.75370  Biso   1.000  C
  C10      1.0000 0.58915  0.64680  0.24630  Biso   1.000  C
  C11      1.0000 0.08915  0.85320  0.24630  Biso   1.000  C
  C12      1.0000 0.41085  0.35320  0.75370  Biso   1.000  C
  C13      1.0000 0.91990  0.19940  0.87340  Biso   1.000  C
  C14      1.0000 0.58010  0.69940  0.12660  Biso   1.000  C
  C15      1.0000 0.08010  0.80060  0.12660  Biso   1.000  C
  C16      1.0000 0.41990  0.30060  0.87340  Biso   1.000  C
  C17      1.0000 0.87920  0.15290  0.95930  Biso   1.000  C
  C18      1.0000 0.62080  0.65290  0.04070  Biso   1.000  C
  C19      1.0000 0.12080  0.84710  0.04070  Biso   1.000  C
  C20      1.0000 0.37920  0.34710  0.95930  Biso   1.000  C
  C21      1.0000 0.82500  0.05300  0.92330  Biso   1.000  C
  C22      1.0000 0.67500  0.55300  0.07670  Biso   1.000  C
  C23      1.0000 0.17500  0.94700  0.07670  Biso   1.000  C
  C24      1.0000 0.32500  0.44700  0.92330  Biso   1.000  C
  C25      1.0000 0.81970  0.77310  0.30370  Biso   1.000  C
  C26      1.0000 0.68030  0.27310  0.69630  Biso   1.000  C
  C27      1.0000 0.18030  0.22690  0.69630  Biso   1.000  C
  C28      1.0000 0.31970  0.72690  0.30370  Biso   1.000  C
  C29      1.0000 0.86200  0.71850  0.21700  Biso   1.000  C
  C30      1.0000 0.63800  0.21850  0.78300  Biso   1.000  C
  C31      1.0000 0.13800  0.28150  0.78300  Biso   1.000  C
  C32      1.0000 0.36200  0.78150  0.21700  Biso   1.000  C
  C33      1.0000 0.90800  0.61560  0.25190  Biso   1.000  C
  C34      1.0000 0.59200  0.11560  0.74810  Biso   1.000  C
  C35      1.0000 0.09200  0.38440  0.74810  Biso   1.000  C
  C36      1.0000 0.40800  0.88440  0.25190  Biso   1.000  C
  C37      1.0000 0.91580  0.56490  0.37390  Biso   1.000  C
  C38      1.0000 0.58420  0.06490  0.62610  Biso   1.000  C
  C39      1.0000 0.08420  0.43510  0.62610  Biso   1.000  C
  C40      1.0000 0.41580  0.93510  0.37390  Biso   1.000  C
  C41      1.0000 0.87700  0.61480  0.45930  Biso   1.000  C
  C42      1.0000 0.62300  0.11480  0.54070  Biso   1.000  C
  C43      1.0000 0.12300  0.38520  0.54070  Biso   1.000  C
  C44      1.0000 0.37700  0.88520  0.45930  Biso   1.000  C
  C45      1.0000 0.82660  0.71970  0.42530  Biso   1.000  C
  C46      1.0000 0.67340  0.21970  0.57470  Biso   1.000  C
  C47      1.0000 0.17340  0.28030  0.57470  Biso   1.000  C
  C48      1.0000 0.32660  0.78030  0.42530  Biso   1.000  C
  H1       1.0000 0.86200  0.00700  0.64100  Biso   1.000  H
  H2       1.0000 0.63800  0.50700  0.35900  Biso   1.000  H
  H3       1.0000 0.13800  0.99300  0.35900  Biso   1.000  H
  H4       1.0000 0.36200  0.49300  0.64100  Biso   1.000  H
  H5       1.0000 0.94100  0.16800  0.70800  Biso   1.000  H
  H6       1.0000 0.55900  0.66800  0.29200  Biso   1.000  H
  H7       1.0000 0.05900  0.83200  0.29200  Biso   1.000  H
  H8       1.0000 0.44100  0.33200  0.70800  Biso   1.000  H
  H9       1.0000 0.95600  0.26800  0.90000  Biso   1.000  H
  H10      1.0000 0.54400  0.76800  0.10000  Biso   1.000  H
  H11      1.0000 0.04400  0.73200  0.10000  Biso   1.000  H
  H12      1.0000 0.45600  0.23200  0.90000  Biso   1.000  H
  H13      1.0000 0.89100  0.18100  0.04000  Biso   1.000  H
  H14      1.0000 0.60900  0.68100  0.96000  Biso   1.000  H
  H15      1.0000 0.10900  0.81900  0.96000  Biso   1.000  H
  H16      1.0000 0.39100  0.31900  0.04000  Biso   1.000  H
  H17      1.0000 0.85800  0.75400  0.14500  Biso   1.000  H
  H18      1.0000 0.64200  0.25400  0.85500  Biso   1.000  H
  H19      1.0000 0.14200  0.24600  0.85500  Biso   1.000  H
  H20      1.0000 0.35800  0.74600  0.14500  Biso   1.000  H
  H21      1.0000 0.93500  0.57700  0.20000  Biso   1.000  H
  H22      1.0000 0.56500  0.07700  0.80000  Biso   1.000  H
  H23      1.0000 0.06500  0.42300  0.80000  Biso   1.000  H
  H24      1.0000 0.43500  0.92300  0.20000  Biso   1.000  H
  H25      1.0000 0.94100  0.49500  0.40100  Biso   1.000  H
  H26      1.0000 0.55900  0.99500  0.59900  Biso   1.000  H
  H27      1.0000 0.05900  0.50500  0.59900  Biso   1.000  H
  H28      1.0000 0.44100  0.00500  0.40100  Biso   1.000  H
  H29      1.0000 0.88800  0.58100  0.52600  Biso   1.000  H
  H30      1.0000 0.61200  0.08100  0.47400  Biso   1.000  H
  H31      1.0000 0.11200  0.41900  0.47400  Biso   1.000  H
  H32      1.0000 0.38800  0.91900  0.52600  Biso   1.000  H
