data_image0
_cell_length_a       5.7542
_cell_length_b       25.276
_cell_length_c       6.9057
_cell_angle_alpha    90
_cell_angle_beta     113.361
_cell_angle_gamma    90

_symmetry_space_group_name_H-M    "P 1"
_symmetry_int_tables_number       1

loop_
  _symmetry_equiv_pos_as_xyz
  'x, y, z'

loop_
  _atom_site_label
  _atom_site_occupancy
  _atom_site_fract_x
  _atom_site_fract_y
  _atom_site_fract_z
  _atom_site_thermal_displace_type
  _atom_site_B_iso_or_equiv
  _atom_site_type_symbol
  Cu1      1.0000 0.14216  0.28880  0.26172  Biso   1.000  Cu
  Cu2      1.0000 0.85784  0.78880  0.23828  Biso   1.000  Cu
  Cu3      1.0000 0.85784  0.71120  0.73828  Biso   1.000  Cu
  Cu4      1.0000 0.14216  0.21120  0.76172  Biso   1.000  Cu
  S1       1.0000 0.24660  0.28972  0.96660  Biso   1.000  S
  S2       1.0000 0.75340  0.78972  0.53340  Biso   1.000  S
  S3       1.0000 0.75340  0.71028  0.03340  Biso   1.000  S
  S4       1.0000 0.24660  0.21028  0.46660  Biso   1.000  S
  N1       1.0000 0.77740  0.29444  0.14980  Biso   1.000  N
  N2       1.0000 0.22260  0.79444  0.35020  Biso   1.000  N
  N3       1.0000 0.22260  0.70556  0.85020  Biso   1.000  N
  N4       1.0000 0.77740  0.20556  0.64980  Biso   1.000  N
  N5       1.0000 0.93960  0.48012  0.92840  Biso   1.000  N
  N6       1.0000 0.06040  0.98012  0.57160  Biso   1.000  N
  N7       1.0000 0.06040  0.51988  0.07160  Biso   1.000  N
  N8       1.0000 0.93960  0.01988  0.42840  Biso   1.000  N
  C1       1.0000 0.56160  0.29230  0.07580  Biso   1.000  C
  C2       1.0000 0.43840  0.79230  0.42420  Biso   1.000  C
  C3       1.0000 0.43840  0.70770  0.92420  Biso   1.000  C
  C4       1.0000 0.56160  0.20770  0.57580  Biso   1.000  C
  N9       1.0000 0.33670  0.34840  0.45990  Biso   1.000  N
  N10      1.0000 0.66330  0.84840  0.04010  Biso   1.000  N
  N11      1.0000 0.66330  0.65160  0.54010  Biso   1.000  N
  N12      1.0000 0.33670  0.15160  0.95990  Biso   1.000  N
  C5       1.0000 0.59540  0.34810  0.53740  Biso   1.000  C
  C6       1.0000 0.40460  0.84810  0.96260  Biso   1.000  C
  C7       1.0000 0.40460  0.65190  0.46260  Biso   1.000  C
  C8       1.0000 0.59540  0.15190  0.03740  Biso   1.000  C
  H1       1.0000 0.67480  0.32390  0.48280  Biso   1.000  H
  H2       1.0000 0.32520  0.82390  0.01720  Biso   1.000  H
  H3       1.0000 0.32520  0.67610  0.51720  Biso   1.000  H
  H4       1.0000 0.67480  0.17610  0.98280  Biso   1.000  H
  C9       1.0000 0.74600  0.38270  0.69500  Biso   1.000  C
  C10      1.0000 0.25400  0.88270  0.80500  Biso   1.000  C
  C11      1.0000 0.25400  0.61730  0.30500  Biso   1.000  C
  C12      1.0000 0.74600  0.11730  0.19500  Biso   1.000  C
  H5       1.0000 0.91640  0.38700  0.72270  Biso   1.000  H
  H6       1.0000 0.08360  0.88700  0.77730  Biso   1.000  H
  H7       1.0000 0.08360  0.61300  0.27730  Biso   1.000  H
  H8       1.0000 0.91640  0.11300  0.22270  Biso   1.000  H
  C13      1.0000 0.63360  0.41070  0.80860  Biso   1.000  C
  C14      1.0000 0.36640  0.91070  0.69140  Biso   1.000  C
  C15      1.0000 0.36640  0.58930  0.19140  Biso   1.000  C
  C16      1.0000 0.63360  0.08930  0.30860  Biso   1.000  C
  C17      1.0000 0.37840  0.40360  0.75880  Biso   1.000  C
  C18      1.0000 0.62160  0.90360  0.74120  Biso   1.000  C
  C19      1.0000 0.62160  0.59640  0.24120  Biso   1.000  C
  C20      1.0000 0.37840  0.09640  0.25880  Biso   1.000  C
  H9       1.0000 0.29950  0.42040  0.83630  Biso   1.000  H
  H10      1.0000 0.70050  0.92040  0.66370  Biso   1.000  H
  H11      1.0000 0.70050  0.57960  0.16370  Biso   1.000  H
  H12      1.0000 0.29950  0.07960  0.33630  Biso   1.000  H
  C21      1.0000 0.24290  0.37110  0.59060  Biso   1.000  C
  C22      1.0000 0.75710  0.87110  0.90940  Biso   1.000  C
  C23      1.0000 0.75710  0.62890  0.40940  Biso   1.000  C
  C24      1.0000 0.24290  0.12890  0.09060  Biso   1.000  C
  H13      1.0000 0.07460  0.36430  0.56580  Biso   1.000  H
  H14      1.0000 0.92540  0.86430  0.93420  Biso   1.000  H
  H15      1.0000 0.92540  0.63570  0.43420  Biso   1.000  H
  H16      1.0000 0.07460  0.13570  0.06580  Biso   1.000  H
  C25      1.0000 0.78500  0.44740  0.98500  Biso   1.000  C
  C26      1.0000 0.21500  0.94740  0.51500  Biso   1.000  C
  C27      1.0000 0.21500  0.55260  0.01500  Biso   1.000  C
  C28      1.0000 0.78500  0.05260  0.48500  Biso   1.000  C
  C29      1.0000 0.72400  0.44920  0.17580  Biso   1.000  C
  C30      1.0000 0.27600  0.94920  0.32420  Biso   1.000  C
  C31      1.0000 0.27600  0.55080  0.82420  Biso   1.000  C
  C32      1.0000 0.72400  0.05080  0.67580  Biso   1.000  C
  H17      1.0000 0.81010  0.47850  0.26290  Biso   1.000  H
  H18      1.0000 0.18990  0.97850  0.23710  Biso   1.000  H
  H19      1.0000 0.18990  0.52150  0.73710  Biso   1.000  H
  H20      1.0000 0.81010  0.02150  0.76290  Biso   1.000  H
  H21      1.0000 0.77800  0.41690  0.25400  Biso   1.000  H
  H22      1.0000 0.22200  0.91690  0.24600  Biso   1.000  H
  H23      1.0000 0.22200  0.58310  0.74600  Biso   1.000  H
  H24      1.0000 0.77800  0.08310  0.75400  Biso   1.000  H
  H25      1.0000 0.54460  0.45330  0.13330  Biso   1.000  H
  H26      1.0000 0.45540  0.95330  0.36670  Biso   1.000  H
  H27      1.0000 0.45540  0.54670  0.86670  Biso   1.000  H
  H28      1.0000 0.54460  0.04670  0.63330  Biso   1.000  H
  C33      1.0000 0.56700  0.34990  0.61400  Biso   1.000  C
  C34      1.0000 0.43300  0.84990  0.88600  Biso   1.000  C
  C35      1.0000 0.43300  0.65010  0.38600  Biso   1.000  C
  C36      1.0000 0.56700  0.15010  0.11400  Biso   1.000  C
  C37      1.0000 0.67900  0.39420  0.73000  Biso   1.000  C
  C38      1.0000 0.32100  0.89420  0.77000  Biso   1.000  C
  C39      1.0000 0.32100  0.60580  0.27000  Biso   1.000  C
  C40      1.0000 0.67900  0.10580  0.23000  Biso   1.000  C
  C41      1.0000 0.56300  0.44350  0.67060  Biso   1.000  C
  C42      1.0000 0.43700  0.94350  0.82940  Biso   1.000  C
  C43      1.0000 0.43700  0.55650  0.32940  Biso   1.000  C
  C44      1.0000 0.56300  0.05650  0.17060  Biso   1.000  C
  C45      1.0000 0.32830  0.44700  0.50260  Biso   1.000  C
  C46      1.0000 0.67170  0.94700  0.99740  Biso   1.000  C
  C47      1.0000 0.67170  0.55300  0.49740  Biso   1.000  C
  C48      1.0000 0.32830  0.05300  0.00260  Biso   1.000  C
  C49      1.0000 0.22440  0.40050  0.39440  Biso   1.000  C
  C50      1.0000 0.77560  0.90050  0.10560  Biso   1.000  C
  C51      1.0000 0.77560  0.59950  0.60560  Biso   1.000  C
  C52      1.0000 0.22440  0.09950  0.89440  Biso   1.000  C
  C53      1.0000 0.69270  0.49010  0.79980  Biso   1.000  C
  C54      1.0000 0.30730  0.99010  0.70020  Biso   1.000  C
  C55      1.0000 0.30730  0.50990  0.20020  Biso   1.000  C
  C56      1.0000 0.69270  0.00990  0.29980  Biso   1.000  C
  C57      1.0000 0.54300  0.53830  0.79800  Biso   1.000  C
  C58      1.0000 0.45700  0.03830  0.70200  Biso   1.000  C
  C59      1.0000 0.45700  0.46170  0.20200  Biso   1.000  C
  C60      1.0000 0.54300  0.96170  0.29800  Biso   1.000  C
  H29      1.0000 0.66040  0.31860  0.64550  Biso   1.000  H
  H30      1.0000 0.33960  0.81860  0.85450  Biso   1.000  H
  H31      1.0000 0.33960  0.68140  0.35450  Biso   1.000  H
  H32      1.0000 0.66040  0.18140  0.14550  Biso   1.000  H
  H33      1.0000 0.83070  0.39130  0.84810  Biso   1.000  H
  H34      1.0000 0.16930  0.89130  0.65190  Biso   1.000  H
  H35      1.0000 0.16930  0.60870  0.15190  Biso   1.000  H
  H36      1.0000 0.83070  0.10870  0.34810  Biso   1.000  H
  H37      1.0000 0.24400  0.47910  0.46390  Biso   1.000  H
  H38      1.0000 0.75600  0.97910  0.03610  Biso   1.000  H
  H39      1.0000 0.75600  0.52090  0.53610  Biso   1.000  H
  H40      1.0000 0.24400  0.02090  0.96390  Biso   1.000  H
  H41      1.0000 0.07540  0.40280  0.27400  Biso   1.000  H
  H42      1.0000 0.92460  0.90280  0.22600  Biso   1.000  H
  H43      1.0000 0.92460  0.59720  0.72600  Biso   1.000  H
  H44      1.0000 0.07540  0.09720  0.77400  Biso   1.000  H
  H45      1.0000 0.63710  0.56010  0.91690  Biso   1.000  H
  H46      1.0000 0.36290  0.06010  0.58310  Biso   1.000  H
  H47      1.0000 0.36290  0.43990  0.08310  Biso   1.000  H
  H48      1.0000 0.63710  0.93990  0.41690  Biso   1.000  H
  H49      1.0000 0.38590  0.52800  0.80590  Biso   1.000  H
  H50      1.0000 0.61410  0.02800  0.69410  Biso   1.000  H
  H51      1.0000 0.61410  0.47200  0.19410  Biso   1.000  H
  H52      1.0000 0.38590  0.97200  0.30590  Biso   1.000  H
  H53      1.0000 0.50790  0.55770  0.67000  Biso   1.000  H
  H54      1.0000 0.49210  0.05770  0.83000  Biso   1.000  H
  H55      1.0000 0.49210  0.44230  0.33000  Biso   1.000  H
  H56      1.0000 0.50790  0.94230  0.17000  Biso   1.000  H
