data_image0
_cell_length_a       26.808
_cell_length_b       8.4927
_cell_length_c       9.6379
_cell_angle_alpha    90
_cell_angle_beta     105.601
_cell_angle_gamma    90

_symmetry_space_group_name_H-M    "P 1"
_symmetry_int_tables_number       1

loop_
  _symmetry_equiv_pos_as_xyz
  'x, y, z'

loop_
  _atom_site_label
  _atom_site_occupancy
  _atom_site_fract_x
  _atom_site_fract_y
  _atom_site_fract_z
  _atom_site_thermal_displace_type
  _atom_site_B_iso_or_equiv
  _atom_site_type_symbol
  Cu1      1.0000 0.00000  0.02385  0.25000  Biso   1.000  Cu
  Cu2      1.0000 0.50000  0.52385  0.25000  Biso   1.000  Cu
  Cu3      1.0000 0.00000  0.97615  0.75000  Biso   1.000  Cu
  Cu4      1.0000 0.50000  0.47615  0.75000  Biso   1.000  Cu
  Cu5      1.0000 0.00000  0.31461  0.75000  Biso   1.000  Cu
  Cu6      1.0000 0.50000  0.81461  0.75000  Biso   1.000  Cu
  Cu7      1.0000 0.00000  0.68539  0.25000  Biso   1.000  Cu
  Cu8      1.0000 0.50000  0.18539  0.25000  Biso   1.000  Cu
  Cu9      1.0000 0.04926  0.14532  0.98768  Biso   1.000  Cu
  Cu10     1.0000 0.95074  0.14532  0.51232  Biso   1.000  Cu
  Cu11     1.0000 0.54926  0.64532  0.98768  Biso   1.000  Cu
  Cu12     1.0000 0.45074  0.64532  0.51232  Biso   1.000  Cu
  Cu13     1.0000 0.95074  0.85468  0.01232  Biso   1.000  Cu
  Cu14     1.0000 0.04926  0.85468  0.48768  Biso   1.000  Cu
  Cu15     1.0000 0.45074  0.35468  0.01232  Biso   1.000  Cu
  Cu16     1.0000 0.54926  0.35468  0.48768  Biso   1.000  Cu
  O1       1.0000 0.06690  0.01410  0.21524  Biso   1.000  O
  O2       1.0000 0.93310  0.01410  0.28476  Biso   1.000  O
  O3       1.0000 0.56690  0.51410  0.21524  Biso   1.000  O
  O4       1.0000 0.43310  0.51410  0.28476  Biso   1.000  O
  O5       1.0000 0.93310  0.98590  0.78476  Biso   1.000  O
  O6       1.0000 0.06690  0.98590  0.71524  Biso   1.000  O
  O7       1.0000 0.43310  0.48590  0.78476  Biso   1.000  O
  O8       1.0000 0.56690  0.48590  0.71524  Biso   1.000  O
  O9       1.0000 0.10755  0.89380  0.42112  Biso   1.000  O
  O10      1.0000 0.89245  0.89380  0.07888  Biso   1.000  O
  O11      1.0000 0.60755  0.39380  0.42112  Biso   1.000  O
  O12      1.0000 0.39245  0.39380  0.07888  Biso   1.000  O
  O13      1.0000 0.89245  0.10620  0.57888  Biso   1.000  O
  O14      1.0000 0.10755  0.10620  0.92112  Biso   1.000  O
  O15      1.0000 0.39245  0.60620  0.57888  Biso   1.000  O
  O16      1.0000 0.60755  0.60620  0.92112  Biso   1.000  O
  O17      1.0000 0.99439  0.21940  0.05787  Biso   1.000  O
  O18      1.0000 0.00561  0.21940  0.44213  Biso   1.000  O
  O19      1.0000 0.49439  0.71940  0.05787  Biso   1.000  O
  O20      1.0000 0.50561  0.71940  0.44213  Biso   1.000  O
  O21      1.0000 0.00561  0.78060  0.94213  Biso   1.000  O
  O22      1.0000 0.99439  0.78060  0.55787  Biso   1.000  O
  O23      1.0000 0.50561  0.28060  0.94213  Biso   1.000  O
  O24      1.0000 0.49439  0.28060  0.55787  Biso   1.000  O
  O25      1.0000 0.95389  0.35534  0.86169  Biso   1.000  O
  O26      1.0000 0.04611  0.35534  0.63831  Biso   1.000  O
  O27      1.0000 0.45389  0.85534  0.86169  Biso   1.000  O
  O28      1.0000 0.54611  0.85534  0.63831  Biso   1.000  O
  O29      1.0000 0.04611  0.64466  0.13831  Biso   1.000  O
  O30      1.0000 0.95389  0.64466  0.36169  Biso   1.000  O
  O31      1.0000 0.54611  0.14466  0.13831  Biso   1.000  O
  O32      1.0000 0.45389  0.14466  0.36169  Biso   1.000  O
  C1       1.0000 0.10643  0.95140  0.29930  Biso   1.000  C
  C2       1.0000 0.89357  0.95140  0.20070  Biso   1.000  C
  C3       1.0000 0.60643  0.45140  0.29930  Biso   1.000  C
  C4       1.0000 0.39357  0.45140  0.20070  Biso   1.000  C
  C5       1.0000 0.89357  0.04860  0.70070  Biso   1.000  C
  C6       1.0000 0.10643  0.04860  0.79930  Biso   1.000  C
  C7       1.0000 0.39357  0.54860  0.70070  Biso   1.000  C
  C8       1.0000 0.60643  0.54860  0.79930  Biso   1.000  C
  C9       1.0000 0.15581  0.95230  0.25390  Biso   1.000  C
  C10      1.0000 0.84419  0.95230  0.24610  Biso   1.000  C
  C11      1.0000 0.65581  0.45230  0.25390  Biso   1.000  C
  C12      1.0000 0.34419  0.45230  0.24610  Biso   1.000  C
  C13      1.0000 0.84419  0.04770  0.74610  Biso   1.000  C
  C14      1.0000 0.15581  0.04770  0.75390  Biso   1.000  C
  C15      1.0000 0.34419  0.54770  0.74610  Biso   1.000  C
  C16      1.0000 0.65581  0.54770  0.75390  Biso   1.000  C
  H1       1.0000 0.14810  0.92270  0.15100  Biso   1.000  H
  H2       1.0000 0.85190  0.92270  0.34900  Biso   1.000  H
  H3       1.0000 0.64810  0.42270  0.15100  Biso   1.000  H
  H4       1.0000 0.35190  0.42270  0.34900  Biso   1.000  H
  H5       1.0000 0.85190  0.07730  0.84900  Biso   1.000  H
  H6       1.0000 0.14810  0.07730  0.65100  Biso   1.000  H
  H7       1.0000 0.35190  0.57730  0.84900  Biso   1.000  H
  H8       1.0000 0.64810  0.57730  0.65100  Biso   1.000  H
  H9       1.0000 0.17970  0.87240  0.31040  Biso   1.000  H
  H10      1.0000 0.82030  0.87240  0.18960  Biso   1.000  H
  H11      1.0000 0.67970  0.37240  0.31040  Biso   1.000  H
  H12      1.0000 0.32030  0.37240  0.18960  Biso   1.000  H
  H13      1.0000 0.82030  0.12760  0.68960  Biso   1.000  H
  H14      1.0000 0.17970  0.12760  0.81040  Biso   1.000  H
  H15      1.0000 0.32030  0.62760  0.68960  Biso   1.000  H
  H16      1.0000 0.67970  0.62760  0.81040  Biso   1.000  H
  C17      1.0000 0.18226  0.11180  0.27550  Biso   1.000  C
  C18      1.0000 0.81774  0.11180  0.22450  Biso   1.000  C
  C19      1.0000 0.68226  0.61180  0.27550  Biso   1.000  C
  C20      1.0000 0.31774  0.61180  0.22450  Biso   1.000  C
  C21      1.0000 0.81774  0.88820  0.72450  Biso   1.000  C
  C22      1.0000 0.18226  0.88820  0.77550  Biso   1.000  C
  C23      1.0000 0.31774  0.38820  0.72450  Biso   1.000  C
  C24      1.0000 0.68226  0.38820  0.77550  Biso   1.000  C
  H17      1.0000 0.19230  0.13790  0.37940  Biso   1.000  H
  H18      1.0000 0.80770  0.13790  0.12060  Biso   1.000  H
  H19      1.0000 0.69230  0.63790  0.37940  Biso   1.000  H
  H20      1.0000 0.30770  0.63790  0.12060  Biso   1.000  H
  H21      1.0000 0.80770  0.86210  0.62060  Biso   1.000  H
  H22      1.0000 0.19230  0.86210  0.87940  Biso   1.000  H
  H23      1.0000 0.30770  0.36210  0.62060  Biso   1.000  H
  H24      1.0000 0.69230  0.36210  0.87940  Biso   1.000  H
  H25      1.0000 0.15750  0.19300  0.22480  Biso   1.000  H
  H26      1.0000 0.84250  0.19300  0.27520  Biso   1.000  H
  H27      1.0000 0.65750  0.69300  0.22480  Biso   1.000  H
  H28      1.0000 0.34250  0.69300  0.27520  Biso   1.000  H
  H29      1.0000 0.84250  0.80700  0.77520  Biso   1.000  H
  H30      1.0000 0.15750  0.80700  0.72480  Biso   1.000  H
  H31      1.0000 0.34250  0.30700  0.77520  Biso   1.000  H
  H32      1.0000 0.65750  0.30700  0.72480  Biso   1.000  H
  C25      1.0000 0.23006  0.11530  0.21950  Biso   1.000  C
  C26      1.0000 0.76994  0.11530  0.28050  Biso   1.000  C
  C27      1.0000 0.73006  0.61530  0.21950  Biso   1.000  C
  C28      1.0000 0.26994  0.61530  0.28050  Biso   1.000  C
  C29      1.0000 0.76994  0.88470  0.78050  Biso   1.000  C
  C30      1.0000 0.23006  0.88470  0.71950  Biso   1.000  C
  C31      1.0000 0.26994  0.38470  0.78050  Biso   1.000  C
  C32      1.0000 0.73006  0.38470  0.71950  Biso   1.000  C
  H33      1.0000 0.25350  0.03000  0.26410  Biso   1.000  H
  H34      1.0000 0.74650  0.03000  0.23590  Biso   1.000  H
  H35      1.0000 0.75350  0.53000  0.26410  Biso   1.000  H
  H36      1.0000 0.24650  0.53000  0.23590  Biso   1.000  H
  H37      1.0000 0.74650  0.97000  0.73590  Biso   1.000  H
  H38      1.0000 0.25350  0.97000  0.76410  Biso   1.000  H
  H39      1.0000 0.24650  0.47000  0.73590  Biso   1.000  H
  H40      1.0000 0.75350  0.47000  0.76410  Biso   1.000  H
  H41      1.0000 0.24770  0.21670  0.24350  Biso   1.000  H
  H42      1.0000 0.75230  0.21670  0.25650  Biso   1.000  H
  H43      1.0000 0.74770  0.71670  0.24350  Biso   1.000  H
  H44      1.0000 0.25230  0.71670  0.25650  Biso   1.000  H
  H45      1.0000 0.75230  0.78330  0.75650  Biso   1.000  H
  H46      1.0000 0.24770  0.78330  0.74350  Biso   1.000  H
  H47      1.0000 0.25230  0.28330  0.75650  Biso   1.000  H
  H48      1.0000 0.74770  0.28330  0.74350  Biso   1.000  H
  H49      1.0000 0.21980  0.10140  0.11470  Biso   1.000  H
  H50      1.0000 0.78020  0.10140  0.38530  Biso   1.000  H
  H51      1.0000 0.71980  0.60140  0.11470  Biso   1.000  H
  H52      1.0000 0.28020  0.60140  0.38530  Biso   1.000  H
  H53      1.0000 0.78020  0.89860  0.88530  Biso   1.000  H
  H54      1.0000 0.21980  0.89860  0.61470  Biso   1.000  H
  H55      1.0000 0.28020  0.39860  0.88530  Biso   1.000  H
  H56      1.0000 0.71980  0.39860  0.61470  Biso   1.000  H
  C33      1.0000 0.95819  0.30870  0.98750  Biso   1.000  C
  C34      1.0000 0.04181  0.30870  0.51250  Biso   1.000  C
  C35      1.0000 0.45819  0.80870  0.98750  Biso   1.000  C
  C36      1.0000 0.54181  0.80870  0.51250  Biso   1.000  C
  C37      1.0000 0.04181  0.69130  0.01250  Biso   1.000  C
  C38      1.0000 0.95819  0.69130  0.48750  Biso   1.000  C
  C39      1.0000 0.54181  0.19130  0.01250  Biso   1.000  C
  C40      1.0000 0.45819  0.19130  0.48750  Biso   1.000  C
  C41      1.0000 0.91815  0.35910  0.06160  Biso   1.000  C
  C42      1.0000 0.08185  0.35910  0.43840  Biso   1.000  C
  C43      1.0000 0.41815  0.85910  0.06160  Biso   1.000  C
  C44      1.0000 0.58185  0.85910  0.43840  Biso   1.000  C
  C45      1.0000 0.08185  0.64090  0.93840  Biso   1.000  C
  C46      1.0000 0.91815  0.64090  0.56160  Biso   1.000  C
  C47      1.0000 0.58185  0.14090  0.93840  Biso   1.000  C
  C48      1.0000 0.41815  0.14090  0.56160  Biso   1.000  C
  H57      1.0000 0.93610  0.40850  0.15460  Biso   1.000  H
  H58      1.0000 0.06390  0.40850  0.34540  Biso   1.000  H
  H59      1.0000 0.43610  0.90850  0.15460  Biso   1.000  H
  H60      1.0000 0.56390  0.90850  0.34540  Biso   1.000  H
  H61      1.0000 0.06390  0.59150  0.84540  Biso   1.000  H
  H62      1.0000 0.93610  0.59150  0.65460  Biso   1.000  H
  H63      1.0000 0.56390  0.09150  0.84540  Biso   1.000  H
  H64      1.0000 0.43610  0.09150  0.65460  Biso   1.000  H
  H65      1.0000 0.90030  0.26390  0.08320  Biso   1.000  H
  H66      1.0000 0.09970  0.26390  0.41680  Biso   1.000  H
  H67      1.0000 0.40030  0.76390  0.08320  Biso   1.000  H
  H68      1.0000 0.59970  0.76390  0.41680  Biso   1.000  H
  H69      1.0000 0.09970  0.73610  0.91680  Biso   1.000  H
  H70      1.0000 0.90030  0.73610  0.58320  Biso   1.000  H
  H71      1.0000 0.59970  0.23610  0.91680  Biso   1.000  H
  H72      1.0000 0.40030  0.23610  0.58320  Biso   1.000  H
  C49      1.0000 0.87802  0.47200  0.97850  Biso   1.000  C
  C50      1.0000 0.12198  0.47200  0.52150  Biso   1.000  C
  C51      1.0000 0.37802  0.97200  0.97850  Biso   1.000  C
  C52      1.0000 0.62198  0.97200  0.52150  Biso   1.000  C
  C53      1.0000 0.12198  0.52800  0.02150  Biso   1.000  C
  C54      1.0000 0.87802  0.52800  0.47850  Biso   1.000  C
  C55      1.0000 0.62198  0.02800  0.02150  Biso   1.000  C
  C56      1.0000 0.37802  0.02800  0.47850  Biso   1.000  C
  H73      1.0000 0.89570  0.56590  0.95360  Biso   1.000  H
  H74      1.0000 0.10430  0.56590  0.54640  Biso   1.000  H
  H75      1.0000 0.39570  0.06590  0.95360  Biso   1.000  H
  H76      1.0000 0.60430  0.06590  0.54640  Biso   1.000  H
  H77      1.0000 0.10430  0.43410  0.04640  Biso   1.000  H
  H78      1.0000 0.89570  0.43410  0.45360  Biso   1.000  H
  H79      1.0000 0.60430  0.93410  0.04640  Biso   1.000  H
  H80      1.0000 0.39570  0.93410  0.45360  Biso   1.000  H
  H81      1.0000 0.85880  0.42130  0.88730  Biso   1.000  H
  H82      1.0000 0.14120  0.42130  0.61270  Biso   1.000  H
  H83      1.0000 0.35880  0.92130  0.88730  Biso   1.000  H
  H84      1.0000 0.64120  0.92130  0.61270  Biso   1.000  H
  H85      1.0000 0.14120  0.57870  0.11270  Biso   1.000  H
  H86      1.0000 0.85880  0.57870  0.38730  Biso   1.000  H
  H87      1.0000 0.64120  0.07870  0.11270  Biso   1.000  H
  H88      1.0000 0.35880  0.07870  0.38730  Biso   1.000  H
  C57      1.0000 0.83953  0.52480  0.05960  Biso   1.000  C
  C58      1.0000 0.16047  0.52480  0.44040  Biso   1.000  C
  C59      1.0000 0.33953  0.02480  0.05960  Biso   1.000  C
  C60      1.0000 0.66047  0.02480  0.44040  Biso   1.000  C
  C61      1.0000 0.16047  0.47520  0.94040  Biso   1.000  C
  C62      1.0000 0.83953  0.47520  0.55960  Biso   1.000  C
  C63      1.0000 0.66047  0.97520  0.94040  Biso   1.000  C
  C64      1.0000 0.33953  0.97520  0.55960  Biso   1.000  C
  H89      1.0000 0.85800  0.57820  0.14870  Biso   1.000  H
  H90      1.0000 0.14200  0.57820  0.35130  Biso   1.000  H
  H91      1.0000 0.35800  0.07820  0.14870  Biso   1.000  H
  H92      1.0000 0.64200  0.07820  0.35130  Biso   1.000  H
  H93      1.0000 0.14200  0.42180  0.85130  Biso   1.000  H
  H94      1.0000 0.85800  0.42180  0.64870  Biso   1.000  H
  H95      1.0000 0.64200  0.92180  0.85130  Biso   1.000  H
  H96      1.0000 0.35800  0.92180  0.64870  Biso   1.000  H
  H97      1.0000 0.81440  0.59740  0.99930  Biso   1.000  H
  H98      1.0000 0.18560  0.59740  0.50070  Biso   1.000  H
  H99      1.0000 0.31440  0.09740  0.99930  Biso   1.000  H
  H100     1.0000 0.68560  0.09740  0.50070  Biso   1.000  H
  H101     1.0000 0.18560  0.40260  0.00070  Biso   1.000  H
  H102     1.0000 0.81440  0.40260  0.49930  Biso   1.000  H
  H103     1.0000 0.68560  0.90260  0.00070  Biso   1.000  H
  H104     1.0000 0.31440  0.90260  0.49930  Biso   1.000  H
  H105     1.0000 0.82130  0.43270  0.08310  Biso   1.000  H
  H106     1.0000 0.17870  0.43270  0.41690  Biso   1.000  H
  H107     1.0000 0.32130  0.93270  0.08310  Biso   1.000  H
  H108     1.0000 0.67870  0.93270  0.41690  Biso   1.000  H
  H109     1.0000 0.17870  0.56730  0.91690  Biso   1.000  H
  H110     1.0000 0.82130  0.56730  0.58310  Biso   1.000  H
  H111     1.0000 0.67870  0.06730  0.91690  Biso   1.000  H
  H112     1.0000 0.32130  0.06730  0.58310  Biso   1.000  H
