data_image0
_cell_length_a       11.478
_cell_length_b       21.365
_cell_length_c       22.424
_cell_angle_alpha    93.953
_cell_angle_beta     104.442
_cell_angle_gamma    101.788

_symmetry_space_group_name_H-M    "P 1"
_symmetry_int_tables_number       1

loop_
  _symmetry_equiv_pos_as_xyz
  'x, y, z'

loop_
  _atom_site_label
  _atom_site_occupancy
  _atom_site_fract_x
  _atom_site_fract_y
  _atom_site_fract_z
  _atom_site_thermal_displace_type
  _atom_site_B_iso_or_equiv
  _atom_site_type_symbol
  Ti1      1.0000 0.34430  0.14804  0.19400  Biso   1.000  Ti
  Ti2      1.0000 0.65570  0.85196  0.80600  Biso   1.000  Ti
  Ti3      1.0000 0.26370  0.05713  0.28381  Biso   1.000  Ti
  Ti4      1.0000 0.73630  0.94287  0.71619  Biso   1.000  Ti
  Ti5      1.0000 0.74440  0.68484  0.31961  Biso   1.000  Ti
  Ti6      1.0000 0.25560  0.31516  0.68039  Biso   1.000  Ti
  Ti7      1.0000 0.54470  0.11989  0.33665  Biso   1.000  Ti
  Ti8      1.0000 0.45530  0.88011  0.66335  Biso   1.000  Ti
  Ti9      1.0000 0.82390  0.55603  0.23569  Biso   1.000  Ti
  Ti10     1.0000 0.17610  0.44397  0.76431  Biso   1.000  Ti
  Ti11     1.0000 0.71730  0.54251  0.34829  Biso   1.000  Ti
  Ti12     1.0000 0.28270  0.45749  0.65171  Biso   1.000  Ti
  Cu1      1.0000 0.32356  0.79794  0.05874  Biso   1.000  Cu
  Cu2      1.0000 0.67644  0.20206  0.94126  Biso   1.000  Cu
  Cu3      1.0000 0.25059  0.66939  0.05271  Biso   1.000  Cu
  Cu4      1.0000 0.74941  0.33061  0.94729  Biso   1.000  Cu
  Cu5      1.0000 0.08995  0.74274  0.03479  Biso   1.000  Cu
  Cu6      1.0000 0.91005  0.25726  0.96521  Biso   1.000  Cu
  Cu7      1.0000 0.21168  0.72436  0.95400  Biso   1.000  Cu
  Cu8      1.0000 0.78832  0.27564  0.04600  Biso   1.000  Cu
  I1       1.0000 0.44404  0.72530  0.00826  Biso   1.000  I
  I2       1.0000 0.55596  0.27470  0.99174  Biso   1.000  I
  I3       1.0000 0.03573  0.62805  0.96878  Biso   1.000  I
  I4       1.0000 0.96427  0.37195  0.03122  Biso   1.000  I
  I5       1.0000 0.15391  0.84275  0.97827  Biso   1.000  I
  I6       1.0000 0.84609  0.15725  0.02173  Biso   1.000  I
  I7       1.0000 0.25032  0.74598  0.15131  Biso   1.000  I
  I8       1.0000 0.74968  0.25402  0.84869  Biso   1.000  I
  O1       1.0000 0.79750  0.60550  0.30070  Biso   1.000  O
  O2       1.0000 0.20250  0.39450  0.69930  Biso   1.000  O
  O3       1.0000 0.96210  0.53710  0.23350  Biso   1.000  O
  O4       1.0000 0.03790  0.46290  0.76650  Biso   1.000  O
  O5       1.0000 0.86490  0.64000  0.19900  Biso   1.000  O
  O6       1.0000 0.13510  0.36000  0.80100  Biso   1.000  O
  O7       1.0000 0.88950  0.72640  0.37110  Biso   1.000  O
  O8       1.0000 0.11050  0.27360  0.62890  Biso   1.000  O
  O9       1.0000 0.55900  0.53640  0.26930  Biso   1.000  O
  O10      1.0000 0.44100  0.46360  0.73070  Biso   1.000  O
  O11      1.0000 0.58640  0.63830  0.24940  Biso   1.000  O
  O12      1.0000 0.41360  0.36170  0.75060  Biso   1.000  O
  O13      1.0000 0.70190  0.52470  0.16810  Biso   1.000  O
  O14      1.0000 0.29810  0.47530  0.83190  Biso   1.000  O
  O15      1.0000 0.68150  0.62680  0.37450  Biso   1.000  O
  O16      1.0000 0.31850  0.37320  0.62550  Biso   1.000  O
  O17      1.0000 0.79750  0.71700  0.24340  Biso   1.000  O
  O18      1.0000 0.20250  0.28300  0.75660  Biso   1.000  O
  O19      1.0000 0.66300  0.74750  0.32430  Biso   1.000  O
  O20      1.0000 0.33700  0.25250  0.67570  Biso   1.000  O
  O21      1.0000 0.61590  0.48400  0.37450  Biso   1.000  O
  O22      1.0000 0.38410  0.51600  0.62550  Biso   1.000  O
  O23      1.0000 0.77330  0.49070  0.28720  Biso   1.000  O
  O24      1.0000 0.22670  0.50930  0.71280  Biso   1.000  O
  O25      1.0000 0.84990  0.55010  0.41250  Biso   1.000  O
  O26      1.0000 0.15010  0.44990  0.58750  Biso   1.000  O
  O27      1.0000 0.34910  0.00250  0.22600  Biso   1.000  O
  O28      1.0000 0.65090  0.99750  0.77400  Biso   1.000  O
  O29      1.0000 0.54960  0.05470  0.26290  Biso   1.000  O
  O30      1.0000 0.45040  0.94530  0.73710  Biso   1.000  O
  O31      1.0000 0.41280  0.05230  0.35160  Biso   1.000  O
  O32      1.0000 0.58720  0.94770  0.64840  Biso   1.000  O
  O33      1.0000 0.39790  0.13110  0.27530  Biso   1.000  O
  O34      1.0000 0.60210  0.86890  0.72470  Biso   1.000  O
  O35      1.0000 0.20390  0.10480  0.33220  Biso   1.000  O
  O36      1.0000 0.79610  0.89520  0.66780  Biso   1.000  O
  O37      1.0000 0.16190  0.98300  0.28090  Biso   1.000  O
  O38      1.0000 0.83810  0.01700  0.71910  Biso   1.000  O
  O39      1.0000 0.19610  0.08800  0.20290  Biso   1.000  O
  O40      1.0000 0.80390  0.91200  0.79710  Biso   1.000  O
  O41      1.0000 0.35210  0.81730  0.70620  Biso   1.000  O
  O42      1.0000 0.64790  0.18270  0.29380  Biso   1.000  O
  O43      1.0000 0.67510  0.09160  0.37740  Biso   1.000  O
  O44      1.0000 0.32490  0.90840  0.62260  Biso   1.000  O
  O45      1.0000 0.55370  0.18040  0.39680  Biso   1.000  O
  O46      1.0000 0.44630  0.81960  0.60320  Biso   1.000  O
  O47      1.0000 0.28350  0.21760  0.18460  Biso   1.000  O
  O48      1.0000 0.71650  0.78240  0.81540  Biso   1.000  O
  O49      1.0000 0.33760  0.10680  0.12210  Biso   1.000  O
  O50      1.0000 0.66240  0.89320  0.87790  Biso   1.000  O
  O51      1.0000 0.47750  0.80740  0.79780  Biso   1.000  O
  O52      1.0000 0.52250  0.19260  0.20220  Biso   1.000  O
  N1       1.0000 0.30210  0.59250  0.09130  Biso   1.000  N
  N2       1.0000 0.69790  0.40750  0.90870  Biso   1.000  N
  N3       1.0000 0.44610  0.87870  0.10700  Biso   1.000  N
  N4       1.0000 0.55390  0.12130  0.89300  Biso   1.000  N
  N5       1.0000 0.95180  0.75520  0.07010  Biso   1.000  N
  N6       1.0000 0.04820  0.24480  0.92990  Biso   1.000  N
  N7       1.0000 0.18560  0.72450  0.86180  Biso   1.000  N
  N8       1.0000 0.81440  0.27550  0.13820  Biso   1.000  N
  C1       1.0000 0.76030  0.42320  0.27410  Biso   1.000  C
  C2       1.0000 0.23970  0.57680  0.72590  Biso   1.000  C
  H1       1.0000 0.80920  0.41670  0.24500  Biso   1.000  H
  H2       1.0000 0.19080  0.58330  0.75500  Biso   1.000  H
  C3       1.0000 0.53060  0.57940  0.23610  Biso   1.000  C
  C4       1.0000 0.46940  0.42060  0.76390  Biso   1.000  C
  C5       1.0000 0.41680  0.91690  0.14640  Biso   1.000  C
  C6       1.0000 0.58320  0.08310  0.85360  Biso   1.000  C
  H3       1.0000 0.33610  0.90770  0.14990  Biso   1.000  H
  H4       1.0000 0.66390  0.09230  0.85010  Biso   1.000  H
  C7       1.0000 0.50090  0.97100  0.18360  Biso   1.000  C
  C8       1.0000 0.49910  0.02900  0.81640  Biso   1.000  C
  C9       1.0000 0.46270  0.01220  0.22720  Biso   1.000  C
  C10      1.0000 0.53730  0.98780  0.77280  Biso   1.000  C
  C11      1.0000 0.56250  0.89250  0.10320  Biso   1.000  C
  C12      1.0000 0.43750  0.10750  0.89680  Biso   1.000  C
  H5       1.0000 0.58390  0.86750  0.07380  Biso   1.000  H
  H6       1.0000 0.41610  0.13250  0.92620  Biso   1.000  H
  C13      1.0000 0.37520  0.80070  0.76050  Biso   1.000  C
  C14      1.0000 0.62480  0.19930  0.23950  Biso   1.000  C
  C15      1.0000 0.76260  0.05420  0.36990  Biso   1.000  C
  C16      1.0000 0.23740  0.94580  0.63010  Biso   1.000  C
  H7       1.0000 0.71850  0.01730  0.33840  Biso   1.000  H
  H8       1.0000 0.28150  0.98270  0.66160  Biso   1.000  H
  C17      1.0000 0.07810  0.70810  0.82300  Biso   1.000  C
  C18      1.0000 0.92190  0.29190  0.17700  Biso   1.000  C
  H9       1.0000 0.01230  0.68760  0.83700  Biso   1.000  H
  H10      1.0000 0.98770  0.31240  0.16300  Biso   1.000  H
  C19      1.0000 0.28050  0.75280  0.84030  Biso   1.000  C
  C20      1.0000 0.71950  0.24720  0.15970  Biso   1.000  C
  H11      1.0000 0.35960  0.76310  0.86730  Biso   1.000  H
  H12      1.0000 0.64040  0.23690  0.13270  Biso   1.000  H
  C21      1.0000 0.26660  0.76740  0.78020  Biso   1.000  C
  C22      1.0000 0.73340  0.23260  0.21980  Biso   1.000  C
  C23      1.0000 0.15010  0.74920  0.74060  Biso   1.000  C
  C24      1.0000 0.84990  0.25080  0.25940  Biso   1.000  C
  H13      1.0000 0.13630  0.75740  0.69950  Biso   1.000  H
  H14      1.0000 0.86370  0.24260  0.30050  Biso   1.000  H
  C25      1.0000 0.83760  0.69470  0.20220  Biso   1.000  C
  C26      1.0000 0.16240  0.30530  0.79780  Biso   1.000  C
  C27      1.0000 0.85480  0.73360  0.15120  Biso   1.000  C
  C28      1.0000 0.14520  0.26640  0.84880  Biso   1.000  C
  C29      1.0000 0.61840  0.98110  0.18000  Biso   1.000  C
  C30      1.0000 0.38160  0.01890  0.82000  Biso   1.000  C
  H15      1.0000 0.67740  0.01560  0.20490  Biso   1.000  H
  H16      1.0000 0.32260  0.98440  0.79510  Biso   1.000  H
  C31      1.0000 0.92280  0.71820  0.11310  Biso   1.000  C
  C32      1.0000 0.07720  0.28180  0.88690  Biso   1.000  C
  H17      1.0000 0.95060  0.68040  0.11680  Biso   1.000  H
  H18      1.0000 0.04940  0.31960  0.88320  Biso   1.000  H
  C33      1.0000 0.09690  0.91890  0.28250  Biso   1.000  C
  C34      1.0000 0.90310  0.08110  0.71750  Biso   1.000  C
  H19      1.0000 0.12570  0.90660  0.32390  Biso   1.000  H
  H20      1.0000 0.87430  0.09340  0.67610  Biso   1.000  H
  C35      1.0000 0.96220  0.91690  0.26910  Biso   1.000  C
  C36      1.0000 0.03780  0.08310  0.73090  Biso   1.000  C
  H21      1.0000 0.94830  0.94570  0.30000  Biso   1.000  H
  H22      1.0000 0.05170  0.05430  0.70000  Biso   1.000  H
  H23      1.0000 0.91780  0.87390  0.26980  Biso   1.000  H
  H24      1.0000 0.08220  0.12610  0.73020  Biso   1.000  H
  H25      1.0000 0.93390  0.92990  0.22890  Biso   1.000  H
  H26      1.0000 0.06610  0.07010  0.77110  Biso   1.000  H
  C37      1.0000 0.43190  0.56020  0.17780  Biso   1.000  C
  C38      1.0000 0.56810  0.43980  0.82220  Biso   1.000  C
  C39      1.0000 0.38030  0.49720  0.15610  Biso   1.000  C
  C40      1.0000 0.61970  0.50280  0.84390  Biso   1.000  C
  H27      1.0000 0.40850  0.46480  0.17710  Biso   1.000  H
  H28      1.0000 0.59150  0.53520  0.82290  Biso   1.000  H
  C41      1.0000 0.28540  0.48220  0.10220  Biso   1.000  C
  C42      1.0000 0.71460  0.51780  0.89780  Biso   1.000  C
  H29      1.0000 0.24670  0.43940  0.08680  Biso   1.000  H
  H30      1.0000 0.75330  0.56060  0.91320  Biso   1.000  H
  C43      1.0000 0.24820  0.53160  0.07110  Biso   1.000  C
  C44      1.0000 0.75180  0.46840  0.92890  Biso   1.000  C
  H31      1.0000 0.18340  0.52150  0.03500  Biso   1.000  H
  H32      1.0000 0.81660  0.47850  0.96500  Biso   1.000  H
  C45      1.0000 0.80550  0.78630  0.14380  Biso   1.000  C
  C46      1.0000 0.19450  0.21370  0.85620  Biso   1.000  C
  H33      1.0000 0.75920  0.79800  0.16960  Biso   1.000  H
  H34      1.0000 0.24080  0.20200  0.83040  Biso   1.000  H
  C47      1.0000 0.82680  0.82220  0.09630  Biso   1.000  C
  C48      1.0000 0.17320  0.17780  0.90370  Biso   1.000  C
  H35      1.0000 0.78950  0.85660  0.08780  Biso   1.000  H
  H36      1.0000 0.21050  0.14340  0.91220  Biso   1.000  H
  C49      1.0000 0.05450  0.71890  0.76170  Biso   1.000  C
  C50      1.0000 0.94550  0.28110  0.23830  Biso   1.000  C
  H37      1.0000 0.97500  0.70590  0.73530  Biso   1.000  H
  H38      1.0000 0.02500  0.29410  0.26470  Biso   1.000  H
  C51      1.0000 0.35520  0.06900  0.07610  Biso   1.000  C
  C52      1.0000 0.64480  0.93100  0.92390  Biso   1.000  C
  H39      1.0000 0.34390  0.02580  0.08920  Biso   1.000  H
  H40      1.0000 0.65610  0.97420  0.91080  Biso   1.000  H
  C53      1.0000 0.23820  0.26150  0.14580  Biso   1.000  C
  C54      1.0000 0.76180  0.73850  0.85420  Biso   1.000  C
  H41      1.0000 0.14890  0.24480  0.12880  Biso   1.000  H
  H42      1.0000 0.85110  0.75520  0.87120  Biso   1.000  H
  C55      1.0000 0.90350  0.80640  0.06190  Biso   1.000  C
  C56      1.0000 0.09650  0.19360  0.93810  Biso   1.000  C
  H43      1.0000 0.92190  0.83240  0.03230  Biso   1.000  H
  H44      1.0000 0.07810  0.16760  0.96770  Biso   1.000  H
  C57      1.0000 0.86010  0.09260  0.34690  Biso   1.000  C
  C58      1.0000 0.13990  0.90740  0.65310  Biso   1.000  C
  H45      1.0000 0.82350  0.10660  0.30830  Biso   1.000  H
  H46      1.0000 0.17650  0.89340  0.69170  Biso   1.000  H
  H47      1.0000 0.91630  0.06670  0.34050  Biso   1.000  H
  H48      1.0000 0.08370  0.93330  0.65950  Biso   1.000  H
  H49      1.0000 0.90430  0.12950  0.37670  Biso   1.000  H
  H50      1.0000 0.09570  0.87050  0.62330  Biso   1.000  H
  C59      1.0000 0.65250  0.94220  0.14090  Biso   1.000  C
  C60      1.0000 0.34750  0.05780  0.85910  Biso   1.000  C
  H51      1.0000 0.73430  0.94860  0.13950  Biso   1.000  H
  H52      1.0000 0.26570  0.05140  0.86050  Biso   1.000  H
  C61      1.0000 0.25790  0.32430  0.18710  Biso   1.000  C
  C62      1.0000 0.74210  0.67570  0.81290  Biso   1.000  C
  H53      1.0000 0.23420  0.31530  0.22430  Biso   1.000  H
  H54      1.0000 0.76580  0.68470  0.77570  Biso   1.000  H
  H55      1.0000 0.20830  0.35110  0.16530  Biso   1.000  H
  H56      1.0000 0.79170  0.64890  0.83470  Biso   1.000  H
  H57      1.0000 0.34350  0.34620  0.19760  Biso   1.000  H
  H58      1.0000 0.65650  0.65380  0.80240  Biso   1.000  H
  C63      1.0000 0.26040  0.06210  0.01760  Biso   1.000  C
  C64      1.0000 0.73960  0.93790  0.98240  Biso   1.000  C
  H59      1.0000 0.18160  0.04180  0.02300  Biso   1.000  H
  H60      1.0000 0.81840  0.95820  0.97700  Biso   1.000  H
  H61      1.0000 0.27980  0.03610  0.98640  Biso   1.000  H
  H62      1.0000 0.72020  0.96390  0.01360  Biso   1.000  H
  H63      1.0000 0.25750  0.10390  0.00490  Biso   1.000  H
  H64      1.0000 0.74250  0.89610  0.99510  Biso   1.000  H
  C65      1.0000 0.64050  0.20800  0.45560  Biso   1.000  C
  C66      1.0000 0.35950  0.79200  0.54440  Biso   1.000  C
  H65      1.0000 0.70950  0.18660  0.46450  Biso   1.000  H
  H66      1.0000 0.29050  0.81340  0.53550  Biso   1.000  H
  C67      1.0000 0.62840  0.39000  0.24280  Biso   1.000  C
  C68      1.0000 0.37160  0.61000  0.75720  Biso   1.000  C
  H67      1.0000 0.58160  0.38670  0.27290  Biso   1.000  H
  H68      1.0000 0.41840  0.61330  0.72710  Biso   1.000  H
  H69      1.0000 0.62500  0.34760  0.22420  Biso   1.000  H
  H70      1.0000 0.37500  0.65240  0.77580  Biso   1.000  H
  H71      1.0000 0.59410  0.41440  0.21130  Biso   1.000  H
  H72      1.0000 0.40590  0.58560  0.78870  Biso   1.000  H
  C69      1.0000 0.43760  0.94620  0.37030  Biso   1.000  C
  C70      1.0000 0.56240  0.05380  0.62970  Biso   1.000  C
  C71      1.0000 0.23840  0.16560  0.36700  Biso   1.000  C
  C72      1.0000 0.76160  0.83440  0.63300  Biso   1.000  C
  H73      1.0000 0.32820  0.18050  0.37520  Biso   1.000  H
  H74      1.0000 0.67180  0.81950  0.62480  Biso   1.000  H
  C73      1.0000 0.48330  0.08400  0.06990  Biso   1.000  C
  C74      1.0000 0.51670  0.91600  0.93010  Biso   1.000  C
  H75      1.0000 0.49780  0.12350  0.05210  Biso   1.000  H
  H76      1.0000 0.50220  0.87650  0.94790  Biso   1.000  H
  H77      1.0000 0.49440  0.04960  0.04350  Biso   1.000  H
  H78      1.0000 0.50560  0.95040  0.95650  Biso   1.000  H
  H79      1.0000 0.54060  0.08850  0.11010  Biso   1.000  H
  H80      1.0000 0.45940  0.91150  0.88990  Biso   1.000  H
  C75      1.0000 0.56210  0.77210  0.29380  Biso   1.000  C
  C76      1.0000 0.43790  0.22790  0.70620  Biso   1.000  C
  C77      1.0000 0.81440  0.39580  0.33330  Biso   1.000  C
  C78      1.0000 0.18560  0.60420  0.66670  Biso   1.000  C
  H81      1.0000 0.89790  0.41950  0.35190  Biso   1.000  H
  H82      1.0000 0.10210  0.58050  0.64810  Biso   1.000  H
  H83      1.0000 0.81360  0.35120  0.32330  Biso   1.000  H
  H84      1.0000 0.18640  0.64880  0.67670  Biso   1.000  H
  H85      1.0000 0.76570  0.39940  0.36200  Biso   1.000  H
  H86      1.0000 0.23430  0.60060  0.63800  Biso   1.000  H
  C79      1.0000 0.07760  0.07460  0.15690  Biso   1.000  C
  C80      1.0000 0.92240  0.92540  0.84310  Biso   1.000  C
  H87      1.0000 0.08340  0.10350  0.12510  Biso   1.000  H
  H88      1.0000 0.91660  0.89650  0.87490  Biso   1.000  H
  C81      1.0000 0.05080  0.00600  0.12660  Biso   1.000  C
  C82      1.0000 0.94920  0.99400  0.87340  Biso   1.000  C
  H89      1.0000 0.11120  0.00180  0.10470  Biso   1.000  H
  H90      1.0000 0.88880  0.99820  0.89530  Biso   1.000  H
  H91      1.0000 0.96990  0.99530  0.09800  Biso   1.000  H
  H92      1.0000 0.03010  0.00470  0.90200  Biso   1.000  H
  H93      1.0000 0.05420  0.97740  0.15790  Biso   1.000  H
  H94      1.0000 0.94580  0.02260  0.84210  Biso   1.000  H
  C83      1.0000 0.98220  0.08730  0.18570  Biso   1.000  C
  C84      1.0000 0.01780  0.91270  0.81430  Biso   1.000  C
  H95      1.0000 0.97730  0.06050  0.21810  Biso   1.000  H
  H96      1.0000 0.02270  0.93950  0.78190  Biso   1.000  H
  H97      1.0000 0.90390  0.07790  0.15500  Biso   1.000  H
  H98      1.0000 0.09610  0.92210  0.84500  Biso   1.000  H
  H99      1.0000 0.00270  0.13180  0.20300  Biso   1.000  H
  H100     1.0000 0.99730  0.86820  0.79700  Biso   1.000  H
  C85      1.0000 0.80930  0.02800  0.43100  Biso   1.000  C
  C86      1.0000 0.19070  0.97200  0.56900  Biso   1.000  C
  H101     1.0000 0.85160  0.06320  0.46300  Biso   1.000  H
  H102     1.0000 0.14840  0.93680  0.53700  Biso   1.000  H
  H103     1.0000 0.86520  0.00140  0.42600  Biso   1.000  H
  H104     1.0000 0.13480  0.99860  0.57400  Biso   1.000  H
  H105     1.0000 0.74060  0.00280  0.44230  Biso   1.000  H
  H106     1.0000 0.25940  0.99720  0.55770  Biso   1.000  H
  C87      1.0000 0.66550  0.50430  0.10450  Biso   1.000  C
  C88      1.0000 0.33450  0.49570  0.89550  Biso   1.000  C
  C89      1.0000 0.64540  0.55610  0.06750  Biso   1.000  C
  C90      1.0000 0.35460  0.44390  0.93250  Biso   1.000  C
  H107     1.0000 0.59790  0.58120  0.08440  Biso   1.000  H
  H108     1.0000 0.40210  0.41880  0.91560  Biso   1.000  H
  H109     1.0000 0.60140  0.53830  0.02550  Biso   1.000  H
  H110     1.0000 0.39860  0.46170  0.97450  Biso   1.000  H
  H111     1.0000 0.72370  0.58320  0.06820  Biso   1.000  H
  H112     1.0000 0.27630  0.41680  0.93180  Biso   1.000  H
  C91      1.0000 0.70300  0.45150  0.08540  Biso   1.000  C
  C92      1.0000 0.29700  0.54850  0.91460  Biso   1.000  C
  H113     1.0000 0.71420  0.42490  0.11830  Biso   1.000  H
  H114     1.0000 0.28580  0.57510  0.88170  Biso   1.000  H
  H115     1.0000 0.77960  0.46510  0.07500  Biso   1.000  H
  H116     1.0000 0.22040  0.53490  0.92500  Biso   1.000  H
  H117     1.0000 0.64130  0.42740  0.04960  Biso   1.000  H
  H118     1.0000 0.35870  0.57260  0.95040  Biso   1.000  H
  C93      1.0000 0.96500  0.59460  0.43710  Biso   1.000  C
  C94      1.0000 0.03500  0.40540  0.56290  Biso   1.000  C
  H119     1.0000 0.95720  0.63670  0.42420  Biso   1.000  H
  H120     1.0000 0.04280  0.36330  0.57580  Biso   1.000  H
  C95      1.0000 0.06140  0.57600  0.41660  Biso   1.000  C
  C96      1.0000 0.93860  0.42400  0.58340  Biso   1.000  C
  H121     1.0000 0.11220  0.55900  0.44940  Biso   1.000  H
  H122     1.0000 0.88780  0.44100  0.55060  Biso   1.000  H
  H123     1.0000 0.11070  0.61280  0.40520  Biso   1.000  H
  H124     1.0000 0.88930  0.38720  0.59480  Biso   1.000  H
  H125     1.0000 0.02670  0.54360  0.38120  Biso   1.000  H
  H126     1.0000 0.97330  0.45640  0.61880  Biso   1.000  H
  C97      1.0000 0.99200  0.59980  0.50680  Biso   1.000  C
  C98      1.0000 0.00800  0.40020  0.49320  Biso   1.000  C
  H127     1.0000 0.93110  0.61810  0.51980  Biso   1.000  H
  H128     1.0000 0.06890  0.38190  0.48020  Biso   1.000  H
  H129     1.0000 0.07250  0.62700  0.52530  Biso   1.000  H
  H130     1.0000 0.92750  0.37300  0.47470  Biso   1.000  H
  H131     1.0000 0.98900  0.55770  0.51960  Biso   1.000  H
  H132     1.0000 0.01100  0.44230  0.48040  Biso   1.000  H
  C99      1.0000 0.95300  0.81610  0.44610  Biso   1.000  C
  C100     1.0000 0.04700  0.18390  0.55390  Biso   1.000  C
  H133     1.0000 0.91120  0.78370  0.46610  Biso   1.000  H
  H134     1.0000 0.08880  0.21630  0.53390  Biso   1.000  H
  H135     1.0000 0.90230  0.84650  0.43470  Biso   1.000  H
  H136     1.0000 0.09770  0.15350  0.56530  Biso   1.000  H
  H137     1.0000 0.03050  0.83810  0.47400  Biso   1.000  H
  H138     1.0000 0.96950  0.16190  0.52600  Biso   1.000  H
  C101     1.0000 0.48500  0.62320  0.38970  Biso   1.000  C
  C102     1.0000 0.51500  0.37680  0.61030  Biso   1.000  C
  H139     1.0000 0.46570  0.65230  0.35980  Biso   1.000  H
  H140     1.0000 0.53430  0.34770  0.64020  Biso   1.000  H
  H141     1.0000 0.44000  0.62650  0.42020  Biso   1.000  H
  H142     1.0000 0.56000  0.37350  0.57980  Biso   1.000  H
  H143     1.0000 0.46160  0.57990  0.36900  Biso   1.000  H
  H144     1.0000 0.53840  0.42010  0.63100  Biso   1.000  H
  C103     1.0000 0.62100  0.64040  0.42110  Biso   1.000  C
  C104     1.0000 0.37900  0.35960  0.57890  Biso   1.000  C
  C105     1.0000 0.57800  0.20260  0.50210  Biso   1.000  C
  C106     1.0000 0.42200  0.79740  0.49790  Biso   1.000  C
  H145     1.0000 0.54100  0.23870  0.50480  Biso   1.000  H
  H146     1.0000 0.45900  0.76130  0.49520  Biso   1.000  H
  H147     1.0000 0.63610  0.20220  0.54120  Biso   1.000  H
  H148     1.0000 0.36390  0.79780  0.45880  Biso   1.000  H
  H149     1.0000 0.51550  0.16340  0.49220  Biso   1.000  H
  H150     1.0000 0.48450  0.83660  0.50780  Biso   1.000  H
  C107     1.0000 0.20920  0.16200  0.42820  Biso   1.000  C
  C108     1.0000 0.79080  0.83800  0.57180  Biso   1.000  C
  H151     1.0000 0.12160  0.15540  0.42200  Biso   1.000  H
  H152     1.0000 0.87840  0.84460  0.57800  Biso   1.000  H
  H153     1.0000 0.25030  0.20150  0.45500  Biso   1.000  H
  H154     1.0000 0.74970  0.79850  0.54500  Biso   1.000  H
  H155     1.0000 0.23710  0.12660  0.44680  Biso   1.000  H
  H156     1.0000 0.76290  0.87340  0.55320  Biso   1.000  H
  C109     1.0000 0.18100  0.21010  0.32830  Biso   1.000  C
  C110     1.0000 0.81900  0.78990  0.67170  Biso   1.000  C
  H157     1.0000 0.20930  0.21210  0.29150  Biso   1.000  H
  H158     1.0000 0.79070  0.78790  0.70850  Biso   1.000  H
  H159     1.0000 0.20290  0.25230  0.35130  Biso   1.000  H
  H160     1.0000 0.79710  0.74770  0.64870  Biso   1.000  H
  H161     1.0000 0.09250  0.19480  0.31680  Biso   1.000  H
  H162     1.0000 0.90750  0.80520  0.68320  Biso   1.000  H
  C111     1.0000 0.29100  0.26990  0.09410  Biso   1.000  C
  C112     1.0000 0.70900  0.73010  0.90590  Biso   1.000  C
  H163     1.0000 0.37730  0.29070  0.10920  Biso   1.000  H
  H164     1.0000 0.62270  0.70930  0.89080  Biso   1.000  H
  H165     1.0000 0.24910  0.29600  0.06710  Biso   1.000  H
  H166     1.0000 0.75090  0.70400  0.93290  Biso   1.000  H
  H167     1.0000 0.28230  0.22860  0.07160  Biso   1.000  H
  H168     1.0000 0.71770  0.77140  0.92840  Biso   1.000  H
  C113     1.0000 0.12330  0.87290  0.23460  Biso   1.000  C
  C114     1.0000 0.87670  0.12710  0.76540  Biso   1.000  C
  H169     1.0000 0.08190  0.87950  0.19350  Biso   1.000  H
  H170     1.0000 0.91810  0.12050  0.80650  Biso   1.000  H
  H171     1.0000 0.09400  0.82920  0.24110  Biso   1.000  H
  H172     1.0000 0.90600  0.17080  0.75890  Biso   1.000  H
  H173     1.0000 0.21080  0.88120  0.23930  Biso   1.000  H
  H174     1.0000 0.78920  0.11880  0.76070  Biso   1.000  H
  C115     1.0000 0.49400  0.79080  0.33800  Biso   1.000  C
  C116     1.0000 0.50600  0.20920  0.66200  Biso   1.000  C
  C117     1.0000 0.39140  0.60530  0.14420  Biso   1.000  C
  C118     1.0000 0.60860  0.39470  0.85580  Biso   1.000  C
  H175     1.0000 0.42860  0.64830  0.15920  Biso   1.000  H
  H176     1.0000 0.57140  0.35170  0.84080  Biso   1.000  H
  C119     1.0000 0.08000  0.53420  0.22600  Biso   1.000  C
  C120     1.0000 0.92000  0.46580  0.77400  Biso   1.000  C
  H177     1.0000 0.06950  0.53310  0.18120  Biso   1.000  H
  H178     1.0000 0.93050  0.46690  0.81880  Biso   1.000  H
  C121     1.0000 0.11100  0.47450  0.24000  Biso   1.000  C
  C122     1.0000 0.88900  0.52550  0.76000  Biso   1.000  C
  H179     1.0000 0.12540  0.47230  0.28380  Biso   1.000  H
  H180     1.0000 0.87460  0.52770  0.71620  Biso   1.000  H
  H181     1.0000 0.18510  0.47180  0.22810  Biso   1.000  H
  H182     1.0000 0.81490  0.52820  0.77190  Biso   1.000  H
  H183     1.0000 0.04490  0.43940  0.21760  Biso   1.000  H
  H184     1.0000 0.95510  0.56060  0.78240  Biso   1.000  H
  C123     1.0000 0.16500  0.59440  0.25200  Biso   1.000  C
  C124     1.0000 0.83500  0.40560  0.74800  Biso   1.000  C
  H185     1.0000 0.13470  0.62860  0.23240  Biso   1.000  H
  H186     1.0000 0.86530  0.37140  0.76760  Biso   1.000  H
  H187     1.0000 0.24410  0.59350  0.24540  Biso   1.000  H
  H188     1.0000 0.75590  0.40650  0.75460  Biso   1.000  H
  H189     1.0000 0.17310  0.60150  0.29580  Biso   1.000  H
  H190     1.0000 0.82690  0.39850  0.70420  Biso   1.000  H
  C125     1.0000 0.60800  0.82630  0.26530  Biso   1.000  C
  C126     1.0000 0.39200  0.17370  0.73470  Biso   1.000  C
  H191     1.0000 0.67240  0.85650  0.29580  Biso   1.000  H
  H192     1.0000 0.32760  0.14350  0.70420  Biso   1.000  H
  H193     1.0000 0.54220  0.84670  0.24840  Biso   1.000  H
  H194     1.0000 0.45780  0.15330  0.75160  Biso   1.000  H
  H195     1.0000 0.64090  0.81200  0.23270  Biso   1.000  H
  H196     1.0000 0.35910  0.18800  0.76730  Biso   1.000  H
  C127     1.0000 0.68300  0.27510  0.44610  Biso   1.000  C
  C128     1.0000 0.31700  0.72490  0.55390  Biso   1.000  C
  H197     1.0000 0.76170  0.28060  0.43720  Biso   1.000  H
  H198     1.0000 0.23830  0.71940  0.56280  Biso   1.000  H
  H199     1.0000 0.69050  0.30300  0.48290  Biso   1.000  H
  H200     1.0000 0.30950  0.69700  0.51710  Biso   1.000  H
  H201     1.0000 0.62410  0.28560  0.41180  Biso   1.000  H
  H202     1.0000 0.37590  0.71440  0.58820  Biso   1.000  H
  C129     1.0000 0.97200  0.78770  0.39390  Biso   1.000  C
  C130     1.0000 0.02800  0.21230  0.60610  Biso   1.000  C
  H203     1.0000 0.94700  0.81510  0.36200  Biso   1.000  H
  H204     1.0000 0.05300  0.18490  0.63800  Biso   1.000  H
  C131     1.0000 0.09100  0.78340  0.39150  Biso   1.000  C
  C132     1.0000 0.90900  0.21660  0.60850  Biso   1.000  C
  H205     1.0000 0.08710  0.76140  0.35200  Biso   1.000  H
  H206     1.0000 0.91290  0.23860  0.64800  Biso   1.000  H
  H207     1.0000 0.12540  0.75990  0.42400  Biso   1.000  H
  H208     1.0000 0.87460  0.24010  0.57600  Biso   1.000  H
  H209     1.0000 0.14310  0.82600  0.39700  Biso   1.000  H
  H210     1.0000 0.85690  0.17400  0.60300  Biso   1.000  H
  C133     1.0000 0.68300  0.67200  0.47230  Biso   1.000  C
  C134     1.0000 0.31700  0.32800  0.52770  Biso   1.000  C
  C135     1.0000 0.53600  0.43160  0.39400  Biso   1.000  C
  C136     1.0000 0.46400  0.56840  0.60600  Biso   1.000  C
  H211     1.0000 0.55170  0.39190  0.37650  Biso   1.000  H
  H212     1.0000 0.44830  0.60810  0.62350  Biso   1.000  H
  C137     1.0000 0.59000  0.43630  0.46110  Biso   1.000  C
  C138     1.0000 0.41000  0.56370  0.53890  Biso   1.000  C
  H213     1.0000 0.53900  0.40520  0.47830  Biso   1.000  H
  H214     1.0000 0.46100  0.59480  0.52170  Biso   1.000  H
  H215     1.0000 0.59560  0.47890  0.48020  Biso   1.000  H
  H216     1.0000 0.40440  0.52110  0.51980  Biso   1.000  H
  H217     1.0000 0.67120  0.42800  0.46890  Biso   1.000  H
  H218     1.0000 0.32880  0.57200  0.53110  Biso   1.000  H
  C139     1.0000 0.41900  0.43140  0.36290  Biso   1.000  C
  C140     1.0000 0.58100  0.56860  0.63710  Biso   1.000  C
  H219     1.0000 0.39320  0.46660  0.38110  Biso   1.000  H
  H220     1.0000 0.60680  0.53340  0.61890  Biso   1.000  H
  H221     1.0000 0.36460  0.39150  0.36530  Biso   1.000  H
  H222     1.0000 0.63540  0.60850  0.63470  Biso   1.000  H
  H223     1.0000 0.41450  0.43610  0.32020  Biso   1.000  H
  H224     1.0000 0.58550  0.56390  0.67980  Biso   1.000  H
  C141     1.0000 0.43030  0.01100  0.40010  Biso   1.000  C
  C142     1.0000 0.56970  0.98900  0.59990  Biso   1.000  C
  C143     1.0000 0.33390  0.00710  0.43220  Biso   1.000  C
  C144     1.0000 0.66610  0.99290  0.56780  Biso   1.000  C
