data_image0
_cell_length_a       12.8111
_cell_length_b       20.505
_cell_length_c       22.403
_cell_angle_alpha    75.474
_cell_angle_beta     86.125
_cell_angle_gamma    86.655

_symmetry_space_group_name_H-M    "P 1"
_symmetry_int_tables_number       1

loop_
  _symmetry_equiv_pos_as_xyz
  'x, y, z'

loop_
  _atom_site_label
  _atom_site_occupancy
  _atom_site_fract_x
  _atom_site_fract_y
  _atom_site_fract_z
  _atom_site_thermal_displace_type
  _atom_site_B_iso_or_equiv
  _atom_site_type_symbol
  Cu1      1.0000 0.59990  0.24623  0.45462  Biso   1.000  Cu
  Cu2      1.0000 0.40010  0.75377  0.54538  Biso   1.000  Cu
  Cu3      1.0000 0.70090  0.33766  0.49437  Biso   1.000  Cu
  Cu4      1.0000 0.29910  0.66234  0.50563  Biso   1.000  Cu
  Cu5      1.0000 0.79020  0.27163  0.41512  Biso   1.000  Cu
  Cu6      1.0000 0.20980  0.72837  0.58488  Biso   1.000  Cu
  Cu7      1.0000 0.74960  0.20881  0.53355  Biso   1.000  Cu
  Cu8      1.0000 0.25040  0.79119  0.46645  Biso   1.000  Cu
  I1       1.0000 0.55851  0.25024  0.56961  Biso   1.000  I
  I2       1.0000 0.44149  0.74976  0.43039  Biso   1.000  I
  I3       1.0000 0.64641  0.37456  0.37956  Biso   1.000  I
  I4       1.0000 0.35359  0.62544  0.62044  Biso   1.000  I
  I5       1.0000 0.90221  0.29697  0.50567  Biso   1.000  I
  I6       1.0000 0.09779  0.70303  0.49433  Biso   1.000  I
  I7       1.0000 0.73526  0.14523  0.44100  Biso   1.000  I
  I8       1.0000 0.26474  0.85477  0.55900  Biso   1.000  I
  Ti1      1.0000 0.66610  0.86820  0.83740  Biso   1.000  Ti
  Ti2      1.0000 0.33390  0.13180  0.16260  Biso   1.000  Ti
  Ti3      1.0000 0.83640  0.32820  0.80920  Biso   1.000  Ti
  Ti4      1.0000 0.16360  0.67180  0.19080  Biso   1.000  Ti
  Ti5      1.0000 0.42630  0.84200  0.84500  Biso   1.000  Ti
  Ti6      1.0000 0.57370  0.15800  0.15500  Biso   1.000  Ti
  Ti7      1.0000 0.77070  0.47680  0.81490  Biso   1.000  Ti
  Ti8      1.0000 0.22930  0.52320  0.18510  Biso   1.000  Ti
  Ti9      1.0000 0.00360  0.42310  0.73570  Biso   1.000  Ti
  Ti10     1.0000 0.99640  0.57690  0.26430  Biso   1.000  Ti
  Ti11     1.0000 0.45670  0.98320  0.75960  Biso   1.000  Ti
  Ti12     1.0000 0.54330  0.01680  0.24040  Biso   1.000  Ti
  O1       1.0000 0.89850  0.29480  0.88130  Biso   1.000  O
  O2       1.0000 0.10150  0.70520  0.11870  Biso   1.000  O
  O3       1.0000 0.98560  0.44300  0.65560  Biso   1.000  O
  O4       1.0000 0.01440  0.55700  0.34440  Biso   1.000  O
  N1       1.0000 0.52540  0.77040  0.58760  Biso   1.000  N
  N2       1.0000 0.47460  0.22960  0.41240  Biso   1.000  N
  C1       1.0000 0.64270  0.47470  0.51290  Biso   1.000  C
  C2       1.0000 0.35730  0.52530  0.48710  Biso   1.000  C
  H1       1.0000 0.62440  0.48430  0.47200  Biso   1.000  H
  H2       1.0000 0.37560  0.51570  0.52800  Biso   1.000  H
  C3       1.0000 0.65490  0.50930  0.60640  Biso   1.000  C
  C4       1.0000 0.34510  0.49070  0.39360  Biso   1.000  C
  H3       1.0000 0.64390  0.54150  0.62930  Biso   1.000  H
  H4       1.0000 0.35610  0.45850  0.37070  Biso   1.000  H
  C5       1.0000 0.73800  0.09660  0.64740  Biso   1.000  C
  C6       1.0000 0.26200  0.90340  0.35260  Biso   1.000  C
  H5       1.0000 0.66590  0.10640  0.64640  Biso   1.000  H
  H6       1.0000 0.33410  0.89360  0.35360  Biso   1.000  H
  C7       1.0000 0.69840  0.44750  0.63280  Biso   1.000  C
  C8       1.0000 0.30160  0.55250  0.36720  Biso   1.000  C
  C9       1.0000 0.71200  0.39940  0.59790  Biso   1.000  C
  C10      1.0000 0.28800  0.60060  0.40210  Biso   1.000  C
  H7       1.0000 0.74100  0.35700  0.61580  Biso   1.000  H
  H8       1.0000 0.25900  0.64300  0.38420  Biso   1.000  H
  C11      1.0000 0.04900  0.76550  0.67220  Biso   1.000  C
  C12      1.0000 0.95100  0.23450  0.32780  Biso   1.000  C
  H9       1.0000 0.07400  0.80840  0.65550  Biso   1.000  H
  H10      1.0000 0.92600  0.19160  0.34450  Biso   1.000  H
  C13      1.0000 0.06800  0.65180  0.68010  Biso   1.000  C
  C14      1.0000 0.93200  0.34820  0.31990  Biso   1.000  C
  H11      1.0000 0.10520  0.61540  0.66970  Biso   1.000  H
  H12      1.0000 0.89480  0.38460  0.33030  Biso   1.000  H
  O5       1.0000 0.13510  0.41260  0.75600  Biso   1.000  O
  O6       1.0000 0.86490  0.58740  0.24400  Biso   1.000  O
  C15      1.0000 0.69800  0.00230  0.73780  Biso   1.000  C
  C16      1.0000 0.30200  0.99770  0.26220  Biso   1.000  C
  C17      1.0000 0.59600  0.79660  0.67510  Biso   1.000  C
  C18      1.0000 0.40400  0.20340  0.32490  Biso   1.000  C
  C19      1.0000 0.92500  0.69450  0.73720  Biso   1.000  C
  C20      1.0000 0.07500  0.30550  0.26280  Biso   1.000  C
  H13      1.0000 0.86540  0.68750  0.76400  Biso   1.000  H
  H14      1.0000 0.13460  0.31250  0.23600  Biso   1.000  H
  C21      1.0000 0.57700  0.81620  0.73580  Biso   1.000  C
  C22      1.0000 0.42300  0.18380  0.26420  Biso   1.000  C
  C23      1.0000 0.96100  0.75960  0.71280  Biso   1.000  C
  C24      1.0000 0.03900  0.24040  0.28720  Biso   1.000  C
  C25      1.0000 0.62700  0.52480  0.54490  Biso   1.000  C
  C26      1.0000 0.37300  0.47520  0.45510  Biso   1.000  C
  C27      1.0000 0.97900  0.64090  0.72060  Biso   1.000  C
  C28      1.0000 0.02100  0.35910  0.27940  Biso   1.000  C
  C29      1.0000 0.77500  0.04280  0.69280  Biso   1.000  C
  C30      1.0000 0.22500  0.95720  0.30720  Biso   1.000  C
  C31      1.0000 0.90600  0.12050  0.60700  Biso   1.000  C
  C32      1.0000 0.09400  0.87950  0.39300  Biso   1.000  C
  H15      1.0000 0.95150  0.14640  0.57750  Biso   1.000  H
  H16      1.0000 0.04850  0.85360  0.42250  Biso   1.000  H
  C33      1.0000 0.73600  0.42990  0.69640  Biso   1.000  C
  C34      1.0000 0.26400  0.57010  0.30360  Biso   1.000  C
  C35      1.0000 0.94500  0.56850  0.74260  Biso   1.000  C
  C36      1.0000 0.05500  0.43150  0.25740  Biso   1.000  C
  C37      1.0000 0.32200  0.71250  0.83230  Biso   1.000  C
  C38      1.0000 0.67800  0.28750  0.16770  Biso   1.000  C
  H17      1.0000 0.38720  0.69570  0.81430  Biso   1.000  H
  H18      1.0000 0.61280  0.30430  0.18570  Biso   1.000  H
  C39      1.0000 0.62300  0.76110  0.56590  Biso   1.000  C
  C40      1.0000 0.37700  0.23890  0.43410  Biso   1.000  C
  H19      1.0000 0.63190  0.74850  0.52870  Biso   1.000  H
  H20      1.0000 0.36810  0.25150  0.47130  Biso   1.000  H
  C41      1.0000 0.51300  0.78710  0.64250  Biso   1.000  C
  C42      1.0000 0.48700  0.21290  0.35750  Biso   1.000  C
  H21      1.0000 0.44490  0.79230  0.65900  Biso   1.000  H
  H22      1.0000 0.55510  0.20770  0.34100  Biso   1.000  H
  C43      1.0000 0.69600  0.78880  0.65060  Biso   1.000  C
  C44      1.0000 0.30400  0.21120  0.34940  Biso   1.000  C
  H23      1.0000 0.75280  0.79680  0.67090  Biso   1.000  H
  H24      1.0000 0.24720  0.20320  0.32910  Biso   1.000  H
  C45      1.0000 0.94700  0.06770  0.65220  Biso   1.000  C
  C46      1.0000 0.05300  0.93230  0.34780  Biso   1.000  C
  C47      1.0000 0.60300  0.62090  0.73400  Biso   1.000  C
  C48      1.0000 0.39700  0.37910  0.26600  Biso   1.000  C
  H25      1.0000 0.55010  0.64100  0.70590  Biso   1.000  H
  H26      1.0000 0.44990  0.35900  0.29410  Biso   1.000  H
  H27      1.0000 0.66680  0.61360  0.71090  Biso   1.000  H
  H28      1.0000 0.33320  0.38640  0.28910  Biso   1.000  H
  H29      1.0000 0.61540  0.65050  0.75960  Biso   1.000  H
  H30      1.0000 0.38460  0.34950  0.24040  Biso   1.000  H
  C49      1.0000 0.88200  0.02890  0.69610  Biso   1.000  C
  C50      1.0000 0.11800  0.97110  0.30390  Biso   1.000  C
  H31      1.0000 0.90880  0.99430  0.72720  Biso   1.000  H
  H32      1.0000 0.09120  0.00570  0.27280  Biso   1.000  H
  C51      1.0000 0.56700  0.55390  0.77410  Biso   1.000  C
  C52      1.0000 0.43300  0.44610  0.22590  Biso   1.000  C
  H33      1.0000 0.55650  0.52380  0.74750  Biso   1.000  H
  H34      1.0000 0.44350  0.47620  0.25250  Biso   1.000  H
  C53      1.0000 0.71200  0.76900  0.59580  Biso   1.000  C
  C54      1.0000 0.28800  0.23100  0.40420  Biso   1.000  C
  C55      1.0000 0.57200  0.73410  0.92240  Biso   1.000  C
  C56      1.0000 0.42800  0.26590  0.07760  Biso   1.000  C
  H35      1.0000 0.50140  0.72050  0.93820  Biso   1.000  H
  H36      1.0000 0.49860  0.27950  0.06180  Biso   1.000  H
  C57      1.0000 0.01700  0.27510  0.72930  Biso   1.000  C
  C58      1.0000 0.98300  0.72490  0.27070  Biso   1.000  C
  H37      1.0000 0.08280  0.29370  0.70880  Biso   1.000  H
  H38      1.0000 0.91720  0.70630  0.29120  Biso   1.000  H
  C59      1.0000 0.46900  0.55930  0.81250  Biso   1.000  C
  C60      1.0000 0.53100  0.44070  0.18750  Biso   1.000  C
  H39      1.0000 0.47940  0.58650  0.84050  Biso   1.000  H
  H40      1.0000 0.52060  0.41350  0.15950  Biso   1.000  H
  H41      1.0000 0.44940  0.51510  0.83550  Biso   1.000  H
  H42      1.0000 0.55060  0.48490  0.16450  Biso   1.000  H
  H43      1.0000 0.41350  0.57980  0.78610  Biso   1.000  H
  H44      1.0000 0.58650  0.42020  0.21390  Biso   1.000  H
  C61      1.0000 0.00000  0.48060  0.59390  Biso   1.000  C
  C62      1.0000 0.00000  0.51940  0.40610  Biso   1.000  C
  H45      1.0000 0.97470  0.45390  0.56740  Biso   1.000  H
  H46      1.0000 0.02530  0.54610  0.43260  Biso   1.000  H
  C63      1.0000 0.87600  0.81660  0.88540  Biso   1.000  C
  C64      1.0000 0.12400  0.18340  0.11460  Biso   1.000  C
  H47      1.0000 0.84710  0.81910  0.92640  Biso   1.000  H
  H48      1.0000 0.15290  0.18090  0.07360  Biso   1.000  H
  C65      1.0000 0.23300  0.91920  0.78200  Biso   1.000  C
  C66      1.0000 0.76700  0.08080  0.21800  Biso   1.000  C
  H49      1.0000 0.20410  0.87940  0.81070  Biso   1.000  H
  H50      1.0000 0.79590  0.12060  0.18930  Biso   1.000  H
  C67      1.0000 0.94200  0.87490  0.86000  Biso   1.000  C
  C68      1.0000 0.05800  0.12510  0.14000  Biso   1.000  C
  H51      1.0000 0.99460  0.87580  0.88860  Biso   1.000  H
  H52      1.0000 0.00540  0.12420  0.11140  Biso   1.000  H
  H53      1.0000 0.89980  0.91590  0.85360  Biso   1.000  H
  H54      1.0000 0.10020  0.08410  0.14640  Biso   1.000  H
  H55      1.0000 0.97620  0.87090  0.82140  Biso   1.000  H
  H56      1.0000 0.02380  0.12910  0.17860  Biso   1.000  H
  C69      1.0000 0.93700  0.75050  0.89090  Biso   1.000  C
  C70      1.0000 0.06300  0.24950  0.10910  Biso   1.000  C
  H57      1.0000 0.96470  0.74740  0.85080  Biso   1.000  H
  H58      1.0000 0.03530  0.25260  0.14920  Biso   1.000  H
  H59      1.0000 0.89090  0.71410  0.90760  Biso   1.000  H
  H60      1.0000 0.10910  0.28590  0.09240  Biso   1.000  H
  H61      1.0000 0.99290  0.74770  0.91780  Biso   1.000  H
  H62      1.0000 0.00710  0.25230  0.08220  Biso   1.000  H
  C71      1.0000 0.54100  0.35890  0.83490  Biso   1.000  C
  C72      1.0000 0.45900  0.64110  0.16510  Biso   1.000  C
  H63      1.0000 0.47980  0.33910  0.85830  Biso   1.000  H
  H64      1.0000 0.52020  0.66090  0.14170  Biso   1.000  H
  H65      1.0000 0.56140  0.33530  0.80380  Biso   1.000  H
  H66      1.0000 0.43860  0.66470  0.19620  Biso   1.000  H
  H67      1.0000 0.52440  0.40540  0.81560  Biso   1.000  H
  H68      1.0000 0.47560  0.59460  0.18440  Biso   1.000  H
  C73      1.0000 0.63100  0.35400  0.87840  Biso   1.000  C
  C74      1.0000 0.36900  0.64600  0.12160  Biso   1.000  C
  H69      1.0000 0.64770  0.30610  0.89640  Biso   1.000  H
  H70      1.0000 0.35230  0.69390  0.10360  Biso   1.000  H
  C75      1.0000 0.83800  0.53770  0.91530  Biso   1.000  C
  C76      1.0000 0.16200  0.46230  0.08470  Biso   1.000  C
  H71      1.0000 0.80970  0.58100  0.89110  Biso   1.000  H
  H72      1.0000 0.19030  0.41900  0.10890  Biso   1.000  H
  C77      1.0000 0.62000  0.68280  0.88930  Biso   1.000  C
  C78      1.0000 0.38000  0.31720  0.11070  Biso   1.000  C
  H73      1.0000 0.68860  0.69570  0.87260  Biso   1.000  H
  H74      1.0000 0.31140  0.30430  0.12740  Biso   1.000  H
  H75      1.0000 0.57660  0.68090  0.85640  Biso   1.000  H
  H76      1.0000 0.42340  0.31910  0.14360  Biso   1.000  H
  H77      1.0000 0.62420  0.63930  0.91790  Biso   1.000  H
  H78      1.0000 0.37580  0.36070  0.08210  Biso   1.000  H
  C79      1.0000 0.28800  0.65910  0.88730  Biso   1.000  C
  C80      1.0000 0.71200  0.34090  0.11270  Biso   1.000  C
  H79      1.0000 0.21980  0.67140  0.90240  Biso   1.000  H
  H80      1.0000 0.78020  0.32860  0.09760  Biso   1.000  H
  H81      1.0000 0.33680  0.65430  0.91900  Biso   1.000  H
  H82      1.0000 0.66320  0.34570  0.08100  Biso   1.000  H
  H83      1.0000 0.28570  0.61710  0.87590  Biso   1.000  H
  H84      1.0000 0.71430  0.38290  0.12410  Biso   1.000  H
  C81      1.0000 0.31300  0.82900  0.96900  Biso   1.000  C
  C82      1.0000 0.68700  0.17100  0.03100  Biso   1.000  C
  H85      1.0000 0.31390  0.78040  0.97060  Biso   1.000  H
  H86      1.0000 0.68610  0.21960  0.02940  Biso   1.000  H
  C83      1.0000 0.18000  0.98190  0.79750  Biso   1.000  C
  C84      1.0000 0.82000  0.01810  0.20250  Biso   1.000  C
  H87      1.0000 0.20270  0.02130  0.76730  Biso   1.000  H
  H88      1.0000 0.79730  0.97870  0.23270  Biso   1.000  H
  H89      1.0000 0.19880  0.98430  0.83760  Biso   1.000  H
  H90      1.0000 0.80120  0.01570  0.16240  Biso   1.000  H
  H91      1.0000 0.10560  0.97950  0.79730  Biso   1.000  H
  H92      1.0000 0.89440  0.02050  0.20270  Biso   1.000  H
  C85      1.0000 0.70000  0.20650  0.79870  Biso   1.000  C
  C86      1.0000 0.30000  0.79350  0.20130  Biso   1.000  C
  H93      1.0000 0.63800  0.20610  0.82680  Biso   1.000  H
  H94      1.0000 0.36200  0.79390  0.17320  Biso   1.000  H
  C87      1.0000 0.63200  0.74000  0.97610  Biso   1.000  C
  C88      1.0000 0.36800  0.26000  0.02390  Biso   1.000  C
  H95      1.0000 0.63250  0.69730  0.00660  Biso   1.000  H
  H96      1.0000 0.36750  0.30270  0.99340  Biso   1.000  H
  H97      1.0000 0.59970  0.77420  0.99390  Biso   1.000  H
  H98      1.0000 0.40030  0.22580  0.00610  Biso   1.000  H
  H99      1.0000 0.70290  0.75080  0.96210  Biso   1.000  H
  H100     1.0000 0.29710  0.24920  0.03790  Biso   1.000  H
  C89      1.0000 0.93200  0.54590  0.58390  Biso   1.000  C
  C90      1.0000 0.06800  0.45410  0.41610  Biso   1.000  C
  H101     1.0000 0.85970  0.53560  0.59000  Biso   1.000  H
  H102     1.0000 0.14030  0.46440  0.41000  Biso   1.000  H
  H103     1.0000 0.94580  0.57260  0.54260  Biso   1.000  H
  H104     1.0000 0.05420  0.42740  0.45740  Biso   1.000  H
  H105     1.0000 0.94940  0.57070  0.61280  Biso   1.000  H
  H106     1.0000 0.05060  0.42930  0.38720  Biso   1.000  H
  C91      1.0000 0.11200  0.49310  0.57590  Biso   1.000  C
  C92      1.0000 0.88800  0.50690  0.42410  Biso   1.000  C
  H107     1.0000 0.13860  0.51970  0.60090  Biso   1.000  H
  H108     1.0000 0.86140  0.48030  0.39910  Biso   1.000  H
  H109     1.0000 0.11950  0.51700  0.53320  Biso   1.000  H
  H110     1.0000 0.88050  0.48300  0.46680  Biso   1.000  H
  H111     1.0000 0.15150  0.45090  0.58210  Biso   1.000  H
  H112     1.0000 0.84850  0.54910  0.41790  Biso   1.000  H
  C93      1.0000 0.21700  0.91490  0.71710  Biso   1.000  C
  C94      1.0000 0.78300  0.08510  0.28290  Biso   1.000  C
  H113     1.0000 0.14520  0.90680  0.71360  Biso   1.000  H
  H114     1.0000 0.85480  0.09320  0.28640  Biso   1.000  H
  H115     1.0000 0.26090  0.87870  0.70790  Biso   1.000  H
  H116     1.0000 0.73910  0.12130  0.29210  Biso   1.000  H
  H117     1.0000 0.23550  0.95660  0.68860  Biso   1.000  H
  H118     1.0000 0.76450  0.04340  0.31140  Biso   1.000  H
  C95      1.0000 0.96900  0.32100  0.91690  Biso   1.000  C
  C96      1.0000 0.03100  0.67900  0.08310  Biso   1.000  C
  H119     1.0000 0.99880  0.36210  0.89180  Biso   1.000  H
  H120     1.0000 0.00120  0.63790  0.10820  Biso   1.000  H
  C97      1.0000 0.64400  0.94200  0.94450  Biso   1.000  C
  C98      1.0000 0.35600  0.05800  0.05550  Biso   1.000  C
  C99      1.0000 0.24500  0.73200  0.78210  Biso   1.000  C
  C100     1.0000 0.75500  0.26800  0.21790  Biso   1.000  C
  H121     1.0000 0.23010  0.69280  0.76850  Biso   1.000  H
  H122     1.0000 0.76990  0.30720  0.23150  Biso   1.000  H
  H123     1.0000 0.27410  0.76520  0.74790  Biso   1.000  H
  H124     1.0000 0.72590  0.23480  0.25210  Biso   1.000  H
  H125     1.0000 0.18130  0.75010  0.79800  Biso   1.000  H
  H126     1.0000 0.81870  0.24990  0.20200  Biso   1.000  H
  C101     1.0000 0.66600  0.22600  0.73410  Biso   1.000  C
  C102     1.0000 0.33400  0.77400  0.26590  Biso   1.000  C
  H127     1.0000 0.72530  0.22230  0.70620  Biso   1.000  H
  H128     1.0000 0.27470  0.77770  0.29380  Biso   1.000  H
  H129     1.0000 0.63860  0.27180  0.72500  Biso   1.000  H
  H130     1.0000 0.36140  0.72820  0.27500  Biso   1.000  H
  H131     1.0000 0.61330  0.19680  0.72960  Biso   1.000  H
  H132     1.0000 0.38670  0.80320  0.27040  Biso   1.000  H
  C103     1.0000 0.78700  0.52400  0.97950  Biso   1.000  C
  C104     1.0000 0.21300  0.47600  0.02050  Biso   1.000  C
  H133     1.0000 0.81420  0.48190  0.00390  Biso   1.000  H
  H134     1.0000 0.18580  0.51810  0.99610  Biso   1.000  H
  H135     1.0000 0.71250  0.52190  0.97730  Biso   1.000  H
  H136     1.0000 0.28750  0.47810  0.02270  Biso   1.000  H
  H137     1.0000 0.80080  0.55970  0.99830  Biso   1.000  H
  H138     1.0000 0.19920  0.44030  0.00170  Biso   1.000  H
  C105     1.0000 0.90700  0.33400  0.97200  Biso   1.000  C
  C106     1.0000 0.09300  0.66600  0.02800  Biso   1.000  C
  H139     1.0000 0.85170  0.36730  0.95860  Biso   1.000  H
  H140     1.0000 0.14830  0.63270  0.04140  Biso   1.000  H
  H141     1.0000 0.95240  0.35110  0.99660  Biso   1.000  H
  H142     1.0000 0.04760  0.64890  0.00340  Biso   1.000  H
  H143     1.0000 0.87770  0.29330  0.99620  Biso   1.000  H
  H144     1.0000 0.12230  0.70670  0.00380  Biso   1.000  H
  C107     1.0000 0.35600  0.83600  0.02670  Biso   1.000  C
  C108     1.0000 0.64400  0.16400  0.97330  Biso   1.000  C
  H145     1.0000 0.36480  0.88250  0.02420  Biso   1.000  H
  H146     1.0000 0.63520  0.11750  0.97580  Biso   1.000  H
  H147     1.0000 0.42310  0.81170  0.03210  Biso   1.000  H
  H148     1.0000 0.57690  0.18830  0.96790  Biso   1.000  H
  H149     1.0000 0.30920  0.81720  0.06120  Biso   1.000  H
  H150     1.0000 0.69080  0.18280  0.93880  Biso   1.000  H
  C109     1.0000 0.75300  0.13890  0.81400  Biso   1.000  C
  C110     1.0000 0.24700  0.86110  0.18600  Biso   1.000  C
  H151     1.0000 0.70380  0.10560  0.81310  Biso   1.000  H
  H152     1.0000 0.29620  0.89440  0.18690  Biso   1.000  H
  H153     1.0000 0.77990  0.13010  0.85410  Biso   1.000  H
  H154     1.0000 0.22010  0.86990  0.14590  Biso   1.000  H
  H155     1.0000 0.80970  0.13710  0.78380  Biso   1.000  H
  H156     1.0000 0.19030  0.86290  0.21620  Biso   1.000  H
  C111     1.0000 0.57600  0.99600  0.92000  Biso   1.000  C
  C112     1.0000 0.42400  0.00400  0.08000  Biso   1.000  C
  H157     1.0000 0.54300  0.01390  0.95210  Biso   1.000  H
  H158     1.0000 0.45700  0.98610  0.04790  Biso   1.000  H
  H159     1.0000 0.52260  0.98050  0.89850  Biso   1.000  H
  H160     1.0000 0.47740  0.01950  0.10150  Biso   1.000  H
  H161     1.0000 0.61410  0.03000  0.89090  Biso   1.000  H
  H162     1.0000 0.38590  0.97000  0.10910  Biso   1.000  H
  C113     1.0000 0.95600  0.54100  0.91480  Biso   1.000  C
  C114     1.0000 0.04400  0.45900  0.08520  Biso   1.000  C
  H163     1.0000 0.97230  0.57490  0.93560  Biso   1.000  H
  H164     1.0000 0.02770  0.42510  0.06440  Biso   1.000  H
  H165     1.0000 0.98400  0.55360  0.87290  Biso   1.000  H
  H166     1.0000 0.01600  0.44640  0.12710  Biso   1.000  H
  H167     1.0000 0.98540  0.49840  0.93560  Biso   1.000  H
  H168     1.0000 0.01460  0.50160  0.06440  Biso   1.000  H
  C115     1.0000 0.95700  0.26400  0.67980  Biso   1.000  C
  C116     1.0000 0.04300  0.73600  0.32020  Biso   1.000  C
  H169     1.0000 0.99050  0.22780  0.66400  Biso   1.000  H
  H170     1.0000 0.00950  0.77220  0.33600  Biso   1.000  H
  H171     1.0000 0.95300  0.30400  0.64710  Biso   1.000  H
  H172     1.0000 0.04700  0.69600  0.35290  Biso   1.000  H
  H173     1.0000 0.88730  0.25130  0.69580  Biso   1.000  H
  H174     1.0000 0.11270  0.74870  0.30420  Biso   1.000  H
  C117     1.0000 0.05500  0.26500  0.93450  Biso   1.000  C
  C118     1.0000 0.94500  0.73500  0.06550  Biso   1.000  C
  H175     1.0000 0.02580  0.22590  0.96200  Biso   1.000  H
  H176     1.0000 0.97420  0.77410  0.03800  Biso   1.000  H
  H177     1.0000 0.10860  0.28110  0.95460  Biso   1.000  H
  H178     1.0000 0.89140  0.71890  0.04540  Biso   1.000  H
  H179     1.0000 0.08530  0.25350  0.89790  Biso   1.000  H
  H180     1.0000 0.91470  0.74650  0.10210  Biso   1.000  H
  C119     1.0000 0.20300  0.85500  0.96400  Biso   1.000  C
  C120     1.0000 0.79700  0.14500  0.03600  Biso   1.000  C
  H181     1.0000 0.15980  0.82800  0.99700  Biso   1.000  H
  H182     1.0000 0.84020  0.17200  0.00300  Biso   1.000  H
  H183     1.0000 0.17820  0.85290  0.92510  Biso   1.000  H
  H184     1.0000 0.82180  0.14710  0.07490  Biso   1.000  H
  H185     1.0000 0.19830  0.90080  0.96740  Biso   1.000  H
  H186     1.0000 0.80170  0.09920  0.03260  Biso   1.000  H
  C121     1.0000 0.04900  0.21400  0.77900  Biso   1.000  C
  C122     1.0000 0.95100  0.78600  0.22100  Biso   1.000  C
  H187     1.0000 0.98890  0.19630  0.80380  Biso   1.000  H
  H188     1.0000 0.01110  0.80370  0.19620  Biso   1.000  H
  H189     1.0000 0.09880  0.22610  0.80370  Biso   1.000  H
  H190     1.0000 0.90120  0.77390  0.19630  Biso   1.000  H
  H191     1.0000 0.08110  0.18000  0.75940  Biso   1.000  H
  H192     1.0000 0.91890  0.82000  0.24060  Biso   1.000  H
  C123     1.0000 0.22500  0.44200  0.76900  Biso   1.000  C
  C124     1.0000 0.77500  0.55800  0.23100  Biso   1.000  C
  H193     1.0000 0.21090  0.49050  0.75650  Biso   1.000  H
  H194     1.0000 0.78910  0.50950  0.24350  Biso   1.000  H
  C125     1.0000 0.53000  0.98500  0.59500  Biso   1.000  C
  C126     1.0000 0.47000  0.01500  0.40500  Biso   1.000  C
  H195     1.0000 0.49840  0.95800  0.57150  Biso   1.000  H
  H196     1.0000 0.50160  0.04200  0.42850  Biso   1.000  H
  H197     1.0000 0.56650  0.95530  0.62770  Biso   1.000  H
  H198     1.0000 0.43350  0.04470  0.37230  Biso   1.000  H
  H199     1.0000 0.57880  0.01390  0.56780  Biso   1.000  H
  H200     1.0000 0.42120  0.98610  0.43220  Biso   1.000  H
  C127     1.0000 0.31500  0.42900  0.73400  Biso   1.000  C
  C128     1.0000 0.68500  0.57100  0.26600  Biso   1.000  C
  H201     1.0000 0.33120  0.38140  0.74330  Biso   1.000  H
  H202     1.0000 0.66880  0.61860  0.25670  Biso   1.000  H
  H203     1.0000 0.37270  0.45130  0.74470  Biso   1.000  H
  H204     1.0000 0.62730  0.54870  0.25530  Biso   1.000  H
  H205     1.0000 0.30380  0.44570  0.69120  Biso   1.000  H
  H206     1.0000 0.69620  0.55430  0.30880  Biso   1.000  H
  C129     1.0000 0.39340  0.12080  0.79110  Biso   1.000  C
  C130     1.0000 0.60660  0.87920  0.20890  Biso   1.000  C
  C131     1.0000 0.23300  0.42400  0.84100  Biso   1.000  C
  C132     1.0000 0.76700  0.57600  0.15900  Biso   1.000  C
  H207     1.0000 0.18100  0.45060  0.85830  Biso   1.000  H
  H208     1.0000 0.81900  0.54940  0.14170  Biso   1.000  H
  H209     1.0000 0.30110  0.43330  0.85050  Biso   1.000  H
  H210     1.0000 0.69890  0.56670  0.14950  Biso   1.000  H
  H211     1.0000 0.22020  0.37700  0.85760  Biso   1.000  H
  H212     1.0000 0.77980  0.62300  0.14240  Biso   1.000  H
  C133     1.0000 0.36300  0.16300  0.73200  Biso   1.000  C
  C134     1.0000 0.63700  0.83700  0.26800  Biso   1.000  C
  H213     1.0000 0.30440  0.14430  0.71900  Biso   1.000  H
  H214     1.0000 0.69560  0.85570  0.28100  Biso   1.000  H
  H215     1.0000 0.42090  0.16460  0.70220  Biso   1.000  H
  H216     1.0000 0.57910  0.83540  0.29780  Biso   1.000  H
  H217     1.0000 0.34450  0.20760  0.73650  Biso   1.000  H
  H218     1.0000 0.65550  0.79240  0.26350  Biso   1.000  H
  C135     1.0000 0.45200  0.02300  0.61900  Biso   1.000  C
  C136     1.0000 0.54800  0.97700  0.38100  Biso   1.000  C
  C137     1.0000 0.37900  0.06300  0.58500  Biso   1.000  C
  C138     1.0000 0.62100  0.93700  0.41500  Biso   1.000  C
  H219     1.0000 0.41190  0.09500  0.55160  Biso   1.000  H
  H220     1.0000 0.58810  0.90500  0.44840  Biso   1.000  H
  H221     1.0000 0.33620  0.08610  0.61080  Biso   1.000  H
  H222     1.0000 0.66380  0.91390  0.38920  Biso   1.000  H
  H223     1.0000 0.33540  0.03530  0.56880  Biso   1.000  H
  H224     1.0000 0.66460  0.96470  0.43120  Biso   1.000  H
  C139     1.0000 0.73100  0.94600  0.97900  Biso   1.000  C
  C140     1.0000 0.26900  0.05400  0.02100  Biso   1.000  C
  H225     1.0000 0.79430  0.94710  0.95310  Biso   1.000  H
  H226     1.0000 0.20570  0.05290  0.04690  Biso   1.000  H
  H227     1.0000 0.73480  0.90810  0.01380  Biso   1.000  H
  H228     1.0000 0.26520  0.09190  0.98620  Biso   1.000  H
  H229     1.0000 0.72360  0.98690  0.99300  Biso   1.000  H
  H230     1.0000 0.27640  0.01310  0.00700  Biso   1.000  H
  C141     1.0000 0.36900  0.13530  0.84610  Biso   1.000  C
  C142     1.0000 0.63100  0.86470  0.15390  Biso   1.000  C
  H231     1.0000 0.42210  0.11540  0.87440  Biso   1.000  H
  H232     1.0000 0.57790  0.88460  0.12560  Biso   1.000  H
  H233     1.0000 0.30260  0.11760  0.86230  Biso   1.000  H
  H234     1.0000 0.69740  0.88240  0.13770  Biso   1.000  H
  H235     1.0000 0.36600  0.18330  0.84060  Biso   1.000  H
  H236     1.0000 0.63400  0.81670  0.15940  Biso   1.000  H
  C143     1.0000 0.60000  0.38700  0.93020  Biso   1.000  C
  C144     1.0000 0.40000  0.61300  0.06980  Biso   1.000  C
  H237     1.0000 0.57950  0.43320  0.91340  Biso   1.000  H
  H238     1.0000 0.42050  0.56680  0.08660  Biso   1.000  H
  H239     1.0000 0.65840  0.38410  0.95550  Biso   1.000  H
  H240     1.0000 0.34160  0.61590  0.04450  Biso   1.000  H
  H241     1.0000 0.54240  0.36390  0.95460  Biso   1.000  H
  H242     1.0000 0.45760  0.63610  0.04540  Biso   1.000  H
  N3       1.0000 0.80230  0.13510  0.60460  Biso   1.000  N
  N4       1.0000 0.19770  0.86490  0.39540  Biso   1.000  N
  N5       1.0000 0.68350  0.41320  0.53880  Biso   1.000  N
  N6       1.0000 0.31650  0.58680  0.46120  Biso   1.000  N
  N7       1.0000 0.10000  0.71460  0.65620  Biso   1.000  N
  N8       1.0000 0.90000  0.28540  0.34380  Biso   1.000  N
  N9       1.0000 0.59090  0.58960  0.51520  Biso   1.000  N
  N10      1.0000 0.40910  0.41040  0.48480  Biso   1.000  N
  H243     1.0000 0.55000  0.58810  0.48640  Biso   1.000  H
  H244     1.0000 0.45000  0.41190  0.51360  Biso   1.000  H
  H245     1.0000 0.55620  0.60820  0.54160  Biso   1.000  H
  H246     1.0000 0.44380  0.39180  0.45840  Biso   1.000  H
  N11      1.0000 0.05600  0.05850  0.65250  Biso   1.000  N
  N12      1.0000 0.94400  0.94150  0.34750  Biso   1.000  N
  H247     1.0000 0.07860  0.02080  0.64450  Biso   1.000  H
  H248     1.0000 0.92140  0.97920  0.35550  Biso   1.000  H
  H249     1.0000 0.08290  0.09150  0.62510  Biso   1.000  H
  H250     1.0000 0.91710  0.90850  0.37490  Biso   1.000  H
  N13      1.0000 0.81300  0.76070  0.56960  Biso   1.000  N
  N14      1.0000 0.18700  0.23930  0.43040  Biso   1.000  N
  H251     1.0000 0.81110  0.74190  0.53820  Biso   1.000  H
  H252     1.0000 0.18890  0.25810  0.46180  Biso   1.000  H
  H253     1.0000 0.84340  0.79970  0.55520  Biso   1.000  H
  H254     1.0000 0.15660  0.20030  0.44480  Biso   1.000  H
  N15      1.0000 0.91080  0.81610  0.72730  Biso   1.000  N
  N16      1.0000 0.08920  0.18390  0.27270  Biso   1.000  N
  O7       1.0000 0.48510  0.81480  0.75840  Biso   1.000  O
  O8       1.0000 0.51490  0.18520  0.24160  Biso   1.000  O
  O9       1.0000 0.34500  0.91720  0.78980  Biso   1.000  O
  O10      1.0000 0.65500  0.08280  0.21020  Biso   1.000  O
  O11      1.0000 0.65720  0.83160  0.75840  Biso   1.000  O
  O12      1.0000 0.34280  0.16840  0.24160  Biso   1.000  O
  O13      1.0000 0.81540  0.48660  0.88630  Biso   1.000  O
  O14      1.0000 0.18460  0.51340  0.11370  Biso   1.000  O
  O15      1.0000 0.52880  0.91390  0.81390  Biso   1.000  O
  O16      1.0000 0.47120  0.08610  0.18610  Biso   1.000  O
  O17      1.0000 0.72260  0.38310  0.84290  Biso   1.000  O
  O18      1.0000 0.27740  0.61690  0.15710  Biso   1.000  O
  O19      1.0000 0.85390  0.56060  0.76970  Biso   1.000  O
  O20      1.0000 0.14610  0.43940  0.23030  Biso   1.000  O
  O21      1.0000 0.56300  0.79820  0.87750  Biso   1.000  O
  O22      1.0000 0.43700  0.20180  0.12250  Biso   1.000  O
  O23      1.0000 0.34660  0.77120  0.85190  Biso   1.000  O
  O24      1.0000 0.65340  0.22880  0.14810  Biso   1.000  O
  O25      1.0000 0.00800  0.52340  0.73270  Biso   1.000  O
  O26      1.0000 0.99200  0.47660  0.26730  Biso   1.000  O
  O27      1.0000 0.79020  0.81890  0.84550  Biso   1.000  O
  O28      1.0000 0.20980  0.18110  0.15450  Biso   1.000  O
  O29      1.0000 0.64820  0.52500  0.81450  Biso   1.000  O
  O30      1.0000 0.35180  0.47500  0.18550  Biso   1.000  O
  O31      1.0000 0.73160  0.94810  0.77430  Biso   1.000  O
  O32      1.0000 0.26840  0.05190  0.22570  Biso   1.000  O
  O33      1.0000 0.89200  0.42110  0.79390  Biso   1.000  O
  O34      1.0000 0.10800  0.57890  0.20610  Biso   1.000  O
  O35      1.0000 0.60320  0.02300  0.73380  Biso   1.000  O
  O36      1.0000 0.39680  0.97700  0.26620  Biso   1.000  O
  O37      1.0000 0.67900  0.90280  0.90140  Biso   1.000  O
  O38      1.0000 0.32100  0.09720  0.09860  Biso   1.000  O
  O39      1.0000 0.73250  0.47900  0.72290  Biso   1.000  O
  O40      1.0000 0.26750  0.52100  0.27710  Biso   1.000  O
  O41      1.0000 0.76910  0.25470  0.80830  Biso   1.000  O
  O42      1.0000 0.23090  0.74530  0.19170  Biso   1.000  O
  O43      1.0000 0.37700  0.86010  0.91660  Biso   1.000  O
  O44      1.0000 0.62300  0.13990  0.08340  Biso   1.000  O
  O45      1.0000 0.76680  0.37050  0.72060  Biso   1.000  O
  O46      1.0000 0.23320  0.62950  0.27940  Biso   1.000  O
  O47      1.0000 0.43300  0.99660  0.68240  Biso   1.000  O
  O48      1.0000 0.56700  0.00340  0.31760  Biso   1.000  O
  O49      1.0000 0.40960  0.05190  0.79070  Biso   1.000  O
  O50      1.0000 0.59040  0.94810  0.20930  Biso   1.000  O
  O51      1.0000 0.96840  0.32640  0.75530  Biso   1.000  O
  O52      1.0000 0.03160  0.67360  0.24470  Biso   1.000  O
  H255     1.0000 0.81800  0.81000  0.81240  Biso   1.000  H
  H256     1.0000 0.18200  0.19000  0.18760  Biso   1.000  H
  C145     1.0000 0.77300  0.67340  0.48020  Biso   1.000  C
  C146     1.0000 0.22700  0.32660  0.51980  Biso   1.000  C
  C147     1.0000 0.80600  0.76800  0.40800  Biso   1.000  C
  C148     1.0000 0.19400  0.23200  0.59200  Biso   1.000  C
  H257     1.0000 0.73950  0.78920  0.41750  Biso   1.000  H
  H258     1.0000 0.26050  0.21080  0.58250  Biso   1.000  H
  H259     1.0000 0.82660  0.78680  0.36540  Biso   1.000  H
  H260     1.0000 0.17340  0.21320  0.63460  Biso   1.000  H
  H261     1.0000 0.85730  0.77720  0.43370  Biso   1.000  H
  H262     1.0000 0.14270  0.22280  0.56630  Biso   1.000  H
  C149     1.0000 0.79500  0.69300  0.42000  Biso   1.000  C
  C150     1.0000 0.20500  0.30700  0.58000  Biso   1.000  C
  H263     1.0000 0.86420  0.67300  0.41120  Biso   1.000  H
  H264     1.0000 0.13580  0.32700  0.58880  Biso   1.000  H
  C151     1.0000 0.72100  0.67300  0.38000  Biso   1.000  C
  C152     1.0000 0.27900  0.32700  0.62000  Biso   1.000  C
  H265     1.0000 0.70920  0.62580  0.39470  Biso   1.000  H
  H266     1.0000 0.29080  0.37420  0.60530  Biso   1.000  H
  H267     1.0000 0.75090  0.68180  0.33820  Biso   1.000  H
  H268     1.0000 0.24910  0.31820  0.66180  Biso   1.000  H
  H269     1.0000 0.65640  0.69850  0.38090  Biso   1.000  H
  H270     1.0000 0.34360  0.30150  0.61910  Biso   1.000  H
  C153     1.0000 0.86300  0.88980  0.48100  Biso   1.000  C
  C154     1.0000 0.13700  0.11020  0.51900  Biso   1.000  C
  C155     1.0000 0.87460  0.93820  0.51560  Biso   1.000  C
  C156     1.0000 0.12540  0.06180  0.48440  Biso   1.000  C
  H271     1.0000 0.90330  0.97880  0.48780  Biso   1.000  H
  H272     1.0000 0.09670  0.02120  0.51220  Biso   1.000  H
  C157     1.0000 0.78590  0.95610  0.54480  Biso   1.000  C
  C158     1.0000 0.21410  0.04390  0.45520  Biso   1.000  C
  H273     1.0000 0.76620  0.00230  0.52620  Biso   1.000  H
  H274     1.0000 0.23380  0.99770  0.47380  Biso   1.000  H
  H275     1.0000 0.79760  0.95100  0.58760  Biso   1.000  H
  H276     1.0000 0.20240  0.04900  0.41240  Biso   1.000  H
  H277     1.0000 0.73080  0.92780  0.54120  Biso   1.000  H
  H278     1.0000 0.26920  0.07220  0.45880  Biso   1.000  H
  C159     1.0000 0.94500  0.91500  0.57200  Biso   1.000  C
  C160     1.0000 0.05500  0.08500  0.42800  Biso   1.000  C
  H279     1.0000 0.95320  0.95200  0.58970  Biso   1.000  H
  H280     1.0000 0.04680  0.04800  0.41030  Biso   1.000  H
  H281     1.0000 0.01210  0.89900  0.55830  Biso   1.000  H
  H282     1.0000 0.98790  0.10100  0.44170  Biso   1.000  H
  H283     1.0000 0.91230  0.87900  0.60210  Biso   1.000  H
  H284     1.0000 0.08770  0.12100  0.39790  Biso   1.000  H
