data_image0
_cell_length_a       11.9719
_cell_length_b       18.1814
_cell_length_c       27.799
_cell_angle_alpha    90
_cell_angle_beta     95.638
_cell_angle_gamma    90

_symmetry_space_group_name_H-M    "P 1"
_symmetry_int_tables_number       1

loop_
  _symmetry_equiv_pos_as_xyz
  'x, y, z'

loop_
  _atom_site_label
  _atom_site_occupancy
  _atom_site_fract_x
  _atom_site_fract_y
  _atom_site_fract_z
  _atom_site_thermal_displace_type
  _atom_site_B_iso_or_equiv
  _atom_site_type_symbol
  Ti1      1.0000 0.27243  0.38210  0.30809  Biso   1.000  Ti
  Ti2      1.0000 0.72757  0.88210  0.19191  Biso   1.000  Ti
  Ti3      1.0000 0.72757  0.61790  0.69191  Biso   1.000  Ti
  Ti4      1.0000 0.27243  0.11790  0.80809  Biso   1.000  Ti
  Ti5      1.0000 0.02231  0.42362  0.28811  Biso   1.000  Ti
  Ti6      1.0000 0.97769  0.92362  0.21189  Biso   1.000  Ti
  Ti7      1.0000 0.97769  0.57638  0.71189  Biso   1.000  Ti
  Ti8      1.0000 0.02231  0.07638  0.78811  Biso   1.000  Ti
  Ti9      1.0000 0.21194  0.49559  0.38654  Biso   1.000  Ti
  Ti10     1.0000 0.78806  0.99559  0.11346  Biso   1.000  Ti
  Ti11     1.0000 0.78806  0.50441  0.61346  Biso   1.000  Ti
  Ti12     1.0000 0.21194  0.00441  0.88654  Biso   1.000  Ti
  Cu1      1.0000 0.59044  0.96814  0.48086  Biso   1.000  Cu
  Cu2      1.0000 0.40956  0.46814  0.01914  Biso   1.000  Cu
  Cu3      1.0000 0.40956  0.03186  0.51914  Biso   1.000  Cu
  Cu4      1.0000 0.59044  0.53186  0.98086  Biso   1.000  Cu
  I1       1.0000 0.43444  0.04751  0.42574  Biso   1.000  I
  I2       1.0000 0.56556  0.54751  0.07426  Biso   1.000  I
  I3       1.0000 0.56556  0.95249  0.57426  Biso   1.000  I
  I4       1.0000 0.43444  0.45249  0.92574  Biso   1.000  I
  O1       1.0000 0.15370  0.45570  0.32283  Biso   1.000  O
  O2       1.0000 0.84630  0.95570  0.17717  Biso   1.000  O
  O3       1.0000 0.84630  0.54430  0.67717  Biso   1.000  O
  O4       1.0000 0.15370  0.04430  0.82283  Biso   1.000  O
  O5       1.0000 0.13610  0.35970  0.26176  Biso   1.000  O
  O6       1.0000 0.86390  0.85970  0.23824  Biso   1.000  O
  O7       1.0000 0.86390  0.64030  0.73824  Biso   1.000  O
  O8       1.0000 0.13610  0.14030  0.76176  Biso   1.000  O
  O9       1.0000 0.05480  0.53920  0.38927  Biso   1.000  O
  O10      1.0000 0.94520  0.03920  0.11073  Biso   1.000  O
  O11      1.0000 0.94520  0.46080  0.61073  Biso   1.000  O
  O12      1.0000 0.05480  0.96080  0.88927  Biso   1.000  O
  O13      1.0000 0.18970  0.31520  0.35804  Biso   1.000  O
  O14      1.0000 0.81030  0.81520  0.14196  Biso   1.000  O
  O15      1.0000 0.81030  0.68480  0.64196  Biso   1.000  O
  O16      1.0000 0.18970  0.18480  0.85804  Biso   1.000  O
  O17      1.0000 0.34520  0.43930  0.26889  Biso   1.000  O
  O18      1.0000 0.65480  0.93930  0.23111  Biso   1.000  O
  O19      1.0000 0.65480  0.56070  0.73111  Biso   1.000  O
  O20      1.0000 0.34520  0.06070  0.76889  Biso   1.000  O
  O21      1.0000 0.13880  0.39780  0.41139  Biso   1.000  O
  O22      1.0000 0.86120  0.89780  0.08861  Biso   1.000  O
  O23      1.0000 0.86120  0.60220  0.58861  Biso   1.000  O
  O24      1.0000 0.13880  0.10220  0.91139  Biso   1.000  O
  O25      1.0000 0.94050  0.50360  0.32392  Biso   1.000  O
  O26      1.0000 0.05950  0.00360  0.17608  Biso   1.000  O
  O27      1.0000 0.05950  0.49640  0.67608  Biso   1.000  O
  O28      1.0000 0.94050  0.99640  0.82392  Biso   1.000  O
  O29      1.0000 0.33910  0.43350  0.36856  Biso   1.000  O
  O30      1.0000 0.66090  0.93350  0.13144  Biso   1.000  O
  O31      1.0000 0.66090  0.56650  0.63144  Biso   1.000  O
  O32      1.0000 0.33910  0.06650  0.86856  Biso   1.000  O
  O33      1.0000 0.35570  0.30030  0.30269  Biso   1.000  O
  O34      1.0000 0.64430  0.80030  0.19731  Biso   1.000  O
  O35      1.0000 0.64430  0.69970  0.69731  Biso   1.000  O
  O36      1.0000 0.35570  0.19970  0.80269  Biso   1.000  O
  O37      1.0000 0.26420  0.58110  0.36590  Biso   1.000  O
  O38      1.0000 0.73580  0.08110  0.13410  Biso   1.000  O
  O39      1.0000 0.73580  0.41890  0.63410  Biso   1.000  O
  O40      1.0000 0.26420  0.91890  0.86590  Biso   1.000  O
  O41      1.0000 0.93540  0.35530  0.31035  Biso   1.000  O
  O42      1.0000 0.06460  0.85530  0.18965  Biso   1.000  O
  O43      1.0000 0.06460  0.64470  0.68965  Biso   1.000  O
  O44      1.0000 0.93540  0.14470  0.81035  Biso   1.000  O
  O45      1.0000 0.25220  0.50900  0.45024  Biso   1.000  O
  O46      1.0000 0.74780  0.00900  0.04976  Biso   1.000  O
  O47      1.0000 0.74780  0.49100  0.54976  Biso   1.000  O
  O48      1.0000 0.25220  0.99100  0.95024  Biso   1.000  O
  O49      1.0000 0.96640  0.46460  0.23322  Biso   1.000  O
  O50      1.0000 0.03360  0.96460  0.26678  Biso   1.000  O
  O51      1.0000 0.03360  0.53540  0.76678  Biso   1.000  O
  O52      1.0000 0.96640  0.03540  0.73322  Biso   1.000  O
  C1       1.0000 0.96630  0.54400  0.36130  Biso   1.000  C
  C2       1.0000 0.03370  0.04400  0.13870  Biso   1.000  C
  C3       1.0000 0.03370  0.45600  0.63870  Biso   1.000  C
  C4       1.0000 0.96630  0.95600  0.86130  Biso   1.000  C
  N1       1.0000 0.58450  0.87070  0.44170  Biso   1.000  N
  N2       1.0000 0.41550  0.37070  0.05830  Biso   1.000  N
  N3       1.0000 0.41550  0.12930  0.55830  Biso   1.000  N
  N4       1.0000 0.58450  0.62930  0.94170  Biso   1.000  N
  N5       1.0000 0.54340  0.87020  0.39390  Biso   1.000  N
  N6       1.0000 0.45660  0.37020  0.10610  Biso   1.000  N
  N7       1.0000 0.45660  0.12980  0.60610  Biso   1.000  N
  N8       1.0000 0.54340  0.62980  0.89390  Biso   1.000  N
  H1       1.0000 0.49570  0.90160  0.38110  Biso   1.000  H
  H2       1.0000 0.50430  0.40160  0.11890  Biso   1.000  H
  H3       1.0000 0.50430  0.09840  0.61890  Biso   1.000  H
  H4       1.0000 0.49570  0.59840  0.88110  Biso   1.000  H
  C5       1.0000 0.70260  0.66120  0.35710  Biso   1.000  C
  C6       1.0000 0.29740  0.16120  0.14290  Biso   1.000  C
  C7       1.0000 0.29740  0.33880  0.64290  Biso   1.000  C
  C8       1.0000 0.70260  0.83880  0.85710  Biso   1.000  C
  H5       1.0000 0.63150  0.66250  0.34030  Biso   1.000  H
  H6       1.0000 0.36850  0.16250  0.15970  Biso   1.000  H
  H7       1.0000 0.36850  0.33750  0.65970  Biso   1.000  H
  H8       1.0000 0.63150  0.83750  0.84030  Biso   1.000  H
  C9       1.0000 0.77820  0.60610  0.34680  Biso   1.000  C
  C10      1.0000 0.22180  0.10610  0.15320  Biso   1.000  C
  C11      1.0000 0.22180  0.39390  0.65320  Biso   1.000  C
  C12      1.0000 0.77820  0.89390  0.84680  Biso   1.000  C
  H9       1.0000 0.75750  0.57210  0.32260  Biso   1.000  H
  H10      1.0000 0.24250  0.07210  0.17740  Biso   1.000  H
  H11      1.0000 0.24250  0.42790  0.67740  Biso   1.000  H
  H12      1.0000 0.75750  0.92790  0.82260  Biso   1.000  H
  C13      1.0000 0.88320  0.60130  0.37220  Biso   1.000  C
  C14      1.0000 0.11680  0.10130  0.12780  Biso   1.000  C
  C15      1.0000 0.11680  0.39870  0.62780  Biso   1.000  C
  C16      1.0000 0.88320  0.89870  0.87220  Biso   1.000  C
  C17      1.0000 0.91130  0.65300  0.40810  Biso   1.000  C
  C18      1.0000 0.08870  0.15300  0.09190  Biso   1.000  C
  C19      1.0000 0.08870  0.34700  0.59190  Biso   1.000  C
  C20      1.0000 0.91130  0.84700  0.90810  Biso   1.000  C
  H13      1.0000 0.98070  0.64980  0.42630  Biso   1.000  H
  H14      1.0000 0.01930  0.14980  0.07370  Biso   1.000  H
  H15      1.0000 0.01930  0.35020  0.57370  Biso   1.000  H
  H16      1.0000 0.98070  0.85020  0.92630  Biso   1.000  H
  C21      1.0000 0.83870  0.70890  0.41750  Biso   1.000  C
  C22      1.0000 0.16130  0.20890  0.08250  Biso   1.000  C
  C23      1.0000 0.16130  0.29110  0.58250  Biso   1.000  C
  C24      1.0000 0.83870  0.79110  0.91750  Biso   1.000  C
  H17      1.0000 0.86080  0.74370  0.44110  Biso   1.000  H
  H18      1.0000 0.13920  0.24370  0.05890  Biso   1.000  H
  H19      1.0000 0.13920  0.25630  0.55890  Biso   1.000  H
  H20      1.0000 0.86080  0.75630  0.94110  Biso   1.000  H
  C25      1.0000 0.73300  0.71410  0.39220  Biso   1.000  C
  C26      1.0000 0.26700  0.21410  0.10780  Biso   1.000  C
  C27      1.0000 0.26700  0.28590  0.60780  Biso   1.000  C
  C28      1.0000 0.73300  0.78590  0.89220  Biso   1.000  C
  C29      1.0000 0.13440  0.31810  0.21720  Biso   1.000  C
  C30      1.0000 0.86560  0.81810  0.28280  Biso   1.000  C
  C31      1.0000 0.86560  0.68190  0.78280  Biso   1.000  C
  C32      1.0000 0.13440  0.18190  0.71720  Biso   1.000  C
  H21      1.0000 0.19660  0.28280  0.22050  Biso   1.000  H
  H22      1.0000 0.80340  0.78280  0.27950  Biso   1.000  H
  H23      1.0000 0.80340  0.71720  0.77950  Biso   1.000  H
  H24      1.0000 0.19660  0.21720  0.72050  Biso   1.000  H
  C33      1.0000 0.14030  0.33290  0.39410  Biso   1.000  C
  C34      1.0000 0.85970  0.83290  0.10590  Biso   1.000  C
  C35      1.0000 0.85970  0.66710  0.60590  Biso   1.000  C
  C36      1.0000 0.14030  0.16710  0.89410  Biso   1.000  C
  C37      1.0000 0.37390  0.22730  0.32070  Biso   1.000  C
  C38      1.0000 0.62610  0.72730  0.17930  Biso   1.000  C
  C39      1.0000 0.62610  0.77270  0.67930  Biso   1.000  C
  C40      1.0000 0.37390  0.27270  0.82070  Biso   1.000  C
  H25      1.0000 0.35190  0.22530  0.35370  Biso   1.000  H
  H26      1.0000 0.64810  0.72530  0.14630  Biso   1.000  H
  H27      1.0000 0.64810  0.77470  0.64630  Biso   1.000  H
  H28      1.0000 0.35190  0.27470  0.85370  Biso   1.000  H
  C41      1.0000 0.44540  0.42520  0.39810  Biso   1.000  C
  C42      1.0000 0.55460  0.92520  0.10190  Biso   1.000  C
  C43      1.0000 0.55460  0.57480  0.60190  Biso   1.000  C
  C44      1.0000 0.44540  0.07480  0.89810  Biso   1.000  C
  H29      1.0000 0.45390  0.46710  0.42030  Biso   1.000  H
  H30      1.0000 0.54610  0.96710  0.07970  Biso   1.000  H
  H31      1.0000 0.54610  0.53290  0.57970  Biso   1.000  H
  H32      1.0000 0.45390  0.03290  0.92030  Biso   1.000  H
  C45      1.0000 0.07540  0.27740  0.41800  Biso   1.000  C
  C46      1.0000 0.92460  0.77740  0.08200  Biso   1.000  C
  C47      1.0000 0.92460  0.72260  0.58200  Biso   1.000  C
  C48      1.0000 0.07540  0.22260  0.91800  Biso   1.000  C
  C49      1.0000 0.55250  0.80710  0.31640  Biso   1.000  C
  C50      1.0000 0.44750  0.30710  0.18360  Biso   1.000  C
  C51      1.0000 0.44750  0.19290  0.68360  Biso   1.000  C
  C52      1.0000 0.55250  0.69290  0.81640  Biso   1.000  C
  H33      1.0000 0.48560  0.77790  0.31150  Biso   1.000  H
  H34      1.0000 0.51440  0.27790  0.18850  Biso   1.000  H
  H35      1.0000 0.51440  0.22210  0.68850  Biso   1.000  H
  H36      1.0000 0.48560  0.72210  0.81150  Biso   1.000  H
  H37      1.0000 0.61170  0.78370  0.30120  Biso   1.000  H
  H38      1.0000 0.38830  0.28370  0.19880  Biso   1.000  H
  H39      1.0000 0.38830  0.21630  0.69880  Biso   1.000  H
  H40      1.0000 0.61170  0.71630  0.80120  Biso   1.000  H
  H41      1.0000 0.53830  0.85500  0.30250  Biso   1.000  H
  H42      1.0000 0.46170  0.35500  0.19750  Biso   1.000  H
  H43      1.0000 0.46170  0.14500  0.69750  Biso   1.000  H
  H44      1.0000 0.53830  0.64500  0.80250  Biso   1.000  H
  C53      1.0000 0.07760  0.20370  0.40430  Biso   1.000  C
  C54      1.0000 0.92240  0.70370  0.09570  Biso   1.000  C
  C55      1.0000 0.92240  0.79630  0.59570  Biso   1.000  C
  C56      1.0000 0.07760  0.29630  0.90430  Biso   1.000  C
  H45      1.0000 0.12290  0.18850  0.38080  Biso   1.000  H
  H46      1.0000 0.87710  0.68850  0.11920  Biso   1.000  H
  H47      1.0000 0.87710  0.81150  0.61920  Biso   1.000  H
  H48      1.0000 0.12290  0.31150  0.88080  Biso   1.000  H
  C57      1.0000 0.02810  0.27670  0.20840  Biso   1.000  C
  C58      1.0000 0.97190  0.77670  0.29160  Biso   1.000  C
  C59      1.0000 0.97190  0.72330  0.79160  Biso   1.000  C
  C60      1.0000 0.02810  0.22330  0.70840  Biso   1.000  C
  H49      1.0000 0.02000  0.24440  0.23510  Biso   1.000  H
  H50      1.0000 0.98000  0.74440  0.26490  Biso   1.000  H
  H51      1.0000 0.98000  0.75560  0.76490  Biso   1.000  H
  H52      1.0000 0.02000  0.25560  0.73510  Biso   1.000  H
  H53      1.0000 0.02900  0.24820  0.17930  Biso   1.000  H
  H54      1.0000 0.97100  0.74820  0.32070  Biso   1.000  H
  H55      1.0000 0.97100  0.75180  0.82070  Biso   1.000  H
  H56      1.0000 0.02900  0.25180  0.67930  Biso   1.000  H
  H57      1.0000 0.96620  0.31050  0.20490  Biso   1.000  H
  H58      1.0000 0.03380  0.81050  0.29510  Biso   1.000  H
  H59      1.0000 0.03380  0.68950  0.79510  Biso   1.000  H
  H60      1.0000 0.96620  0.18950  0.70490  Biso   1.000  H
  C61      1.0000 0.65380  0.81270  0.44700  Biso   1.000  C
  C62      1.0000 0.34620  0.31270  0.05300  Biso   1.000  C
  C63      1.0000 0.34620  0.18730  0.55300  Biso   1.000  C
  C64      1.0000 0.65380  0.68730  0.94700  Biso   1.000  C
  C65      1.0000 0.49780  0.20980  0.32240  Biso   1.000  C
  C66      1.0000 0.50220  0.70980  0.17760  Biso   1.000  C
  C67      1.0000 0.50220  0.79020  0.67760  Biso   1.000  C
  C68      1.0000 0.49780  0.29020  0.82240  Biso   1.000  C
  H61      1.0000 0.52210  0.21560  0.29070  Biso   1.000  H
  H62      1.0000 0.47790  0.71560  0.20930  Biso   1.000  H
  H63      1.0000 0.47790  0.78440  0.70930  Biso   1.000  H
  H64      1.0000 0.52210  0.28440  0.79070  Biso   1.000  H
  H65      1.0000 0.51060  0.16010  0.33310  Biso   1.000  H
  H66      1.0000 0.48940  0.66010  0.16690  Biso   1.000  H
  H67      1.0000 0.48940  0.83990  0.66690  Biso   1.000  H
  H68      1.0000 0.51060  0.33990  0.83310  Biso   1.000  H
  H69      1.0000 0.53930  0.24280  0.34440  Biso   1.000  H
  H70      1.0000 0.46070  0.74280  0.15560  Biso   1.000  H
  H71      1.0000 0.46070  0.75720  0.65560  Biso   1.000  H
  H72      1.0000 0.53930  0.25720  0.84440  Biso   1.000  H
  C69      1.0000 0.44230  0.35570  0.42800  Biso   1.000  C
  C70      1.0000 0.55770  0.85570  0.07200  Biso   1.000  C
  C71      1.0000 0.55770  0.64430  0.57200  Biso   1.000  C
  C72      1.0000 0.44230  0.14430  0.92800  Biso   1.000  C
  H73      1.0000 0.38040  0.35810  0.44750  Biso   1.000  H
  H74      1.0000 0.61960  0.85810  0.05250  Biso   1.000  H
  H75      1.0000 0.61960  0.64190  0.55250  Biso   1.000  H
  H76      1.0000 0.38040  0.14190  0.94750  Biso   1.000  H
  H77      1.0000 0.51120  0.35120  0.44860  Biso   1.000  H
  H78      1.0000 0.48880  0.85120  0.05140  Biso   1.000  H
  H79      1.0000 0.48880  0.64880  0.55140  Biso   1.000  H
  H80      1.0000 0.51120  0.14880  0.94860  Biso   1.000  H
  H81      1.0000 0.43340  0.31380  0.40700  Biso   1.000  H
  H82      1.0000 0.56660  0.81380  0.09300  Biso   1.000  H
  H83      1.0000 0.56660  0.68620  0.59300  Biso   1.000  H
  H84      1.0000 0.43340  0.18620  0.90700  Biso   1.000  H
  C73      1.0000 0.22620  0.48440  0.49670  Biso   1.000  C
  C74      1.0000 0.77380  0.98440  0.00330  Biso   1.000  C
  C75      1.0000 0.77380  0.51560  0.50330  Biso   1.000  C
  C76      1.0000 0.22620  0.01560  0.99670  Biso   1.000  C
  H85      1.0000 0.18290  0.43880  0.49220  Biso   1.000  H
  H86      1.0000 0.81710  0.93880  0.00780  Biso   1.000  H
  H87      1.0000 0.81710  0.56120  0.50780  Biso   1.000  H
  H88      1.0000 0.18290  0.06120  0.99220  Biso   1.000  H
  C77      1.0000 0.15370  0.37110  0.17630  Biso   1.000  C
  C78      1.0000 0.84630  0.87110  0.32370  Biso   1.000  C
  C79      1.0000 0.84630  0.62890  0.82370  Biso   1.000  C
  C80      1.0000 0.15370  0.12890  0.67630  Biso   1.000  C
  H89      1.0000 0.09070  0.40380  0.17090  Biso   1.000  H
  H90      1.0000 0.90930  0.90380  0.32910  Biso   1.000  H
  H91      1.0000 0.90930  0.59620  0.82910  Biso   1.000  H
  H92      1.0000 0.09070  0.09620  0.67090  Biso   1.000  H
  H93      1.0000 0.16170  0.34370  0.14730  Biso   1.000  H
  H94      1.0000 0.83830  0.84370  0.35270  Biso   1.000  H
  H95      1.0000 0.83830  0.65630  0.85270  Biso   1.000  H
  H96      1.0000 0.16170  0.15630  0.64730  Biso   1.000  H
  H97      1.0000 0.22060  0.39910  0.18480  Biso   1.000  H
  H98      1.0000 0.77940  0.89910  0.31520  Biso   1.000  H
  H99      1.0000 0.77940  0.60090  0.81520  Biso   1.000  H
  H100     1.0000 0.22060  0.10090  0.68480  Biso   1.000  H
  C81      1.0000 0.82350  0.33390  0.31890  Biso   1.000  C
  C82      1.0000 0.17650  0.83390  0.18110  Biso   1.000  C
  C83      1.0000 0.17650  0.66610  0.68110  Biso   1.000  C
  C84      1.0000 0.82350  0.16610  0.81890  Biso   1.000  C
  H101     1.0000 0.80370  0.35990  0.34780  Biso   1.000  H
  H102     1.0000 0.19630  0.85990  0.15220  Biso   1.000  H
  H103     1.0000 0.19630  0.64010  0.65220  Biso   1.000  H
  H104     1.0000 0.80370  0.14010  0.84780  Biso   1.000  H
  C85      1.0000 0.01110  0.15290  0.42620  Biso   1.000  C
  C86      1.0000 0.98890  0.65290  0.07380  Biso   1.000  C
  C87      1.0000 0.98890  0.84710  0.57380  Biso   1.000  C
  C88      1.0000 0.01110  0.34710  0.92620  Biso   1.000  C
  H105     1.0000 0.01210  0.10350  0.41740  Biso   1.000  H
  H106     1.0000 0.98790  0.60350  0.08260  Biso   1.000  H
  H107     1.0000 0.98790  0.89650  0.58260  Biso   1.000  H
  H108     1.0000 0.01210  0.39650  0.91740  Biso   1.000  H
  C89      1.0000 0.38300  0.51390  0.26410  Biso   1.000  C
  C90      1.0000 0.61700  0.01390  0.23590  Biso   1.000  C
  C91      1.0000 0.61700  0.48610  0.73590  Biso   1.000  C
  C92      1.0000 0.38300  0.98610  0.76410  Biso   1.000  C
  H109     1.0000 0.40460  0.53410  0.29630  Biso   1.000  H
  H110     1.0000 0.59540  0.03410  0.20370  Biso   1.000  H
  H111     1.0000 0.59540  0.46590  0.70370  Biso   1.000  H
  H112     1.0000 0.40460  0.96590  0.79630  Biso   1.000  H
  C93      1.0000 0.00920  0.29660  0.45350  Biso   1.000  C
  C94      1.0000 0.99080  0.79660  0.04650  Biso   1.000  C
  C95      1.0000 0.99080  0.70340  0.54650  Biso   1.000  C
  C96      1.0000 0.00920  0.20340  0.95350  Biso   1.000  C
  H113     1.0000 0.00870  0.34540  0.46370  Biso   1.000  H
  H114     1.0000 0.99130  0.84540  0.03630  Biso   1.000  H
  H115     1.0000 0.99130  0.65460  0.53630  Biso   1.000  H
  H116     1.0000 0.00870  0.15460  0.96370  Biso   1.000  H
  C97      1.0000 0.53940  0.42800  0.36660  Biso   1.000  C
  C98      1.0000 0.46060  0.92800  0.13340  Biso   1.000  C
  C99      1.0000 0.46060  0.57200  0.63340  Biso   1.000  C
  C100     1.0000 0.53940  0.07200  0.86660  Biso   1.000  C
  H117     1.0000 0.52320  0.39580  0.33950  Biso   1.000  H
  H118     1.0000 0.47680  0.89580  0.16050  Biso   1.000  H
  H119     1.0000 0.47680  0.60420  0.66050  Biso   1.000  H
  H120     1.0000 0.52320  0.10420  0.83950  Biso   1.000  H
  H121     1.0000 0.60770  0.41260  0.38490  Biso   1.000  H
  H122     1.0000 0.39230  0.91260  0.11510  Biso   1.000  H
  H123     1.0000 0.39230  0.58740  0.61510  Biso   1.000  H
  H124     1.0000 0.60770  0.08740  0.88490  Biso   1.000  H
  H125     1.0000 0.54790  0.47740  0.35540  Biso   1.000  H
  H126     1.0000 0.45210  0.97740  0.14460  Biso   1.000  H
  H127     1.0000 0.45210  0.52260  0.64460  Biso   1.000  H
  H128     1.0000 0.54790  0.02260  0.85540  Biso   1.000  H
  C101     1.0000 0.28550  0.55880  0.23990  Biso   1.000  C
  C102     1.0000 0.71450  0.05880  0.26010  Biso   1.000  C
  C103     1.0000 0.71450  0.44120  0.76010  Biso   1.000  C
  C104     1.0000 0.28550  0.94120  0.73990  Biso   1.000  C
  H129     1.0000 0.25500  0.53440  0.21090  Biso   1.000  H
  H130     1.0000 0.74500  0.03440  0.28910  Biso   1.000  H
  H131     1.0000 0.74500  0.46560  0.78910  Biso   1.000  H
  H132     1.0000 0.25500  0.96560  0.71090  Biso   1.000  H
  H133     1.0000 0.31180  0.60680  0.23200  Biso   1.000  H
  H134     1.0000 0.68820  0.10680  0.26800  Biso   1.000  H
  H135     1.0000 0.68820  0.39320  0.76800  Biso   1.000  H
  H136     1.0000 0.31180  0.89320  0.73200  Biso   1.000  H
  H137     1.0000 0.22830  0.56360  0.26160  Biso   1.000  H
  H138     1.0000 0.77170  0.06360  0.23840  Biso   1.000  H
  H139     1.0000 0.77170  0.43640  0.73840  Biso   1.000  H
  H140     1.0000 0.22830  0.93640  0.76160  Biso   1.000  H
  C105     1.0000 0.32740  0.46840  0.52740  Biso   1.000  C
  C106     1.0000 0.67260  0.96840  0.97260  Biso   1.000  C
  C107     1.0000 0.67260  0.53160  0.47260  Biso   1.000  C
  C108     1.0000 0.32740  0.03160  0.02740  Biso   1.000  C
  H141     1.0000 0.36000  0.42370  0.51690  Biso   1.000  H
  H142     1.0000 0.64000  0.92370  0.98310  Biso   1.000  H
  H143     1.0000 0.64000  0.57630  0.48310  Biso   1.000  H
  H144     1.0000 0.36000  0.07630  0.01690  Biso   1.000  H
  H145     1.0000 0.30990  0.46290  0.56020  Biso   1.000  H
  H146     1.0000 0.69010  0.96290  0.93980  Biso   1.000  H
  H147     1.0000 0.69010  0.53710  0.43980  Biso   1.000  H
  H148     1.0000 0.30990  0.03710  0.06020  Biso   1.000  H
  H149     1.0000 0.37990  0.50800  0.52560  Biso   1.000  H
  H150     1.0000 0.62010  0.00800  0.97440  Biso   1.000  H
  H151     1.0000 0.62010  0.49200  0.47440  Biso   1.000  H
  H152     1.0000 0.37990  0.99200  0.02560  Biso   1.000  H
  C109     1.0000 0.94360  0.17600  0.46120  Biso   1.000  C
  C110     1.0000 0.05640  0.67600  0.03880  Biso   1.000  C
  C111     1.0000 0.05640  0.82400  0.53880  Biso   1.000  C
  C112     1.0000 0.94360  0.32400  0.96120  Biso   1.000  C
  C113     1.0000 0.74370  0.36130  0.27490  Biso   1.000  C
  C114     1.0000 0.25630  0.86130  0.22510  Biso   1.000  C
  C115     1.0000 0.25630  0.63870  0.72510  Biso   1.000  C
  C116     1.0000 0.74370  0.13870  0.77490  Biso   1.000  C
  H153     1.0000 0.75940  0.41200  0.26860  Biso   1.000  H
  H154     1.0000 0.24060  0.91200  0.23140  Biso   1.000  H
  H155     1.0000 0.24060  0.58800  0.73140  Biso   1.000  H
  H156     1.0000 0.75940  0.08800  0.76860  Biso   1.000  H
  H157     1.0000 0.66720  0.35650  0.28210  Biso   1.000  H
  H158     1.0000 0.33280  0.85650  0.21790  Biso   1.000  H
  H159     1.0000 0.33280  0.64350  0.71790  Biso   1.000  H
  H160     1.0000 0.66720  0.14350  0.78210  Biso   1.000  H
  H161     1.0000 0.75530  0.33230  0.24700  Biso   1.000  H
  H162     1.0000 0.24470  0.83230  0.25300  Biso   1.000  H
  H163     1.0000 0.24470  0.66770  0.75300  Biso   1.000  H
  H164     1.0000 0.75530  0.16770  0.74700  Biso   1.000  H
  C117     1.0000 0.79510  0.06290  0.45430  Biso   1.000  C
  C118     1.0000 0.20490  0.56290  0.04570  Biso   1.000  C
  C119     1.0000 0.20490  0.93710  0.54570  Biso   1.000  C
  C120     1.0000 0.79510  0.43710  0.95430  Biso   1.000  C
  C121     1.0000 0.94410  0.24670  0.47460  Biso   1.000  C
  C122     1.0000 0.05590  0.74670  0.02540  Biso   1.000  C
  C123     1.0000 0.05590  0.75330  0.52540  Biso   1.000  C
  C124     1.0000 0.94410  0.25330  0.97460  Biso   1.000  C
  H165     1.0000 0.89980  0.26190  0.49840  Biso   1.000  H
  H166     1.0000 0.10020  0.76190  0.00160  Biso   1.000  H
  H167     1.0000 0.10020  0.73810  0.50160  Biso   1.000  H
  H168     1.0000 0.89980  0.23810  0.99840  Biso   1.000  H
  C125     1.0000 0.29040  0.65280  0.38420  Biso   1.000  C
  C126     1.0000 0.70960  0.15280  0.11580  Biso   1.000  C
  C127     1.0000 0.70960  0.34720  0.61580  Biso   1.000  C
  C128     1.0000 0.29040  0.84720  0.88420  Biso   1.000  C
  H169     1.0000 0.23900  0.66420  0.40850  Biso   1.000  H
  H170     1.0000 0.76100  0.16420  0.09150  Biso   1.000  H
  H171     1.0000 0.76100  0.33580  0.59150  Biso   1.000  H
  H172     1.0000 0.23900  0.83580  0.90850  Biso   1.000  H
  C129     1.0000 0.15400  0.54030  0.51730  Biso   1.000  C
  C130     1.0000 0.84600  0.04030  0.98270  Biso   1.000  C
  C131     1.0000 0.84600  0.45970  0.48270  Biso   1.000  C
  C132     1.0000 0.15400  0.95970  0.01730  Biso   1.000  C
  H173     1.0000 0.18550  0.58840  0.51370  Biso   1.000  H
  H174     1.0000 0.81450  0.08840  0.98630  Biso   1.000  H
  H175     1.0000 0.81450  0.41160  0.48630  Biso   1.000  H
  H176     1.0000 0.18550  0.91160  0.01370  Biso   1.000  H
  H177     1.0000 0.14990  0.53030  0.55100  Biso   1.000  H
  H178     1.0000 0.85010  0.03030  0.94900  Biso   1.000  H
  H179     1.0000 0.85010  0.46970  0.44900  Biso   1.000  H
  H180     1.0000 0.14990  0.96970  0.05100  Biso   1.000  H
  H181     1.0000 0.08010  0.53850  0.50050  Biso   1.000  H
  H182     1.0000 0.91990  0.03850  0.99950  Biso   1.000  H
  H183     1.0000 0.91990  0.46150  0.49950  Biso   1.000  H
  H184     1.0000 0.08010  0.96150  0.00050  Biso   1.000  H
  C133     1.0000 0.48520  0.51190  0.23620  Biso   1.000  C
  C134     1.0000 0.51480  0.01190  0.26380  Biso   1.000  C
  C135     1.0000 0.51480  0.48810  0.76380  Biso   1.000  C
  C136     1.0000 0.48520  0.98810  0.73620  Biso   1.000  C
  H185     1.0000 0.54240  0.48210  0.25330  Biso   1.000  H
  H186     1.0000 0.45760  0.98210  0.24670  Biso   1.000  H
  H187     1.0000 0.45760  0.51790  0.74670  Biso   1.000  H
  H188     1.0000 0.54240  0.01790  0.75330  Biso   1.000  H
  H189     1.0000 0.51310  0.56090  0.23280  Biso   1.000  H
  H190     1.0000 0.48690  0.06090  0.26720  Biso   1.000  H
  H191     1.0000 0.48690  0.43910  0.76720  Biso   1.000  H
  H192     1.0000 0.51310  0.93910  0.73280  Biso   1.000  H
  H193     1.0000 0.46510  0.49120  0.20480  Biso   1.000  H
  H194     1.0000 0.53490  0.99120  0.29520  Biso   1.000  H
  H195     1.0000 0.53490  0.50880  0.79520  Biso   1.000  H
  H196     1.0000 0.46510  0.00880  0.70480  Biso   1.000  H
  C137     1.0000 0.91350  0.52540  0.20830  Biso   1.000  C
  C138     1.0000 0.08650  0.02540  0.29170  Biso   1.000  C
  C139     1.0000 0.08650  0.47460  0.79170  Biso   1.000  C
  C140     1.0000 0.91350  0.97460  0.70830  Biso   1.000  C
  H197     1.0000 0.85470  0.53970  0.22860  Biso   1.000  H
  H198     1.0000 0.14530  0.03970  0.27140  Biso   1.000  H
  H199     1.0000 0.14530  0.46030  0.77140  Biso   1.000  H
  H200     1.0000 0.85470  0.96030  0.72860  Biso   1.000  H
  C141     1.0000 0.85660  0.51000  0.16550  Biso   1.000  C
  C142     1.0000 0.14340  0.01000  0.33450  Biso   1.000  C
  C143     1.0000 0.14340  0.49000  0.83450  Biso   1.000  C
  C144     1.0000 0.85660  0.99000  0.66550  Biso   1.000  C
  H201     1.0000 0.90830  0.49670  0.14270  Biso   1.000  H
  H202     1.0000 0.09170  0.99670  0.35730  Biso   1.000  H
  H203     1.0000 0.09170  0.50330  0.85730  Biso   1.000  H
  H204     1.0000 0.90830  0.00330  0.64270  Biso   1.000  H
  H205     1.0000 0.81450  0.55250  0.15400  Biso   1.000  H
  H206     1.0000 0.18550  0.05250  0.34600  Biso   1.000  H
  H207     1.0000 0.18550  0.44750  0.84600  Biso   1.000  H
  H208     1.0000 0.81450  0.94750  0.65400  Biso   1.000  H
  H209     1.0000 0.80610  0.46990  0.16930  Biso   1.000  H
  H210     1.0000 0.19390  0.96990  0.33070  Biso   1.000  H
  H211     1.0000 0.19390  0.53010  0.83070  Biso   1.000  H
  H212     1.0000 0.80610  0.03010  0.66930  Biso   1.000  H
  C145     1.0000 0.81780  0.25810  0.32770  Biso   1.000  C
  C146     1.0000 0.18220  0.75810  0.17230  Biso   1.000  C
  C147     1.0000 0.18220  0.74190  0.67230  Biso   1.000  C
  C148     1.0000 0.81780  0.24190  0.82770  Biso   1.000  C
  H213     1.0000 0.81740  0.23180  0.29770  Biso   1.000  H
  H214     1.0000 0.18260  0.73180  0.20230  Biso   1.000  H
  H215     1.0000 0.18260  0.76820  0.70230  Biso   1.000  H
  H216     1.0000 0.81740  0.26820  0.79770  Biso   1.000  H
  H217     1.0000 0.75030  0.24720  0.34230  Biso   1.000  H
  H218     1.0000 0.24970  0.74720  0.15770  Biso   1.000  H
  H219     1.0000 0.24970  0.75280  0.65770  Biso   1.000  H
  H220     1.0000 0.75030  0.25280  0.84230  Biso   1.000  H
  H221     1.0000 0.88180  0.24330  0.34900  Biso   1.000  H
  H222     1.0000 0.11820  0.74330  0.15100  Biso   1.000  H
  H223     1.0000 0.11820  0.75670  0.65100  Biso   1.000  H
  H224     1.0000 0.88180  0.25670  0.84900  Biso   1.000  H
  C149     1.0000 0.99040  0.59170  0.21030  Biso   1.000  C
  C150     1.0000 0.00960  0.09170  0.28970  Biso   1.000  C
  C151     1.0000 0.00960  0.40830  0.78970  Biso   1.000  C
  C152     1.0000 0.99040  0.90830  0.71030  Biso   1.000  C
  H225     1.0000 0.02390  0.59850  0.24280  Biso   1.000  H
  H226     1.0000 0.97610  0.09850  0.25720  Biso   1.000  H
  H227     1.0000 0.97610  0.40150  0.75720  Biso   1.000  H
  H228     1.0000 0.02390  0.90150  0.74280  Biso   1.000  H
  H229     1.0000 0.94790  0.63470  0.20020  Biso   1.000  H
  H230     1.0000 0.05210  0.13470  0.29980  Biso   1.000  H
  H231     1.0000 0.05210  0.36530  0.79980  Biso   1.000  H
  H232     1.0000 0.94790  0.86530  0.70020  Biso   1.000  H
  H233     1.0000 0.04830  0.58400  0.18930  Biso   1.000  H
  H234     1.0000 0.95170  0.08400  0.31070  Biso   1.000  H
  H235     1.0000 0.95170  0.41600  0.81070  Biso   1.000  H
  H236     1.0000 0.04830  0.91600  0.68930  Biso   1.000  H
  C153     1.0000 0.40790  0.65650  0.40820  Biso   1.000  C
  C154     1.0000 0.59210  0.15650  0.09180  Biso   1.000  C
  C155     1.0000 0.59210  0.34350  0.59180  Biso   1.000  C
  C156     1.0000 0.40790  0.84350  0.90820  Biso   1.000  C
  H237     1.0000 0.43560  0.60760  0.41460  Biso   1.000  H
  H238     1.0000 0.56440  0.10760  0.08540  Biso   1.000  H
  H239     1.0000 0.56440  0.39240  0.58540  Biso   1.000  H
  H240     1.0000 0.43560  0.89240  0.91460  Biso   1.000  H
  H241     1.0000 0.40840  0.68310  0.43800  Biso   1.000  H
  H242     1.0000 0.59160  0.18310  0.06200  Biso   1.000  H
  H243     1.0000 0.59160  0.31690  0.56200  Biso   1.000  H
  H244     1.0000 0.40840  0.81690  0.93800  Biso   1.000  H
  H245     1.0000 0.45490  0.68120  0.38730  Biso   1.000  H
  H246     1.0000 0.54510  0.18120  0.11270  Biso   1.000  H
  H247     1.0000 0.54510  0.31880  0.61270  Biso   1.000  H
  H248     1.0000 0.45490  0.81880  0.88730  Biso   1.000  H
  C157     1.0000 0.70940  0.79520  0.49580  Biso   1.000  C
  C158     1.0000 0.29060  0.29520  0.00420  Biso   1.000  C
  C159     1.0000 0.29060  0.20480  0.50420  Biso   1.000  C
  C160     1.0000 0.70940  0.70480  0.99580  Biso   1.000  C
  H249     1.0000 0.77720  0.82340  0.50150  Biso   1.000  H
  H250     1.0000 0.22280  0.32340  0.99850  Biso   1.000  H
  H251     1.0000 0.22280  0.17660  0.49850  Biso   1.000  H
  H252     1.0000 0.77720  0.67660  0.00150  Biso   1.000  H
  H253     1.0000 0.72720  0.74370  0.49760  Biso   1.000  H
  H254     1.0000 0.27280  0.24370  0.00240  Biso   1.000  H
  H255     1.0000 0.27280  0.25630  0.50240  Biso   1.000  H
  H256     1.0000 0.72720  0.75630  0.99760  Biso   1.000  H
  H257     1.0000 0.65990  0.80720  0.51980  Biso   1.000  H
  H258     1.0000 0.34010  0.30720  0.98020  Biso   1.000  H
  H259     1.0000 0.34010  0.19280  0.48020  Biso   1.000  H
  H260     1.0000 0.65990  0.69280  0.01980  Biso   1.000  H
  C161     1.0000 0.58650  0.81460  0.36950  Biso   1.000  C
  C162     1.0000 0.41350  0.31460  0.13050  Biso   1.000  C
  C163     1.0000 0.41350  0.18540  0.63050  Biso   1.000  C
  C164     1.0000 0.58650  0.68540  0.86950  Biso   1.000  C
  C165     1.0000 0.65860  0.77720  0.40170  Biso   1.000  C
  C166     1.0000 0.34140  0.27720  0.09830  Biso   1.000  C
  C167     1.0000 0.34140  0.22280  0.59830  Biso   1.000  C
  C168     1.0000 0.65860  0.72280  0.90170  Biso   1.000  C
  C169     1.0000 0.30190  0.17470  0.29010  Biso   1.000  C
  C170     1.0000 0.69810  0.67470  0.20990  Biso   1.000  C
  C171     1.0000 0.69810  0.82530  0.70990  Biso   1.000  C
  C172     1.0000 0.30190  0.32530  0.79010  Biso   1.000  C
  H261     1.0000 0.22450  0.18810  0.29050  Biso   1.000  H
  H262     1.0000 0.77550  0.68810  0.20950  Biso   1.000  H
  H263     1.0000 0.77550  0.81190  0.70950  Biso   1.000  H
  H264     1.0000 0.22450  0.31190  0.79050  Biso   1.000  H
  H265     1.0000 0.31330  0.12570  0.30260  Biso   1.000  H
  H266     1.0000 0.68670  0.62570  0.19740  Biso   1.000  H
  H267     1.0000 0.68670  0.87430  0.69740  Biso   1.000  H
  H268     1.0000 0.31330  0.37430  0.80260  Biso   1.000  H
  H269     1.0000 0.32180  0.17640  0.25750  Biso   1.000  H
  H270     1.0000 0.67820  0.67640  0.24250  Biso   1.000  H
  H271     1.0000 0.67820  0.82360  0.74250  Biso   1.000  H
  H272     1.0000 0.32180  0.32360  0.75750  Biso   1.000  H
  C173     1.0000 0.26660  0.70610  0.34250  Biso   1.000  C
  C174     1.0000 0.73340  0.20610  0.15750  Biso   1.000  C
  C175     1.0000 0.73340  0.29390  0.65750  Biso   1.000  C
  C176     1.0000 0.26660  0.79390  0.84250  Biso   1.000  C
  H273     1.0000 0.32270  0.70060  0.32040  Biso   1.000  H
  H274     1.0000 0.67730  0.20060  0.17960  Biso   1.000  H
  H275     1.0000 0.67730  0.29940  0.67960  Biso   1.000  H
  H276     1.0000 0.32270  0.79940  0.82040  Biso   1.000  H
  H277     1.0000 0.26810  0.75550  0.35470  Biso   1.000  H
  H278     1.0000 0.73190  0.25550  0.14530  Biso   1.000  H
  H279     1.0000 0.73190  0.24450  0.64530  Biso   1.000  H
  H280     1.0000 0.26810  0.74450  0.85470  Biso   1.000  H
  H281     1.0000 0.19400  0.69590  0.32610  Biso   1.000  H
  H282     1.0000 0.80600  0.19590  0.17390  Biso   1.000  H
  H283     1.0000 0.80600  0.30410  0.67390  Biso   1.000  H
  H284     1.0000 0.19400  0.80410  0.82610  Biso   1.000  H
  C177     1.0000 0.76410  0.05150  0.40180  Biso   1.000  C
  C178     1.0000 0.23590  0.55150  0.09820  Biso   1.000  C
  C179     1.0000 0.23590  0.94850  0.59820  Biso   1.000  C
  C180     1.0000 0.76410  0.44850  0.90180  Biso   1.000  C
  H285     1.0000 0.72950  0.00410  0.39670  Biso   1.000  H
  H286     1.0000 0.27050  0.50410  0.10330  Biso   1.000  H
  H287     1.0000 0.27050  0.99590  0.60330  Biso   1.000  H
  H288     1.0000 0.72950  0.49590  0.89670  Biso   1.000  H
  H289     1.0000 0.83030  0.05380  0.38500  Biso   1.000  H
  H290     1.0000 0.16970  0.55380  0.11500  Biso   1.000  H
  H291     1.0000 0.16970  0.94620  0.61500  Biso   1.000  H
  H292     1.0000 0.83030  0.44620  0.88500  Biso   1.000  H
  H293     1.0000 0.71250  0.08910  0.38980  Biso   1.000  H
  H294     1.0000 0.28750  0.58910  0.11020  Biso   1.000  H
  H295     1.0000 0.28750  0.91090  0.61020  Biso   1.000  H
  H296     1.0000 0.71250  0.41090  0.88980  Biso   1.000  H
  N9       1.0000 0.73970  0.02360  0.48600  Biso   1.000  N
  N10      1.0000 0.26030  0.52360  0.01400  Biso   1.000  N
  N11      1.0000 0.26030  0.97640  0.51400  Biso   1.000  N
  N12      1.0000 0.73970  0.47640  0.98600  Biso   1.000  N
  C181     1.0000 0.97680  0.08680  0.55940  Biso   1.000  C
  C182     1.0000 0.02320  0.58680  0.94060  Biso   1.000  C
  C183     1.0000 0.02320  0.91320  0.44060  Biso   1.000  C
  C184     1.0000 0.97680  0.41320  0.05940  Biso   1.000  C
  H297     1.0000 0.96160  0.12260  0.58330  Biso   1.000  H
  H298     1.0000 0.03840  0.62260  0.91670  Biso   1.000  H
  H299     1.0000 0.03840  0.87740  0.41670  Biso   1.000  H
  H300     1.0000 0.96160  0.37740  0.08330  Biso   1.000  H
  H301     1.0000 0.04340  0.10070  0.54500  Biso   1.000  H
  H302     1.0000 0.95660  0.60070  0.95500  Biso   1.000  H
  H303     1.0000 0.95660  0.89930  0.45500  Biso   1.000  H
  H304     1.0000 0.04340  0.39930  0.04500  Biso   1.000  H
  H305     1.0000 0.98770  0.03950  0.57440  Biso   1.000  H
  H306     1.0000 0.01230  0.53950  0.92560  Biso   1.000  H
  H307     1.0000 0.01230  0.96050  0.42560  Biso   1.000  H
  H308     1.0000 0.98770  0.46050  0.07440  Biso   1.000  H
  C185     1.0000 0.88030  0.08340  0.52140  Biso   1.000  C
  C186     1.0000 0.11970  0.58340  0.97860  Biso   1.000  C
  C187     1.0000 0.11970  0.91660  0.47860  Biso   1.000  C
  C188     1.0000 0.88030  0.41660  0.02140  Biso   1.000  C
  N13      1.0000 0.78090  0.05310  0.53000  Biso   1.000  N
  N14      1.0000 0.21910  0.55310  0.97000  Biso   1.000  N
  N15      1.0000 0.21910  0.94690  0.47000  Biso   1.000  N
  N16      1.0000 0.78090  0.44690  0.03000  Biso   1.000  N
  C189     1.0000 0.86830  0.11850  0.48180  Biso   1.000  C
  C190     1.0000 0.13170  0.61850  0.01820  Biso   1.000  C
  C191     1.0000 0.13170  0.88150  0.51820  Biso   1.000  C
  C192     1.0000 0.86830  0.38150  0.98180  Biso   1.000  C
  C193     1.0000 0.65100  0.21700  0.47150  Biso   1.000  C
  C194     1.0000 0.34900  0.71700  0.02850  Biso   1.000  C
  C195     1.0000 0.34900  0.78300  0.52850  Biso   1.000  C
  C196     1.0000 0.65100  0.28300  0.97150  Biso   1.000  C
  H309     1.0000 0.61200  0.20590  0.44060  Biso   1.000  H
  H310     1.0000 0.38800  0.70590  0.05940  Biso   1.000  H
  H311     1.0000 0.38800  0.79410  0.55940  Biso   1.000  H
  H312     1.0000 0.61200  0.29410  0.94060  Biso   1.000  H
  H313     1.0000 0.69140  0.26230  0.46960  Biso   1.000  H
  H314     1.0000 0.30860  0.76230  0.03040  Biso   1.000  H
  H315     1.0000 0.30860  0.73770  0.53040  Biso   1.000  H
  H316     1.0000 0.69140  0.23770  0.96960  Biso   1.000  H
  H317     1.0000 0.59870  0.22120  0.49530  Biso   1.000  H
  H318     1.0000 0.40130  0.72120  0.00470  Biso   1.000  H
  H319     1.0000 0.40130  0.77880  0.50470  Biso   1.000  H
  H320     1.0000 0.59870  0.27880  0.99530  Biso   1.000  H
  C197     1.0000 0.73260  0.15630  0.48570  Biso   1.000  C
  C198     1.0000 0.26740  0.65630  0.01430  Biso   1.000  C
  C199     1.0000 0.26740  0.84370  0.51430  Biso   1.000  C
  C200     1.0000 0.73260  0.34370  0.98570  Biso   1.000  C
  Cu5      1.0000 0.47580  0.92859  0.48627  Biso   1.000  Cu
  Cu6      1.0000 0.52420  0.42859  0.01373  Biso   1.000  Cu
  Cu7      1.0000 0.52420  0.07141  0.51373  Biso   1.000  Cu
  Cu8      1.0000 0.47580  0.57141  0.98627  Biso   1.000  Cu
  N17      1.0000 0.68480  0.10310  0.50960  Biso   1.000  N
  N18      1.0000 0.31520  0.60310  0.99040  Biso   1.000  N
  N19      1.0000 0.31520  0.89690  0.49040  Biso   1.000  N
  N20      1.0000 0.68480  0.39690  0.00960  Biso   1.000  N
