data_image0
_cell_length_a       11.011
_cell_length_b       10.925
_cell_length_c       6.25
_cell_angle_alpha    90
_cell_angle_beta     90
_cell_angle_gamma    90

_symmetry_space_group_name_H-M    "P 1"
_symmetry_int_tables_number       1

loop_
  _symmetry_equiv_pos_as_xyz
  'x, y, z'

loop_
  _atom_site_label
  _atom_site_occupancy
  _atom_site_fract_x
  _atom_site_fract_y
  _atom_site_fract_z
  _atom_site_thermal_displace_type
  _atom_site_B_iso_or_equiv
  _atom_site_type_symbol
  Cu1      1.0000 0.06361  0.25130  0.25000  Biso   1.000  Cu
  Cu2      1.0000 0.93639  0.75130  0.25000  Biso   1.000  Cu
  Cu3      1.0000 0.06361  0.24870  0.75000  Biso   1.000  Cu
  Cu4      1.0000 0.93639  0.74870  0.75000  Biso   1.000  Cu
  Cu5      1.0000 0.36930  0.25000  0.00000  Biso   1.000  Cu
  Cu6      1.0000 0.63070  0.75000  0.00000  Biso   1.000  Cu
  Cu7      1.0000 0.36930  0.25000  0.50000  Biso   1.000  Cu
  Cu8      1.0000 0.63070  0.75000  0.50000  Biso   1.000  Cu
  Br1      1.0000 0.23638  0.37976  0.25000  Biso   1.000  Br
  Br2      1.0000 0.76362  0.87976  0.25000  Biso   1.000  Br
  Br3      1.0000 0.23638  0.12024  0.75000  Biso   1.000  Br
  Br4      1.0000 0.76362  0.62024  0.75000  Biso   1.000  Br
  Br5      1.0000 0.48340  0.12446  0.25000  Biso   1.000  Br
  Br6      1.0000 0.51660  0.62446  0.25000  Biso   1.000  Br
  Br7      1.0000 0.48340  0.37554  0.75000  Biso   1.000  Br
  Br8      1.0000 0.51660  0.87554  0.75000  Biso   1.000  Br
  C1       1.0000 0.92390  0.47500  0.25000  Biso   1.000  C
  C2       1.0000 0.07610  0.97500  0.25000  Biso   1.000  C
  C3       1.0000 0.92390  0.02500  0.75000  Biso   1.000  C
  C4       1.0000 0.07610  0.52500  0.75000  Biso   1.000  C
  C5       1.0000 0.79780  0.30910  0.25000  Biso   1.000  C
  C6       1.0000 0.20220  0.80910  0.25000  Biso   1.000  C
  C7       1.0000 0.79780  0.19090  0.75000  Biso   1.000  C
  C8       1.0000 0.20220  0.69090  0.75000  Biso   1.000  C
  N1       1.0000 0.93810  0.57740  0.25000  Biso   1.000  N
  N2       1.0000 0.06190  0.07740  0.25000  Biso   1.000  N
  N3       1.0000 0.93810  0.92260  0.75000  Biso   1.000  N
  N4       1.0000 0.06190  0.42260  0.75000  Biso   1.000  N
  N5       1.0000 0.91140  0.35370  0.25000  Biso   1.000  N
  N6       1.0000 0.08860  0.85370  0.25000  Biso   1.000  N
  N7       1.0000 0.91140  0.14630  0.75000  Biso   1.000  N
  N8       1.0000 0.08860  0.64630  0.75000  Biso   1.000  N
  N9       1.0000 0.69760  0.37920  0.25000  Biso   1.000  N
  N10      1.0000 0.30240  0.87920  0.25000  Biso   1.000  N
  N11      1.0000 0.69760  0.12080  0.75000  Biso   1.000  N
  N12      1.0000 0.30240  0.62080  0.75000  Biso   1.000  N
  N13      1.0000 0.78510  0.18860  0.25000  Biso   1.000  N
  N14      1.0000 0.21490  0.68860  0.25000  Biso   1.000  N
  N15      1.0000 0.78510  0.31140  0.75000  Biso   1.000  N
  N16      1.0000 0.21490  0.81140  0.75000  Biso   1.000  N
  H1       1.0000 0.68900  0.44600  0.25000  Biso   1.000  H
  H2       1.0000 0.31100  0.94600  0.25000  Biso   1.000  H
  H3       1.0000 0.68900  0.05400  0.75000  Biso   1.000  H
  H4       1.0000 0.31100  0.55400  0.75000  Biso   1.000  H
  H5       1.0000 0.63000  0.34600  0.25000  Biso   1.000  H
  H6       1.0000 0.37000  0.84600  0.25000  Biso   1.000  H
  H7       1.0000 0.63000  0.15400  0.75000  Biso   1.000  H
  H8       1.0000 0.37000  0.65400  0.75000  Biso   1.000  H
  H9       1.0000 0.73000  0.15900  0.25000  Biso   1.000  H
  H10      1.0000 0.27000  0.65900  0.25000  Biso   1.000  H
  H11      1.0000 0.73000  0.34100  0.75000  Biso   1.000  H
  H12      1.0000 0.27000  0.84100  0.75000  Biso   1.000  H
  H13      1.0000 0.85000  0.14300  0.25000  Biso   1.000  H
  H14      1.0000 0.15000  0.64300  0.25000  Biso   1.000  H
  H15      1.0000 0.85000  0.35700  0.75000  Biso   1.000  H
  H16      1.0000 0.15000  0.85700  0.75000  Biso   1.000  H
