data_image0
_cell_length_a       9.456
_cell_length_b       10.978
_cell_length_c       7.539
_cell_angle_alpha    90
_cell_angle_beta     120.7
_cell_angle_gamma    90

_symmetry_space_group_name_H-M    "P 1"
_symmetry_int_tables_number       1

loop_
  _symmetry_equiv_pos_as_xyz
  'x, y, z'

loop_
  _atom_site_label
  _atom_site_occupancy
  _atom_site_fract_x
  _atom_site_fract_y
  _atom_site_fract_z
  _atom_site_thermal_displace_type
  _atom_site_B_iso_or_equiv
  _atom_site_type_symbol
  Cu1      1.0000 0.40860  0.31500  0.17820  Biso   1.000  Cu
  Cu2      1.0000 0.59140  0.81500  0.32180  Biso   1.000  Cu
  Cu3      1.0000 0.59140  0.68500  0.82180  Biso   1.000  Cu
  Cu4      1.0000 0.40860  0.18500  0.67820  Biso   1.000  Cu
  Br1      1.0000 0.24320  0.18040  0.26000  Biso   1.000  Br
  Br2      1.0000 0.75680  0.68040  0.24000  Biso   1.000  Br
  Br3      1.0000 0.75680  0.81960  0.74000  Biso   1.000  Br
  Br4      1.0000 0.24320  0.31960  0.76000  Biso   1.000  Br
  C1       1.0000 0.40100  0.91100  0.75200  Biso   1.000  C
  C2       1.0000 0.59900  0.41100  0.74800  Biso   1.000  C
  C3       1.0000 0.59900  0.08900  0.24800  Biso   1.000  C
  C4       1.0000 0.40100  0.58900  0.25200  Biso   1.000  C
  C5       1.0000 0.25000  0.74600  0.75100  Biso   1.000  C
  C6       1.0000 0.75000  0.24600  0.74900  Biso   1.000  C
  C7       1.0000 0.75000  0.25400  0.24900  Biso   1.000  C
  C8       1.0000 0.25000  0.75400  0.25100  Biso   1.000  C
  N1       1.0000 0.41600  0.01300  0.73400  Biso   1.000  N
  N2       1.0000 0.58400  0.51300  0.76600  Biso   1.000  N
  N3       1.0000 0.58400  0.98700  0.26600  Biso   1.000  N
  N4       1.0000 0.41600  0.48700  0.23400  Biso   1.000  N
  N5       1.0000 0.60900  0.29000  0.73500  Biso   1.000  N
  N6       1.0000 0.39100  0.79000  0.76500  Biso   1.000  N
  N7       1.0000 0.39100  0.71000  0.26500  Biso   1.000  N
  N8       1.0000 0.60900  0.21000  0.23500  Biso   1.000  N
  N9       1.0000 0.13100  0.81700  0.72400  Biso   1.000  N
  N10      1.0000 0.86900  0.31700  0.77600  Biso   1.000  N
  N11      1.0000 0.86900  0.18300  0.27600  Biso   1.000  N
  N12      1.0000 0.13100  0.68300  0.22400  Biso   1.000  N
  N13      1.0000 0.24500  0.62900  0.75900  Biso   1.000  N
  N14      1.0000 0.75500  0.12900  0.74100  Biso   1.000  N
  N15      1.0000 0.75500  0.37100  0.24100  Biso   1.000  N
  N16      1.0000 0.24500  0.87100  0.25900  Biso   1.000  N
  O1       1.0000 0.08700  0.43100  0.29400  Biso   1.000  O
  O2       1.0000 0.91300  0.93100  0.20600  Biso   1.000  O
  O3       1.0000 0.91300  0.56900  0.70600  Biso   1.000  O
  O4       1.0000 0.08700  0.06900  0.79400  Biso   1.000  O
  H1       1.0000 0.13400  0.90700  0.70500  Biso   1.000  H
  H2       1.0000 0.86600  0.40700  0.79500  Biso   1.000  H
  H3       1.0000 0.86600  0.09300  0.29500  Biso   1.000  H
  H4       1.0000 0.13400  0.59300  0.20500  Biso   1.000  H
  H5       1.0000 0.02900  0.78000  0.71300  Biso   1.000  H
  H6       1.0000 0.97100  0.28000  0.78700  Biso   1.000  H
  H7       1.0000 0.97100  0.22000  0.28700  Biso   1.000  H
  H8       1.0000 0.02900  0.72000  0.21300  Biso   1.000  H
  H9       1.0000 0.14600  0.58700  0.75100  Biso   1.000  H
  H10      1.0000 0.85400  0.08700  0.74900  Biso   1.000  H
  H11      1.0000 0.85400  0.41300  0.24900  Biso   1.000  H
  H12      1.0000 0.14600  0.91300  0.25100  Biso   1.000  H
  H13      1.0000 0.33700  0.58000  0.77400  Biso   1.000  H
  H14      1.0000 0.66300  0.08000  0.72600  Biso   1.000  H
  H15      1.0000 0.66300  0.42000  0.22600  Biso   1.000  H
  H16      1.0000 0.33700  0.92000  0.27400  Biso   1.000  H
