data_image0
_cell_length_a       10.848
_cell_length_b       10.414
_cell_length_c       6.262
_cell_angle_alpha    90
_cell_angle_beta     90
_cell_angle_gamma    90

_symmetry_space_group_name_H-M    "P 1"
_symmetry_int_tables_number       1

loop_
  _symmetry_equiv_pos_as_xyz
  'x, y, z'

loop_
  _atom_site_label
  _atom_site_occupancy
  _atom_site_fract_x
  _atom_site_fract_y
  _atom_site_fract_z
  _atom_site_thermal_displace_type
  _atom_site_B_iso_or_equiv
  _atom_site_type_symbol
  Cu1      1.0000 0.06859  0.24931  0.25000  Biso   1.000  Cu
  Cu2      1.0000 0.93141  0.74931  0.25000  Biso   1.000  Cu
  Cu3      1.0000 0.06859  0.25069  0.75000  Biso   1.000  Cu
  Cu4      1.0000 0.93141  0.75069  0.75000  Biso   1.000  Cu
  Cu5      1.0000 0.35020  0.25000  0.00000  Biso   1.000  Cu
  Cu6      1.0000 0.64980  0.75000  0.00000  Biso   1.000  Cu
  Cu7      1.0000 0.35020  0.25000  0.50000  Biso   1.000  Cu
  Cu8      1.0000 0.64980  0.75000  0.50000  Biso   1.000  Cu
  Cl1      1.0000 0.23390  0.38180  0.25000  Biso   1.000  Cl
  Cl2      1.0000 0.76610  0.88180  0.25000  Biso   1.000  Cl
  Cl3      1.0000 0.23390  0.11820  0.75000  Biso   1.000  Cl
  Cl4      1.0000 0.76610  0.61820  0.75000  Biso   1.000  Cl
  Cl5      1.0000 0.46290  0.13540  0.25000  Biso   1.000  Cl
  Cl6      1.0000 0.53710  0.63540  0.25000  Biso   1.000  Cl
  Cl7      1.0000 0.46290  0.36460  0.75000  Biso   1.000  Cl
  Cl8      1.0000 0.53710  0.86460  0.75000  Biso   1.000  Cl
  C1       1.0000 0.91510  0.47140  0.25000  Biso   1.000  C
  C2       1.0000 0.08490  0.97140  0.25000  Biso   1.000  C
  C3       1.0000 0.91510  0.02860  0.75000  Biso   1.000  C
  C4       1.0000 0.08490  0.52860  0.75000  Biso   1.000  C
  C5       1.0000 0.78430  0.30300  0.25000  Biso   1.000  C
  C6       1.0000 0.21570  0.80300  0.25000  Biso   1.000  C
  C7       1.0000 0.78430  0.19700  0.75000  Biso   1.000  C
  C8       1.0000 0.21570  0.69700  0.75000  Biso   1.000  C
  N1       1.0000 0.93200  0.57570  0.25000  Biso   1.000  N
  N2       1.0000 0.06800  0.07570  0.25000  Biso   1.000  N
  N3       1.0000 0.93200  0.92430  0.75000  Biso   1.000  N
  N4       1.0000 0.06800  0.42430  0.75000  Biso   1.000  N
  N5       1.0000 0.90280  0.35030  0.25000  Biso   1.000  N
  N6       1.0000 0.09720  0.85030  0.25000  Biso   1.000  N
  N7       1.0000 0.90280  0.14970  0.75000  Biso   1.000  N
  N8       1.0000 0.09720  0.64970  0.75000  Biso   1.000  N
  N9       1.0000 0.67920  0.37280  0.25000  Biso   1.000  N
  N10      1.0000 0.32080  0.87280  0.25000  Biso   1.000  N
  N11      1.0000 0.67920  0.12720  0.75000  Biso   1.000  N
  N12      1.0000 0.32080  0.62720  0.75000  Biso   1.000  N
  N13      1.0000 0.77230  0.18220  0.25000  Biso   1.000  N
  N14      1.0000 0.22770  0.68220  0.25000  Biso   1.000  N
  N15      1.0000 0.77230  0.31780  0.75000  Biso   1.000  N
  N16      1.0000 0.22770  0.81780  0.75000  Biso   1.000  N
  H1       1.0000 0.69400  0.44700  0.25000  Biso   1.000  H
  H2       1.0000 0.30600  0.94700  0.25000  Biso   1.000  H
  H3       1.0000 0.69400  0.05300  0.75000  Biso   1.000  H
  H4       1.0000 0.30600  0.55300  0.75000  Biso   1.000  H
  H5       1.0000 0.62200  0.34200  0.25000  Biso   1.000  H
  H6       1.0000 0.37800  0.84200  0.25000  Biso   1.000  H
  H7       1.0000 0.62200  0.15800  0.75000  Biso   1.000  H
  H8       1.0000 0.37800  0.65800  0.75000  Biso   1.000  H
  H9       1.0000 0.70800  0.14100  0.25000  Biso   1.000  H
  H10      1.0000 0.29200  0.64100  0.25000  Biso   1.000  H
  H11      1.0000 0.70800  0.35900  0.75000  Biso   1.000  H
  H12      1.0000 0.29200  0.85900  0.75000  Biso   1.000  H
  H13      1.0000 0.83200  0.13900  0.25000  Biso   1.000  H
  H14      1.0000 0.16800  0.63900  0.25000  Biso   1.000  H
  H15      1.0000 0.83200  0.36100  0.75000  Biso   1.000  H
  H16      1.0000 0.16800  0.86100  0.75000  Biso   1.000  H
