data_image0
_cell_length_a       7.3084
_cell_length_b       10.355
_cell_length_c       11.3185
_cell_angle_alpha    72.568
_cell_angle_beta     71.515
_cell_angle_gamma    81.227

_symmetry_space_group_name_H-M    "P 1"
_symmetry_int_tables_number       1

loop_
  _symmetry_equiv_pos_as_xyz
  'x, y, z'

loop_
  _atom_site_label
  _atom_site_occupancy
  _atom_site_fract_x
  _atom_site_fract_y
  _atom_site_fract_z
  _atom_site_thermal_displace_type
  _atom_site_B_iso_or_equiv
  _atom_site_type_symbol
  Cu1      1.0000 0.68896  0.67639  0.15808  Biso   1.000  Cu
  Cu2      1.0000 0.31104  0.32361  0.84192  Biso   1.000  Cu
  K1       1.0000 0.76208  0.43291  0.00203  Biso   1.000  K
  K2       1.0000 0.23792  0.56709  0.99797  Biso   1.000  K
  N1       1.0000 0.71670  0.86939  0.07472  Biso   1.000  N
  N2       1.0000 0.28330  0.13061  0.92528  Biso   1.000  N
  N3       1.0000 0.69540  0.52227  0.30692  Biso   1.000  N
  N4       1.0000 0.30460  0.47773  0.69308  Biso   1.000  N
  O1       1.0000 0.89170  0.66228  0.97126  Biso   1.000  O
  O2       1.0000 0.10830  0.33772  0.02874  Biso   1.000  O
  O3       1.0000 0.45900  0.55368  0.15651  Biso   1.000  O
  O4       1.0000 0.54100  0.44632  0.84349  Biso   1.000  O
  C1       1.0000 0.92120  0.78570  0.89740  Biso   1.000  C
  C2       1.0000 0.07880  0.21430  0.10260  Biso   1.000  C
  C3       1.0000 0.03780  0.81590  0.77000  Biso   1.000  C
  C4       1.0000 0.96220  0.18410  0.23000  Biso   1.000  C
  H1       1.0000 0.10100  0.74360  0.73360  Biso   1.000  H
  H2       1.0000 0.89900  0.25640  0.26640  Biso   1.000  H
  C5       1.0000 0.06500  0.94970  0.69380  Biso   1.000  C
  C6       1.0000 0.93500  0.05030  0.30620  Biso   1.000  C
  H3       1.0000 0.14630  0.96590  0.60730  Biso   1.000  H
  H4       1.0000 0.85370  0.03410  0.39270  Biso   1.000  H
  C7       1.0000 0.97730  0.05720  0.74100  Biso   1.000  C
  C8       1.0000 0.02270  0.94280  0.25900  Biso   1.000  C
  H5       1.0000 0.99700  0.14710  0.68760  Biso   1.000  H
  H6       1.0000 0.00300  0.85290  0.31240  Biso   1.000  H
  C9       1.0000 0.85690  0.03430  0.86980  Biso   1.000  C
  C10      1.0000 0.14310  0.96570  0.13020  Biso   1.000  C
  C11      1.0000 0.75510  0.13870  0.92600  Biso   1.000  C
  C12      1.0000 0.24490  0.86130  0.07400  Biso   1.000  C
  H7       1.0000 0.76400  0.23070  0.87640  Biso   1.000  H
  H8       1.0000 0.23600  0.76930  0.12360  Biso   1.000  H
  C13      1.0000 0.64400  0.10730  0.05150  Biso   1.000  C
  C14      1.0000 0.35600  0.89270  0.94850  Biso   1.000  C
  H9       1.0000 0.57640  0.17740  0.08990  Biso   1.000  H
  H10      1.0000 0.42360  0.82260  0.91010  Biso   1.000  H
  C15      1.0000 0.62990  0.97160  0.12350  Biso   1.000  C
  C16      1.0000 0.37010  0.02840  0.87650  Biso   1.000  C
  H11      1.0000 0.55450  0.95180  0.21150  Biso   1.000  H
  H12      1.0000 0.44550  0.04820  0.78850  Biso   1.000  H
  C17      1.0000 0.83050  0.89931  0.94822  Biso   1.000  C
  C18      1.0000 0.16950  0.10069  0.05178  Biso   1.000  C
  C19      1.0000 0.44230  0.44660  0.25620  Biso   1.000  C
  C20      1.0000 0.55770  0.55340  0.74380  Biso   1.000  C
  C21      1.0000 0.31600  0.34560  0.28670  Biso   1.000  C
  C22      1.0000 0.68400  0.65440  0.71330  Biso   1.000  C
  H13      1.0000 0.23480  0.35370  0.23350  Biso   1.000  H
  H14      1.0000 0.76520  0.64630  0.76650  Biso   1.000  H
  C23      1.0000 0.30530  0.23210  0.39380  Biso   1.000  C
  C24      1.0000 0.69470  0.76790  0.60620  Biso   1.000  C
  H15      1.0000 0.21620  0.16610  0.41140  Biso   1.000  H
  H16      1.0000 0.78380  0.83390  0.58860  Biso   1.000  H
  C25      1.0000 0.41990  0.21340  0.47400  Biso   1.000  C
  C26      1.0000 0.58010  0.78660  0.52600  Biso   1.000  C
  H17      1.0000 0.40910  0.13610  0.54620  Biso   1.000  H
  H18      1.0000 0.59090  0.86390  0.45380  Biso   1.000  H
  C27      1.0000 0.55370  0.31060  0.44750  Biso   1.000  C
  C28      1.0000 0.44630  0.68940  0.55250  Biso   1.000  C
  C29      1.0000 0.68160  0.29840  0.52170  Biso   1.000  C
  C30      1.0000 0.31840  0.70160  0.47830  Biso   1.000  C
  H19      1.0000 0.67700  0.22370  0.59570  Biso   1.000  H
  H20      1.0000 0.32300  0.77630  0.40430  Biso   1.000  H
  C31      1.0000 0.81120  0.39400  0.48700  Biso   1.000  C
  C32      1.0000 0.18880  0.60600  0.51300  Biso   1.000  C
  H21      1.0000 0.89900  0.38590  0.53570  Biso   1.000  H
  H22      1.0000 0.10100  0.61410  0.46430  Biso   1.000  H
  C33      1.0000 0.81420  0.50460  0.37860  Biso   1.000  C
  C34      1.0000 0.18580  0.49540  0.62140  Biso   1.000  C
  H23      1.0000 0.90610  0.57020  0.35540  Biso   1.000  H
  H24      1.0000 0.09390  0.42980  0.64460  Biso   1.000  H
  C35      1.0000 0.56520  0.42610  0.33925  Biso   1.000  C
  C36      1.0000 0.43480  0.57390  0.66075  Biso   1.000  C
