data_image0
_cell_length_a       23.7569
_cell_length_b       34.3409
_cell_length_c       6.0656
_cell_angle_alpha    90
_cell_angle_beta     90
_cell_angle_gamma    90

_symmetry_space_group_name_H-M    "P 1"
_symmetry_int_tables_number       1

loop_
  _symmetry_equiv_pos_as_xyz
  'x, y, z'

loop_
  _atom_site_label
  _atom_site_occupancy
  _atom_site_fract_x
  _atom_site_fract_y
  _atom_site_fract_z
  _atom_site_thermal_displace_type
  _atom_site_B_iso_or_equiv
  _atom_site_type_symbol
  Cu1      1.0000 0.25000  0.00000  0.67249  Biso   1.000  Cu
  Cu2      1.0000 0.25000  0.50000  0.82751  Biso   1.000  Cu
  Cu3      1.0000 0.75000  0.00000  0.32751  Biso   1.000  Cu
  Cu4      1.0000 0.75000  0.50000  0.17249  Biso   1.000  Cu
  F1       1.0000 0.38082  0.15021  0.88520  Biso   1.000  F
  F2       1.0000 0.11918  0.84979  0.88520  Biso   1.000  F
  F3       1.0000 0.11918  0.65021  0.61480  Biso   1.000  F
  F4       1.0000 0.38082  0.34979  0.61480  Biso   1.000  F
  F5       1.0000 0.61918  0.84979  0.11480  Biso   1.000  F
  F6       1.0000 0.88082  0.15021  0.11480  Biso   1.000  F
  F7       1.0000 0.88082  0.34979  0.38520  Biso   1.000  F
  F8       1.0000 0.61918  0.65021  0.38520  Biso   1.000  F
  F9       1.0000 0.47992  0.14613  0.55660  Biso   1.000  F
  F10      1.0000 0.02008  0.85387  0.55660  Biso   1.000  F
  F11      1.0000 0.02008  0.64613  0.94340  Biso   1.000  F
  F12      1.0000 0.47992  0.35387  0.94340  Biso   1.000  F
  F13      1.0000 0.52008  0.85387  0.44340  Biso   1.000  F
  F14      1.0000 0.97992  0.14613  0.44340  Biso   1.000  F
  F15      1.0000 0.97992  0.35387  0.05660  Biso   1.000  F
  F16      1.0000 0.52008  0.64613  0.05660  Biso   1.000  F
  F17      1.0000 0.37494  0.22734  0.91440  Biso   1.000  F
  F18      1.0000 0.12506  0.77266  0.91440  Biso   1.000  F
  F19      1.0000 0.12506  0.72734  0.58560  Biso   1.000  F
  F20      1.0000 0.37494  0.27266  0.58560  Biso   1.000  F
  F21      1.0000 0.62506  0.77266  0.08560  Biso   1.000  F
  F22      1.0000 0.87494  0.22734  0.08560  Biso   1.000  F
  F23      1.0000 0.87494  0.27266  0.41440  Biso   1.000  F
  F24      1.0000 0.62506  0.72734  0.41440  Biso   1.000  F
  F25      1.0000 0.47559  0.22333  0.58320  Biso   1.000  F
  F26      1.0000 0.02441  0.77667  0.58320  Biso   1.000  F
  F27      1.0000 0.02441  0.72333  0.91680  Biso   1.000  F
  F28      1.0000 0.47559  0.27667  0.91680  Biso   1.000  F
  F29      1.0000 0.52441  0.77667  0.41680  Biso   1.000  F
  F30      1.0000 0.97559  0.22333  0.41680  Biso   1.000  F
  F31      1.0000 0.97559  0.27667  0.08320  Biso   1.000  F
  F32      1.0000 0.52441  0.72333  0.08320  Biso   1.000  F
  F33      1.0000 0.05912  0.22354  0.91650  Biso   1.000  F
  F34      1.0000 0.44088  0.77646  0.91650  Biso   1.000  F
  F35      1.0000 0.44088  0.72354  0.58350  Biso   1.000  F
  F36      1.0000 0.05912  0.27646  0.58350  Biso   1.000  F
  F37      1.0000 0.94088  0.77646  0.08350  Biso   1.000  F
  F38      1.0000 0.55912  0.22354  0.08350  Biso   1.000  F
  F39      1.0000 0.55912  0.27646  0.41650  Biso   1.000  F
  F40      1.0000 0.94088  0.72354  0.41650  Biso   1.000  F
  F41      1.0000 0.15896  0.22715  0.58700  Biso   1.000  F
  F42      1.0000 0.34104  0.77285  0.58700  Biso   1.000  F
  F43      1.0000 0.34104  0.72715  0.91300  Biso   1.000  F
  F44      1.0000 0.15896  0.27285  0.91300  Biso   1.000  F
  F45      1.0000 0.84104  0.77285  0.41300  Biso   1.000  F
  F46      1.0000 0.65896  0.22715  0.41300  Biso   1.000  F
  F47      1.0000 0.65896  0.27285  0.08700  Biso   1.000  F
  F48      1.0000 0.84104  0.72715  0.08700  Biso   1.000  F
  F49      1.0000 0.05281  0.14633  0.94620  Biso   1.000  F
  F50      1.0000 0.44719  0.85367  0.94620  Biso   1.000  F
  F51      1.0000 0.44719  0.64633  0.55380  Biso   1.000  F
  F52      1.0000 0.05281  0.35367  0.55380  Biso   1.000  F
  F53      1.0000 0.94719  0.85367  0.05380  Biso   1.000  F
  F54      1.0000 0.55281  0.14633  0.05380  Biso   1.000  F
  F55      1.0000 0.55281  0.35367  0.44620  Biso   1.000  F
  F56      1.0000 0.94719  0.64633  0.44620  Biso   1.000  F
  F57      1.0000 0.15092  0.15006  0.61970  Biso   1.000  F
  F58      1.0000 0.34908  0.84994  0.61970  Biso   1.000  F
  F59      1.0000 0.34908  0.65006  0.88030  Biso   1.000  F
  F60      1.0000 0.15092  0.34994  0.88030  Biso   1.000  F
  F61      1.0000 0.84908  0.84994  0.38030  Biso   1.000  F
  F62      1.0000 0.65092  0.15006  0.38030  Biso   1.000  F
  F63      1.0000 0.65092  0.34994  0.11970  Biso   1.000  F
  F64      1.0000 0.84908  0.65006  0.11970  Biso   1.000  F
  O1       1.0000 0.97862  0.02983  0.15940  Biso   1.000  O
  O2       1.0000 0.52138  0.97017  0.15940  Biso   1.000  O
  O3       1.0000 0.52138  0.52983  0.34060  Biso   1.000  O
  O4       1.0000 0.97862  0.47017  0.34060  Biso   1.000  O
  O5       1.0000 0.02138  0.97017  0.84060  Biso   1.000  O
  O6       1.0000 0.47862  0.02983  0.84060  Biso   1.000  O
  O7       1.0000 0.47862  0.47017  0.65940  Biso   1.000  O
  O8       1.0000 0.02138  0.52983  0.65940  Biso   1.000  O
  O9       1.0000 0.01970  0.02094  0.60270  Biso   1.000  O
  O10      1.0000 0.48030  0.97906  0.60270  Biso   1.000  O
  O11      1.0000 0.48030  0.52094  0.89730  Biso   1.000  O
  O12      1.0000 0.01970  0.47906  0.89730  Biso   1.000  O
  O13      1.0000 0.98030  0.97906  0.39730  Biso   1.000  O
  O14      1.0000 0.51970  0.02094  0.39730  Biso   1.000  O
  O15      1.0000 0.51970  0.47906  0.10270  Biso   1.000  O
  O16      1.0000 0.98030  0.52094  0.10270  Biso   1.000  O
  O17      1.0000 0.01290  0.03537  0.48740  Biso   1.000  O
  O18      1.0000 0.48710  0.96463  0.48740  Biso   1.000  O
  O19      1.0000 0.48710  0.53537  0.01260  Biso   1.000  O
  O20      1.0000 0.01290  0.46463  0.01260  Biso   1.000  O
  O21      1.0000 0.98710  0.96463  0.51260  Biso   1.000  O
  O22      1.0000 0.51290  0.03537  0.51260  Biso   1.000  O
  O23      1.0000 0.51290  0.46463  0.98740  Biso   1.000  O
  O24      1.0000 0.98710  0.53537  0.98740  Biso   1.000  O
  N1       1.0000 0.30360  0.03475  0.49810  Biso   1.000  N
  N2       1.0000 0.19640  0.96525  0.49810  Biso   1.000  N
  N3       1.0000 0.19640  0.53475  0.00190  Biso   1.000  N
  N4       1.0000 0.30360  0.46525  0.00190  Biso   1.000  N
  N5       1.0000 0.69640  0.96525  0.50190  Biso   1.000  N
  N6       1.0000 0.80360  0.03475  0.50190  Biso   1.000  N
  N7       1.0000 0.80360  0.46525  0.99810  Biso   1.000  N
  N8       1.0000 0.69640  0.53475  0.99810  Biso   1.000  N
  N9       1.0000 0.20070  0.03589  0.86530  Biso   1.000  N
  N10      1.0000 0.29930  0.96411  0.86530  Biso   1.000  N
  N11      1.0000 0.29930  0.53589  0.63470  Biso   1.000  N
  N12      1.0000 0.20070  0.46411  0.63470  Biso   1.000  N
  N13      1.0000 0.79930  0.96411  0.13470  Biso   1.000  N
  N14      1.0000 0.70070  0.03589  0.13470  Biso   1.000  N
  N15      1.0000 0.70070  0.46411  0.36530  Biso   1.000  N
  N16      1.0000 0.79930  0.53589  0.36530  Biso   1.000  N
  N17      1.0000 0.99112  0.01424  0.34680  Biso   1.000  N
  N18      1.0000 0.50888  0.98576  0.34680  Biso   1.000  N
  N19      1.0000 0.50888  0.51424  0.15320  Biso   1.000  N
  N20      1.0000 0.99112  0.48576  0.15320  Biso   1.000  N
  N21      1.0000 0.00888  0.98576  0.65320  Biso   1.000  N
  N22      1.0000 0.49112  0.01424  0.65320  Biso   1.000  N
  N23      1.0000 0.49112  0.48576  0.84680  Biso   1.000  N
  N24      1.0000 0.00888  0.51424  0.84680  Biso   1.000  N
  N25      1.0000 0.27303  0.18255  0.36470  Biso   1.000  N
  N26      1.0000 0.22697  0.81745  0.36470  Biso   1.000  N
  N27      1.0000 0.22697  0.68255  0.13530  Biso   1.000  N
  N28      1.0000 0.27303  0.31745  0.13530  Biso   1.000  N
  N29      1.0000 0.72697  0.81745  0.63530  Biso   1.000  N
  N30      1.0000 0.77303  0.18255  0.63530  Biso   1.000  N
  N31      1.0000 0.77303  0.31745  0.86470  Biso   1.000  N
  N32      1.0000 0.72697  0.68255  0.86470  Biso   1.000  N
  C1       1.0000 0.30856  0.07300  0.53650  Biso   1.000  C
  C2       1.0000 0.19144  0.92700  0.53650  Biso   1.000  C
  C3       1.0000 0.19144  0.57300  0.96350  Biso   1.000  C
  C4       1.0000 0.30856  0.42700  0.96350  Biso   1.000  C
  C5       1.0000 0.69144  0.92700  0.46350  Biso   1.000  C
  C6       1.0000 0.80856  0.07300  0.46350  Biso   1.000  C
  C7       1.0000 0.80856  0.42700  0.03650  Biso   1.000  C
  C8       1.0000 0.69144  0.57300  0.03650  Biso   1.000  C
  H1       1.0000 0.28260  0.08490  0.63470  Biso   1.000  H
  H2       1.0000 0.21740  0.91510  0.63470  Biso   1.000  H
  H3       1.0000 0.21740  0.58490  0.86530  Biso   1.000  H
  H4       1.0000 0.28260  0.41510  0.86530  Biso   1.000  H
  H5       1.0000 0.71740  0.91510  0.36530  Biso   1.000  H
  H6       1.0000 0.78260  0.08490  0.36530  Biso   1.000  H
  H7       1.0000 0.78260  0.41510  0.13470  Biso   1.000  H
  H8       1.0000 0.71740  0.58490  0.13470  Biso   1.000  H
  C9       1.0000 0.34092  0.01927  0.35710  Biso   1.000  C
  C10      1.0000 0.15908  0.98073  0.35710  Biso   1.000  C
  C11      1.0000 0.15908  0.51927  0.14290  Biso   1.000  C
  C12      1.0000 0.34092  0.48073  0.14290  Biso   1.000  C
  C13      1.0000 0.65908  0.98073  0.64290  Biso   1.000  C
  C14      1.0000 0.84092  0.01927  0.64290  Biso   1.000  C
  C15      1.0000 0.84092  0.48073  0.85710  Biso   1.000  C
  C16      1.0000 0.65908  0.51927  0.85710  Biso   1.000  C
  H9       1.0000 0.33820  0.99220  0.32540  Biso   1.000  H
  H10      1.0000 0.16180  0.00780  0.32540  Biso   1.000  H
  H11      1.0000 0.16180  0.49220  0.17460  Biso   1.000  H
  H12      1.0000 0.33820  0.50780  0.17460  Biso   1.000  H
  H13      1.0000 0.66180  0.00780  0.67460  Biso   1.000  H
  H14      1.0000 0.83820  0.99220  0.67460  Biso   1.000  H
  H15      1.0000 0.83820  0.50780  0.82540  Biso   1.000  H
  H16      1.0000 0.66180  0.49220  0.82540  Biso   1.000  H
  C17      1.0000 0.34969  0.09612  0.44030  Biso   1.000  C
  C18      1.0000 0.15031  0.90388  0.44030  Biso   1.000  C
  C19      1.0000 0.15031  0.59612  0.05970  Biso   1.000  C
  C20      1.0000 0.34969  0.40388  0.05970  Biso   1.000  C
  C21      1.0000 0.65031  0.90388  0.55970  Biso   1.000  C
  C22      1.0000 0.84969  0.09612  0.55970  Biso   1.000  C
  C23      1.0000 0.84969  0.40388  0.94030  Biso   1.000  C
  C24      1.0000 0.65031  0.59612  0.94030  Biso   1.000  C
  H17      1.0000 0.35110  0.12320  0.47140  Biso   1.000  H
  H18      1.0000 0.14890  0.87680  0.47140  Biso   1.000  H
  H19      1.0000 0.14890  0.62320  0.02860  Biso   1.000  H
  H20      1.0000 0.35110  0.37680  0.02860  Biso   1.000  H
  H21      1.0000 0.64890  0.87680  0.52860  Biso   1.000  H
  H22      1.0000 0.85110  0.12320  0.52860  Biso   1.000  H
  H23      1.0000 0.85110  0.37680  0.97140  Biso   1.000  H
  H24      1.0000 0.64890  0.62320  0.97140  Biso   1.000  H
  C25      1.0000 0.38299  0.04022  0.25570  Biso   1.000  C
  C26      1.0000 0.11701  0.95978  0.25570  Biso   1.000  C
  C27      1.0000 0.11701  0.54022  0.24430  Biso   1.000  C
  C28      1.0000 0.38299  0.45978  0.24430  Biso   1.000  C
  C29      1.0000 0.61701  0.95978  0.74430  Biso   1.000  C
  C30      1.0000 0.88299  0.04022  0.74430  Biso   1.000  C
  C31      1.0000 0.88299  0.45978  0.75570  Biso   1.000  C
  C32      1.0000 0.61701  0.54022  0.75570  Biso   1.000  C
  H25      1.0000 0.40810  0.02780  0.15630  Biso   1.000  H
  H26      1.0000 0.09190  0.97220  0.15630  Biso   1.000  H
  H27      1.0000 0.09190  0.52780  0.34370  Biso   1.000  H
  H28      1.0000 0.40810  0.47220  0.34370  Biso   1.000  H
  H29      1.0000 0.59190  0.97220  0.84370  Biso   1.000  H
  H30      1.0000 0.90810  0.02780  0.84370  Biso   1.000  H
  H31      1.0000 0.90810  0.47220  0.65630  Biso   1.000  H
  H32      1.0000 0.59190  0.52780  0.65630  Biso   1.000  H
  C33      1.0000 0.38836  0.07967  0.30010  Biso   1.000  C
  C34      1.0000 0.11164  0.92033  0.30010  Biso   1.000  C
  C35      1.0000 0.11164  0.57967  0.19990  Biso   1.000  C
  C36      1.0000 0.38836  0.42033  0.19990  Biso   1.000  C
  C37      1.0000 0.61164  0.92033  0.69990  Biso   1.000  C
  C38      1.0000 0.88836  0.07967  0.69990  Biso   1.000  C
  C39      1.0000 0.88836  0.42033  0.80010  Biso   1.000  C
  C40      1.0000 0.61164  0.57967  0.80010  Biso   1.000  C
  C41      1.0000 0.43705  0.10190  0.19760  Biso   1.000  C
  C42      1.0000 0.06295  0.89810  0.19760  Biso   1.000  C
  C43      1.0000 0.06295  0.60190  0.30240  Biso   1.000  C
  C44      1.0000 0.43705  0.39810  0.30240  Biso   1.000  C
  C45      1.0000 0.56295  0.89810  0.80240  Biso   1.000  C
  C46      1.0000 0.93705  0.10190  0.80240  Biso   1.000  C
  C47      1.0000 0.93705  0.39810  0.69760  Biso   1.000  C
  C48      1.0000 0.56295  0.60190  0.69760  Biso   1.000  C
  H33      1.0000 0.47250  0.09360  0.26940  Biso   1.000  H
  H34      1.0000 0.02750  0.90640  0.26940  Biso   1.000  H
  H35      1.0000 0.02750  0.59360  0.23060  Biso   1.000  H
  H36      1.0000 0.47250  0.40640  0.23060  Biso   1.000  H
  H37      1.0000 0.52750  0.90640  0.73060  Biso   1.000  H
  H38      1.0000 0.97250  0.09360  0.73060  Biso   1.000  H
  H39      1.0000 0.97250  0.40640  0.76940  Biso   1.000  H
  H40      1.0000 0.52750  0.59360  0.76940  Biso   1.000  H
  H41      1.0000 0.43960  0.09490  0.03950  Biso   1.000  H
  H42      1.0000 0.06040  0.90510  0.03950  Biso   1.000  H
  H43      1.0000 0.06040  0.59490  0.46050  Biso   1.000  H
  H44      1.0000 0.43960  0.40510  0.46050  Biso   1.000  H
  H45      1.0000 0.56040  0.90510  0.96050  Biso   1.000  H
  H46      1.0000 0.93960  0.09490  0.96050  Biso   1.000  H
  H47      1.0000 0.93960  0.40510  0.53950  Biso   1.000  H
  H48      1.0000 0.56040  0.59490  0.53950  Biso   1.000  H
  C49      1.0000 0.43186  0.14559  0.21710  Biso   1.000  C
  C50      1.0000 0.06814  0.85441  0.21710  Biso   1.000  C
  C51      1.0000 0.06814  0.64559  0.28290  Biso   1.000  C
  C52      1.0000 0.43186  0.35441  0.28290  Biso   1.000  C
  C53      1.0000 0.56814  0.85441  0.78290  Biso   1.000  C
  C54      1.0000 0.93186  0.14559  0.78290  Biso   1.000  C
  C55      1.0000 0.93186  0.35441  0.71710  Biso   1.000  C
  C56      1.0000 0.56814  0.64559  0.71710  Biso   1.000  C
  C57      1.0000 0.40532  0.16785  0.05870  Biso   1.000  C
  C58      1.0000 0.09468  0.83215  0.05870  Biso   1.000  C
  C59      1.0000 0.09468  0.66785  0.44130  Biso   1.000  C
  C60      1.0000 0.40532  0.33215  0.44130  Biso   1.000  C
  C61      1.0000 0.59468  0.83215  0.94130  Biso   1.000  C
  C62      1.0000 0.90532  0.16785  0.94130  Biso   1.000  C
  C63      1.0000 0.90532  0.33215  0.55870  Biso   1.000  C
  C64      1.0000 0.59468  0.66785  0.55870  Biso   1.000  C
  C65      1.0000 0.45380  0.16592  0.39270  Biso   1.000  C
  C66      1.0000 0.04620  0.83408  0.39270  Biso   1.000  C
  C67      1.0000 0.04620  0.66592  0.10730  Biso   1.000  C
  C68      1.0000 0.45380  0.33408  0.10730  Biso   1.000  C
  C69      1.0000 0.54620  0.83408  0.60730  Biso   1.000  C
  C70      1.0000 0.95380  0.16592  0.60730  Biso   1.000  C
  C71      1.0000 0.95380  0.33408  0.89270  Biso   1.000  C
  C72      1.0000 0.54620  0.66592  0.89270  Biso   1.000  C
  C73      1.0000 0.40245  0.20795  0.07240  Biso   1.000  C
  C74      1.0000 0.09755  0.79205  0.07240  Biso   1.000  C
  C75      1.0000 0.09755  0.70795  0.42760  Biso   1.000  C
  C76      1.0000 0.40245  0.29205  0.42760  Biso   1.000  C
  C77      1.0000 0.59755  0.79205  0.92760  Biso   1.000  C
  C78      1.0000 0.90245  0.20795  0.92760  Biso   1.000  C
  C79      1.0000 0.90245  0.29205  0.57240  Biso   1.000  C
  C80      1.0000 0.59755  0.70795  0.57240  Biso   1.000  C
  C81      1.0000 0.45157  0.20598  0.40780  Biso   1.000  C
  C82      1.0000 0.04843  0.79402  0.40780  Biso   1.000  C
  C83      1.0000 0.04843  0.70598  0.09220  Biso   1.000  C
  C84      1.0000 0.45157  0.29402  0.09220  Biso   1.000  C
  C85      1.0000 0.54843  0.79402  0.59220  Biso   1.000  C
  C86      1.0000 0.95157  0.20598  0.59220  Biso   1.000  C
  C87      1.0000 0.95157  0.29402  0.90780  Biso   1.000  C
  C88      1.0000 0.54843  0.70598  0.90780  Biso   1.000  C
  C89      1.0000 0.42630  0.22823  0.24620  Biso   1.000  C
  C90      1.0000 0.07370  0.77177  0.24620  Biso   1.000  C
  C91      1.0000 0.07370  0.72823  0.25380  Biso   1.000  C
  C92      1.0000 0.42630  0.27177  0.25380  Biso   1.000  C
  C93      1.0000 0.57370  0.77177  0.75380  Biso   1.000  C
  C94      1.0000 0.92630  0.22823  0.75380  Biso   1.000  C
  C95      1.0000 0.92630  0.27177  0.74620  Biso   1.000  C
  C96      1.0000 0.57370  0.72823  0.74620  Biso   1.000  C
  C97      1.0000 0.10858  0.22841  0.25450  Biso   1.000  C
  C98      1.0000 0.39142  0.77159  0.25450  Biso   1.000  C
  C99      1.0000 0.39142  0.72841  0.24550  Biso   1.000  C
  C100     1.0000 0.10858  0.27159  0.24550  Biso   1.000  C
  C101     1.0000 0.89142  0.77159  0.74550  Biso   1.000  C
  C102     1.0000 0.60858  0.22841  0.74550  Biso   1.000  C
  C103     1.0000 0.60858  0.27159  0.75450  Biso   1.000  C
  C104     1.0000 0.89142  0.72841  0.75450  Biso   1.000  C
  C105     1.0000 0.08262  0.20602  0.09130  Biso   1.000  C
  C106     1.0000 0.41738  0.79398  0.09130  Biso   1.000  C
  C107     1.0000 0.41738  0.70602  0.40870  Biso   1.000  C
  C108     1.0000 0.08262  0.29398  0.40870  Biso   1.000  C
  C109     1.0000 0.91738  0.79398  0.90870  Biso   1.000  C
  C110     1.0000 0.58262  0.20602  0.90870  Biso   1.000  C
  C111     1.0000 0.58262  0.29398  0.59130  Biso   1.000  C
  C112     1.0000 0.91738  0.70602  0.59130  Biso   1.000  C
  C113     1.0000 0.13142  0.20782  0.42710  Biso   1.000  C
  C114     1.0000 0.36858  0.79218  0.42710  Biso   1.000  C
  C115     1.0000 0.36858  0.70782  0.07290  Biso   1.000  C
  C116     1.0000 0.13142  0.29218  0.07290  Biso   1.000  C
  C117     1.0000 0.86858  0.79218  0.57290  Biso   1.000  C
  C118     1.0000 0.63142  0.20782  0.57290  Biso   1.000  C
  C119     1.0000 0.63142  0.29218  0.92710  Biso   1.000  C
  C120     1.0000 0.86858  0.70782  0.92710  Biso   1.000  C
  C121     1.0000 0.07944  0.16627  0.10700  Biso   1.000  C
  C122     1.0000 0.42056  0.83373  0.10700  Biso   1.000  C
  C123     1.0000 0.42056  0.66627  0.39300  Biso   1.000  C
  C124     1.0000 0.07944  0.33373  0.39300  Biso   1.000  C
  C125     1.0000 0.92056  0.83373  0.89300  Biso   1.000  C
  C126     1.0000 0.57944  0.16627  0.89300  Biso   1.000  C
  C127     1.0000 0.57944  0.33373  0.60700  Biso   1.000  C
  C128     1.0000 0.92056  0.66627  0.60700  Biso   1.000  C
  C129     1.0000 0.12760  0.16781  0.44260  Biso   1.000  C
  C130     1.0000 0.37240  0.83219  0.44260  Biso   1.000  C
  C131     1.0000 0.37240  0.66781  0.05740  Biso   1.000  C
  C132     1.0000 0.12760  0.33219  0.05740  Biso   1.000  C
  C133     1.0000 0.87240  0.83219  0.55740  Biso   1.000  C
  C134     1.0000 0.62760  0.16781  0.55740  Biso   1.000  C
  C135     1.0000 0.62760  0.33219  0.94260  Biso   1.000  C
  C136     1.0000 0.87240  0.66781  0.94260  Biso   1.000  C
  C137     1.0000 0.10098  0.14575  0.28480  Biso   1.000  C
  C138     1.0000 0.39902  0.85425  0.28480  Biso   1.000  C
  C139     1.0000 0.39902  0.64575  0.21520  Biso   1.000  C
  C140     1.0000 0.10098  0.35425  0.21520  Biso   1.000  C
  C141     1.0000 0.89902  0.85425  0.71520  Biso   1.000  C
  C142     1.0000 0.60098  0.14575  0.71520  Biso   1.000  C
  C143     1.0000 0.60098  0.35425  0.78480  Biso   1.000  C
  C144     1.0000 0.89902  0.64575  0.78480  Biso   1.000  C
  C145     1.0000 0.09349  0.10210  0.30350  Biso   1.000  C
  C146     1.0000 0.40651  0.89790  0.30350  Biso   1.000  C
  C147     1.0000 0.40651  0.60210  0.19650  Biso   1.000  C
  C148     1.0000 0.09349  0.39790  0.19650  Biso   1.000  C
  C149     1.0000 0.90651  0.89790  0.69650  Biso   1.000  C
  C150     1.0000 0.59349  0.10210  0.69650  Biso   1.000  C
  C151     1.0000 0.59349  0.39790  0.80350  Biso   1.000  C
  C152     1.0000 0.90651  0.60210  0.80350  Biso   1.000  C
  H49      1.0000 0.05370  0.09540  0.27270  Biso   1.000  H
  H50      1.0000 0.44630  0.90460  0.27270  Biso   1.000  H
  H51      1.0000 0.44630  0.59540  0.22730  Biso   1.000  H
  H52      1.0000 0.05370  0.40460  0.22730  Biso   1.000  H
  H53      1.0000 0.94630  0.90460  0.72730  Biso   1.000  H
  H54      1.0000 0.55370  0.09540  0.72730  Biso   1.000  H
  H55      1.0000 0.55370  0.40460  0.77270  Biso   1.000  H
  H56      1.0000 0.94630  0.59540  0.77270  Biso   1.000  H
  H57      1.0000 0.10210  0.09390  0.45620  Biso   1.000  H
  H58      1.0000 0.39790  0.90610  0.45620  Biso   1.000  H
  H59      1.0000 0.39790  0.59390  0.04380  Biso   1.000  H
  H60      1.0000 0.10210  0.40610  0.04380  Biso   1.000  H
  H61      1.0000 0.89790  0.90610  0.54380  Biso   1.000  H
  H62      1.0000 0.60210  0.09390  0.54380  Biso   1.000  H
  H63      1.0000 0.60210  0.40610  0.95620  Biso   1.000  H
  H64      1.0000 0.89790  0.59390  0.95620  Biso   1.000  H
  C153     1.0000 0.13138  0.08005  0.14430  Biso   1.000  C
  C154     1.0000 0.36862  0.91995  0.14430  Biso   1.000  C
  C155     1.0000 0.36862  0.58005  0.35570  Biso   1.000  C
  C156     1.0000 0.13138  0.41995  0.35570  Biso   1.000  C
  C157     1.0000 0.86862  0.91995  0.85570  Biso   1.000  C
  C158     1.0000 0.63138  0.08005  0.85570  Biso   1.000  C
  C159     1.0000 0.63138  0.41995  0.64430  Biso   1.000  C
  C160     1.0000 0.86862  0.58005  0.64430  Biso   1.000  C
  C161     1.0000 0.18971  0.08186  0.15950  Biso   1.000  C
  C162     1.0000 0.31029  0.91814  0.15950  Biso   1.000  C
  C163     1.0000 0.31029  0.58186  0.34050  Biso   1.000  C
  C164     1.0000 0.18971  0.41814  0.34050  Biso   1.000  C
  C165     1.0000 0.81029  0.91814  0.84050  Biso   1.000  C
  C166     1.0000 0.68971  0.08186  0.84050  Biso   1.000  C
  C167     1.0000 0.68971  0.41814  0.65950  Biso   1.000  C
  C168     1.0000 0.81029  0.58186  0.65950  Biso   1.000  C
  H65      1.0000 0.20700  0.09840  0.26510  Biso   1.000  H
  H66      1.0000 0.29300  0.90160  0.26510  Biso   1.000  H
  H67      1.0000 0.29300  0.59840  0.23490  Biso   1.000  H
  H68      1.0000 0.20700  0.40160  0.23490  Biso   1.000  H
  H69      1.0000 0.79300  0.90160  0.73490  Biso   1.000  H
  H70      1.0000 0.70700  0.09840  0.73490  Biso   1.000  H
  H71      1.0000 0.70700  0.40160  0.76510  Biso   1.000  H
  H72      1.0000 0.79300  0.59840  0.76510  Biso   1.000  H
  C169     1.0000 0.10865  0.05656  0.98270  Biso   1.000  C
  C170     1.0000 0.39135  0.94344  0.98270  Biso   1.000  C
  C171     1.0000 0.39135  0.55656  0.51730  Biso   1.000  C
  C172     1.0000 0.10865  0.44344  0.51730  Biso   1.000  C
  C173     1.0000 0.89135  0.94344  0.01730  Biso   1.000  C
  C174     1.0000 0.60865  0.05656  0.01730  Biso   1.000  C
  C175     1.0000 0.60865  0.44344  0.48270  Biso   1.000  C
  C176     1.0000 0.89135  0.55656  0.48270  Biso   1.000  C
  H73      1.0000 0.06900  0.05520  0.96340  Biso   1.000  H
  H74      1.0000 0.43100  0.94480  0.96340  Biso   1.000  H
  H75      1.0000 0.43100  0.55520  0.53660  Biso   1.000  H
  H76      1.0000 0.06900  0.44480  0.53660  Biso   1.000  H
  H77      1.0000 0.93100  0.94480  0.03660  Biso   1.000  H
  H78      1.0000 0.56900  0.05520  0.03660  Biso   1.000  H
  H79      1.0000 0.56900  0.44480  0.46340  Biso   1.000  H
  H80      1.0000 0.93100  0.55520  0.46340  Biso   1.000  H
  C177     1.0000 0.22219  0.05954  0.02080  Biso   1.000  C
  C178     1.0000 0.27781  0.94046  0.02080  Biso   1.000  C
  C179     1.0000 0.27781  0.55954  0.47920  Biso   1.000  C
  C180     1.0000 0.22219  0.44046  0.47920  Biso   1.000  C
  C181     1.0000 0.77781  0.94046  0.97920  Biso   1.000  C
  C182     1.0000 0.72219  0.05954  0.97920  Biso   1.000  C
  C183     1.0000 0.72219  0.44046  0.52080  Biso   1.000  C
  C184     1.0000 0.77781  0.55954  0.52080  Biso   1.000  C
  H81      1.0000 0.26200  0.06090  0.03560  Biso   1.000  H
  H82      1.0000 0.23800  0.93910  0.03560  Biso   1.000  H
  H83      1.0000 0.23800  0.56090  0.46440  Biso   1.000  H
  H84      1.0000 0.26200  0.43910  0.46440  Biso   1.000  H
  H85      1.0000 0.73800  0.93910  0.96440  Biso   1.000  H
  H86      1.0000 0.76200  0.06090  0.96440  Biso   1.000  H
  H87      1.0000 0.76200  0.43910  0.53560  Biso   1.000  H
  H88      1.0000 0.73800  0.56090  0.53560  Biso   1.000  H
  C185     1.0000 0.14404  0.03501  0.84910  Biso   1.000  C
  C186     1.0000 0.35596  0.96499  0.84910  Biso   1.000  C
  C187     1.0000 0.35596  0.53501  0.65090  Biso   1.000  C
  C188     1.0000 0.14404  0.46499  0.65090  Biso   1.000  C
  C189     1.0000 0.85596  0.96499  0.15090  Biso   1.000  C
  C190     1.0000 0.64404  0.03501  0.15090  Biso   1.000  C
  C191     1.0000 0.64404  0.46499  0.34910  Biso   1.000  C
  C192     1.0000 0.85596  0.53501  0.34910  Biso   1.000  C
  H89      1.0000 0.12760  0.01870  0.74010  Biso   1.000  H
  H90      1.0000 0.37240  0.98130  0.74010  Biso   1.000  H
  H91      1.0000 0.37240  0.51870  0.75990  Biso   1.000  H
  H92      1.0000 0.12760  0.48130  0.75990  Biso   1.000  H
  H93      1.0000 0.87240  0.98130  0.25990  Biso   1.000  H
  H94      1.0000 0.62760  0.01870  0.25990  Biso   1.000  H
  H95      1.0000 0.62760  0.48130  0.24010  Biso   1.000  H
  H96      1.0000 0.87240  0.51870  0.24010  Biso   1.000  H
  C193     1.0000 0.26151  0.18702  0.18340  Biso   1.000  C
  C194     1.0000 0.23849  0.81298  0.18340  Biso   1.000  C
  C195     1.0000 0.23849  0.68702  0.31660  Biso   1.000  C
  C196     1.0000 0.26151  0.31298  0.31660  Biso   1.000  C
  C197     1.0000 0.73849  0.81298  0.81660  Biso   1.000  C
  C198     1.0000 0.76151  0.18702  0.81660  Biso   1.000  C
  C199     1.0000 0.76151  0.31298  0.68340  Biso   1.000  C
  C200     1.0000 0.73849  0.68702  0.68340  Biso   1.000  C
  C201     1.0000 0.24700  0.19241  0.95450  Biso   1.000  C
  C202     1.0000 0.25300  0.80759  0.95450  Biso   1.000  C
  C203     1.0000 0.25300  0.69241  0.54550  Biso   1.000  C
  C204     1.0000 0.24700  0.30759  0.54550  Biso   1.000  C
  C205     1.0000 0.75300  0.80759  0.04550  Biso   1.000  C
  C206     1.0000 0.74700  0.19241  0.04550  Biso   1.000  C
  C207     1.0000 0.74700  0.30759  0.45450  Biso   1.000  C
  C208     1.0000 0.75300  0.69241  0.45450  Biso   1.000  C
