data_image0
_cell_length_a       13.2426
_cell_length_b       13.3936
_cell_length_c       14.6684
_cell_angle_alpha    90
_cell_angle_beta     100.664
_cell_angle_gamma    90

_symmetry_space_group_name_H-M    "P 1"
_symmetry_int_tables_number       1

loop_
  _symmetry_equiv_pos_as_xyz
  'x, y, z'

loop_
  _atom_site_label
  _atom_site_occupancy
  _atom_site_fract_x
  _atom_site_fract_y
  _atom_site_fract_z
  _atom_site_thermal_displace_type
  _atom_site_B_iso_or_equiv
  _atom_site_type_symbol
  Cu1      1.0000 0.23876  0.02224  0.22271  Biso   1.000  Cu
  Cu2      1.0000 0.26124  0.52224  0.27729  Biso   1.000  Cu
  Cu3      1.0000 0.76124  0.97776  0.77729  Biso   1.000  Cu
  Cu4      1.0000 0.73876  0.47776  0.72271  Biso   1.000  Cu
  F1       1.0000 0.33216  0.95126  0.87433  Biso   1.000  F
  F2       1.0000 0.16784  0.45126  0.62567  Biso   1.000  F
  F3       1.0000 0.66784  0.04874  0.12567  Biso   1.000  F
  F4       1.0000 0.83216  0.54874  0.37433  Biso   1.000  F
  F5       1.0000 0.21957  0.65297  0.71875  Biso   1.000  F
  F6       1.0000 0.28043  0.15297  0.78125  Biso   1.000  F
  F7       1.0000 0.78043  0.34703  0.28125  Biso   1.000  F
  F8       1.0000 0.71957  0.84703  0.21875  Biso   1.000  F
  F9       1.0000 0.45567  0.98609  0.75312  Biso   1.000  F
  F10      1.0000 0.04433  0.48609  0.74688  Biso   1.000  F
  F11      1.0000 0.54433  0.01391  0.24688  Biso   1.000  F
  F12      1.0000 0.95567  0.51391  0.25312  Biso   1.000  F
  F13      1.0000 0.34881  0.68328  0.60143  Biso   1.000  F
  F14      1.0000 0.15119  0.18328  0.89857  Biso   1.000  F
  F15      1.0000 0.65119  0.31672  0.39857  Biso   1.000  F
  F16      1.0000 0.84881  0.81672  0.10143  Biso   1.000  F
  F17      1.0000 0.35233  0.38782  0.89621  Biso   1.000  F
  F18      1.0000 0.14767  0.88782  0.60379  Biso   1.000  F
  F19      1.0000 0.64767  0.61218  0.10379  Biso   1.000  F
  F20      1.0000 0.85233  0.11218  0.39621  Biso   1.000  F
  F21      1.0000 0.66168  0.41427  0.11174  Biso   1.000  F
  F22      1.0000 0.83832  0.91427  0.38826  Biso   1.000  F
  F23      1.0000 0.33832  0.58573  0.88826  Biso   1.000  F
  F24      1.0000 0.16168  0.08573  0.61174  Biso   1.000  F
  O1       1.0000 0.19102  0.88198  0.13453  Biso   1.000  O
  O2       1.0000 0.30898  0.38198  0.36547  Biso   1.000  O
  O3       1.0000 0.80898  0.11802  0.86547  Biso   1.000  O
  O4       1.0000 0.69102  0.61802  0.63453  Biso   1.000  O
  O5       1.0000 0.21926  0.73177  0.09596  Biso   1.000  O
  O6       1.0000 0.28074  0.23177  0.40404  Biso   1.000  O
  O7       1.0000 0.78074  0.26823  0.90404  Biso   1.000  O
  O8       1.0000 0.71926  0.76823  0.59596  Biso   1.000  O
  O9       1.0000 0.34296  0.83820  0.11741  Biso   1.000  O
  O10      1.0000 0.15704  0.33820  0.38259  Biso   1.000  O
  O11      1.0000 0.65704  0.16180  0.88259  Biso   1.000  O
  O12      1.0000 0.84296  0.66180  0.61741  Biso   1.000  O
  N1       1.0000 0.30716  0.96261  0.34296  Biso   1.000  N
  N2       1.0000 0.19284  0.46261  0.15704  Biso   1.000  N
  N3       1.0000 0.69284  0.03739  0.65704  Biso   1.000  N
  N4       1.0000 0.80716  0.53739  0.84296  Biso   1.000  N
  N5       1.0000 0.08941  0.06420  0.20686  Biso   1.000  N
  N6       1.0000 0.41059  0.56420  0.29314  Biso   1.000  N
  N7       1.0000 0.91059  0.93580  0.79314  Biso   1.000  N
  N8       1.0000 0.58941  0.43580  0.70686  Biso   1.000  N
  N9       1.0000 0.31872  0.11015  0.15039  Biso   1.000  N
  N10      1.0000 0.18128  0.61015  0.34961  Biso   1.000  N
  N11      1.0000 0.68128  0.88985  0.84961  Biso   1.000  N
  N12      1.0000 0.81872  0.38985  0.65039  Biso   1.000  N
  N13      1.0000 0.25035  0.81776  0.11578  Biso   1.000  N
  N14      1.0000 0.24965  0.31776  0.38422  Biso   1.000  N
  N15      1.0000 0.74965  0.18224  0.88422  Biso   1.000  N
  N16      1.0000 0.75035  0.68224  0.61578  Biso   1.000  N
  C1       1.0000 0.29281  0.00036  0.42431  Biso   1.000  C
  C2       1.0000 0.20719  0.50036  0.07569  Biso   1.000  C
  C3       1.0000 0.70719  0.99964  0.57569  Biso   1.000  C
  C4       1.0000 0.79281  0.49964  0.92431  Biso   1.000  C
  H1       1.0000 0.24450  0.05300  0.42360  Biso   1.000  H
  H2       1.0000 0.25550  0.55300  0.07640  Biso   1.000  H
  H3       1.0000 0.75550  0.94700  0.57640  Biso   1.000  H
  H4       1.0000 0.74450  0.44700  0.92360  Biso   1.000  H
  C5       1.0000 0.37546  0.88799  0.34729  Biso   1.000  C
  C6       1.0000 0.12454  0.38799  0.15271  Biso   1.000  C
  C7       1.0000 0.62454  0.11201  0.65271  Biso   1.000  C
  C8       1.0000 0.87546  0.61201  0.84729  Biso   1.000  C
  H5       1.0000 0.38720  0.85950  0.29080  Biso   1.000  H
  H6       1.0000 0.11280  0.35950  0.20920  Biso   1.000  H
  H7       1.0000 0.61280  0.14050  0.70920  Biso   1.000  H
  H8       1.0000 0.88720  0.64050  0.79080  Biso   1.000  H
  C9       1.0000 0.34468  0.96660  0.50899  Biso   1.000  C
  C10      1.0000 0.15532  0.46660  0.99101  Biso   1.000  C
  C11      1.0000 0.65532  0.03340  0.49101  Biso   1.000  C
  C12      1.0000 0.84468  0.53340  0.00899  Biso   1.000  C
  H9       1.0000 0.33160  0.99580  0.56460  Biso   1.000  H
  H10      1.0000 0.16840  0.49580  0.93540  Biso   1.000  H
  H11      1.0000 0.66840  0.00420  0.43540  Biso   1.000  H
  H12      1.0000 0.83160  0.50420  0.06460  Biso   1.000  H
  C13      1.0000 0.42943  0.85052  0.42965  Biso   1.000  C
  C14      1.0000 0.07057  0.35052  0.07035  Biso   1.000  C
  C15      1.0000 0.57057  0.14948  0.57035  Biso   1.000  C
  C16      1.0000 0.92943  0.64948  0.92965  Biso   1.000  C
  H13      1.0000 0.47630  0.79700  0.42890  Biso   1.000  H
  H14      1.0000 0.02370  0.29700  0.07110  Biso   1.000  H
  H15      1.0000 0.52370  0.20300  0.57110  Biso   1.000  H
  H16      1.0000 0.97630  0.70300  0.92890  Biso   1.000  H
  C17      1.0000 0.41562  0.89040  0.51304  Biso   1.000  C
  C18      1.0000 0.08438  0.39040  0.98696  Biso   1.000  C
  C19      1.0000 0.58438  0.10960  0.48696  Biso   1.000  C
  C20      1.0000 0.91562  0.60960  0.01304  Biso   1.000  C
  C21      1.0000 0.47605  0.85330  0.60469  Biso   1.000  C
  C22      1.0000 0.02395  0.35330  0.89531  Biso   1.000  C
  C23      1.0000 0.52395  0.14670  0.39531  Biso   1.000  C
  C24      1.0000 0.97605  0.64670  0.10469  Biso   1.000  C
  H17      1.0000 0.51180  0.79060  0.59420  Biso   1.000  H
  H18      1.0000 0.98820  0.29060  0.90580  Biso   1.000  H
  H19      1.0000 0.48820  0.20940  0.40580  Biso   1.000  H
  H20      1.0000 0.01180  0.70940  0.09420  Biso   1.000  H
  H21      1.0000 0.52880  0.90340  0.62990  Biso   1.000  H
  H22      1.0000 0.97120  0.40340  0.87010  Biso   1.000  H
  H23      1.0000 0.47120  0.09660  0.37010  Biso   1.000  H
  H24      1.0000 0.02880  0.59660  0.12990  Biso   1.000  H
  C25      1.0000 0.40767  0.83474  0.67435  Biso   1.000  C
  C26      1.0000 0.09233  0.33474  0.82565  Biso   1.000  C
  C27      1.0000 0.59233  0.16526  0.32565  Biso   1.000  C
  C28      1.0000 0.90767  0.66526  0.17435  Biso   1.000  C
  C29      1.0000 0.39938  0.90128  0.74435  Biso   1.000  C
  C30      1.0000 0.10062  0.40128  0.75565  Biso   1.000  C
  C31      1.0000 0.60062  0.09872  0.25565  Biso   1.000  C
  C32      1.0000 0.89938  0.59872  0.24435  Biso   1.000  C
  C33      1.0000 0.34535  0.75102  0.66898  Biso   1.000  C
  C34      1.0000 0.15465  0.25102  0.83102  Biso   1.000  C
  C35      1.0000 0.65465  0.24898  0.33102  Biso   1.000  C
  C36      1.0000 0.84535  0.74898  0.16898  Biso   1.000  C
  C37      1.0000 0.33491  0.88446  0.80631  Biso   1.000  C
  C38      1.0000 0.16509  0.38446  0.69369  Biso   1.000  C
  C39      1.0000 0.66509  0.11554  0.19369  Biso   1.000  C
  C40      1.0000 0.83491  0.61554  0.30631  Biso   1.000  C
  C41      1.0000 0.27962  0.73527  0.72991  Biso   1.000  C
  C42      1.0000 0.22038  0.23527  0.77009  Biso   1.000  C
  C43      1.0000 0.72038  0.26473  0.27009  Biso   1.000  C
  C44      1.0000 0.77962  0.76473  0.22991  Biso   1.000  C
  C45      1.0000 0.27310  0.80074  0.80110  Biso   1.000  C
  C46      1.0000 0.22690  0.30074  0.69890  Biso   1.000  C
  C47      1.0000 0.72690  0.19926  0.19890  Biso   1.000  C
  C48      1.0000 0.77310  0.69926  0.30110  Biso   1.000  C
  C49      1.0000 0.20217  0.78440  0.86932  Biso   1.000  C
  C50      1.0000 0.29783  0.28440  0.63068  Biso   1.000  C
  C51      1.0000 0.79783  0.21560  0.13068  Biso   1.000  C
  C52      1.0000 0.70217  0.71560  0.36932  Biso   1.000  C
  H25      1.0000 0.23650  0.80740  0.93150  Biso   1.000  H
  H26      1.0000 0.26350  0.30740  0.56850  Biso   1.000  H
  H27      1.0000 0.76350  0.19260  0.06850  Biso   1.000  H
  H28      1.0000 0.73650  0.69260  0.43150  Biso   1.000  H
  H29      1.0000 0.18820  0.71210  0.87340  Biso   1.000  H
  H30      1.0000 0.31180  0.21210  0.62660  Biso   1.000  H
  H31      1.0000 0.81180  0.28790  0.12660  Biso   1.000  H
  H32      1.0000 0.68820  0.78790  0.37340  Biso   1.000  H
  C53      1.0000 0.10124  0.83970  0.84135  Biso   1.000  C
  C54      1.0000 0.39876  0.33970  0.65865  Biso   1.000  C
  C55      1.0000 0.89876  0.16030  0.15865  Biso   1.000  C
  C56      1.0000 0.60124  0.66030  0.34135  Biso   1.000  C
  C57      1.0000 0.07855  0.92320  0.88817  Biso   1.000  C
  C58      1.0000 0.42145  0.42320  0.61183  Biso   1.000  C
  C59      1.0000 0.92145  0.07680  0.11183  Biso   1.000  C
  C60      1.0000 0.57855  0.57680  0.38817  Biso   1.000  C
  H33      1.0000 0.12770  0.94970  0.93770  Biso   1.000  H
  H34      1.0000 0.37230  0.44970  0.56230  Biso   1.000  H
  H35      1.0000 0.87230  0.05030  0.06230  Biso   1.000  H
  H36      1.0000 0.62770  0.55030  0.43770  Biso   1.000  H
  C61      1.0000 0.02743  0.80680  0.76790  Biso   1.000  C
  C62      1.0000 0.47257  0.30680  0.73210  Biso   1.000  C
  C63      1.0000 0.97257  0.19320  0.23210  Biso   1.000  C
  C64      1.0000 0.52743  0.69320  0.26790  Biso   1.000  C
  H37      1.0000 0.04070  0.75050  0.73260  Biso   1.000  H
  H38      1.0000 0.45930  0.25050  0.76740  Biso   1.000  H
  H39      1.0000 0.95930  0.24950  0.26740  Biso   1.000  H
  H40      1.0000 0.54070  0.74950  0.23260  Biso   1.000  H
  C65      1.0000 0.01682  0.03144  0.13744  Biso   1.000  C
  C66      1.0000 0.48318  0.53144  0.36256  Biso   1.000  C
  C67      1.0000 0.98318  0.96856  0.86256  Biso   1.000  C
  C68      1.0000 0.51682  0.46856  0.63744  Biso   1.000  C
  H41      1.0000 0.03130  0.97420  0.10390  Biso   1.000  H
  H42      1.0000 0.46870  0.47420  0.39610  Biso   1.000  H
  H43      1.0000 0.96870  0.02580  0.89610  Biso   1.000  H
  H44      1.0000 0.53130  0.52580  0.60390  Biso   1.000  H
  C69      1.0000 0.06548  0.14396  0.25385  Biso   1.000  C
  C70      1.0000 0.43452  0.64396  0.24615  Biso   1.000  C
  C71      1.0000 0.93452  0.85604  0.74615  Biso   1.000  C
  C72      1.0000 0.56548  0.35604  0.75385  Biso   1.000  C
  H45      1.0000 0.11490  0.16770  0.30460  Biso   1.000  H
  H46      1.0000 0.38510  0.66770  0.19540  Biso   1.000  H
  H47      1.0000 0.88510  0.83230  0.69540  Biso   1.000  H
  H48      1.0000 0.61490  0.33230  0.80460  Biso   1.000  H
  C73      1.0000 0.34459  0.20488  0.17515  Biso   1.000  C
  C74      1.0000 0.15541  0.70488  0.32485  Biso   1.000  C
  C75      1.0000 0.65541  0.79512  0.82485  Biso   1.000  C
  C76      1.0000 0.84459  0.29512  0.67515  Biso   1.000  C
  H49      1.0000 0.32020  0.23240  0.22670  Biso   1.000  H
  H50      1.0000 0.17980  0.73240  0.27330  Biso   1.000  H
  H51      1.0000 0.67980  0.76760  0.77330  Biso   1.000  H
  H52      1.0000 0.82020  0.26760  0.72670  Biso   1.000  H
  C77      1.0000 0.35400  0.07449  0.07685  Biso   1.000  C
  C78      1.0000 0.14600  0.57449  0.42315  Biso   1.000  C
  C79      1.0000 0.64600  0.92551  0.92315  Biso   1.000  C
  C80      1.0000 0.85400  0.42551  0.57685  Biso   1.000  C
  H53      1.0000 0.33680  0.00800  0.05750  Biso   1.000  H
  H54      1.0000 0.16320  0.50800  0.44250  Biso   1.000  H
  H55      1.0000 0.66320  0.99200  0.94250  Biso   1.000  H
  H56      1.0000 0.83680  0.49200  0.55750  Biso   1.000  H
  C81      1.0000 0.40462  0.26420  0.12973  Biso   1.000  C
  C82      1.0000 0.09538  0.76420  0.37027  Biso   1.000  C
  C83      1.0000 0.59538  0.73580  0.87027  Biso   1.000  C
  C84      1.0000 0.90462  0.23580  0.62973  Biso   1.000  C
  H57      1.0000 0.42020  0.33080  0.14990  Biso   1.000  H
  H58      1.0000 0.07980  0.83080  0.35010  Biso   1.000  H
  H59      1.0000 0.57980  0.66920  0.85010  Biso   1.000  H
  H60      1.0000 0.92020  0.16920  0.64990  Biso   1.000  H
  C85      1.0000 0.41428  0.12977  0.02775  Biso   1.000  C
  C86      1.0000 0.08572  0.62977  0.47225  Biso   1.000  C
  C87      1.0000 0.58572  0.87023  0.97225  Biso   1.000  C
  C88      1.0000 0.91428  0.37023  0.52775  Biso   1.000  C
  H61      1.0000 0.43660  0.10130  0.97560  Biso   1.000  H
  H62      1.0000 0.06340  0.60130  0.52440  Biso   1.000  H
  H63      1.0000 0.56340  0.89870  0.02440  Biso   1.000  H
  H64      1.0000 0.93660  0.39870  0.47560  Biso   1.000  H
  C89      1.0000 0.44204  0.22628  0.05454  Biso   1.000  C
  C90      1.0000 0.05796  0.72628  0.44546  Biso   1.000  C
  C91      1.0000 0.55796  0.77372  0.94546  Biso   1.000  C
  C92      1.0000 0.94204  0.27372  0.55454  Biso   1.000  C
  C93      1.0000 0.51574  0.28151  0.00507  Biso   1.000  C
  C94      1.0000 0.98426  0.78151  0.49493  Biso   1.000  C
  C95      1.0000 0.48426  0.71849  0.99493  Biso   1.000  C
  C96      1.0000 0.01574  0.21849  0.50507  Biso   1.000  C
  H65      1.0000 0.58670  0.26330  0.03460  Biso   1.000  H
  H66      1.0000 0.91330  0.76330  0.46540  Biso   1.000  H
  H67      1.0000 0.41330  0.73670  0.96540  Biso   1.000  H
  H68      1.0000 0.08670  0.23670  0.53460  Biso   1.000  H
  H69      1.0000 0.50490  0.25780  0.94010  Biso   1.000  H
  H70      1.0000 0.99510  0.75780  0.55990  Biso   1.000  H
  H71      1.0000 0.49510  0.74220  0.05990  Biso   1.000  H
  H72      1.0000 0.00490  0.24220  0.44010  Biso   1.000  H
  C97      1.0000 0.50711  0.39369  0.00411  Biso   1.000  C
  C98      1.0000 0.99289  0.89369  0.49589  Biso   1.000  C
  C99      1.0000 0.49289  0.60631  0.99589  Biso   1.000  C
  C100     1.0000 0.00711  0.10631  0.50411  Biso   1.000  C
  C101     1.0000 0.42673  0.44301  0.94827  Biso   1.000  C
  C102     1.0000 0.07327  0.94301  0.55173  Biso   1.000  C
  C103     1.0000 0.57327  0.55699  0.05173  Biso   1.000  C
  C104     1.0000 0.92673  0.05699  0.44827  Biso   1.000  C
  C105     1.0000 0.58025  0.45494  0.05580  Biso   1.000  C
  C106     1.0000 0.91975  0.95494  0.44420  Biso   1.000  C
  C107     1.0000 0.41975  0.54506  0.94420  Biso   1.000  C
  C108     1.0000 0.08025  0.04506  0.55580  Biso   1.000  C
