data_image0
_cell_length_a       6.684
_cell_length_b       19.8286
_cell_length_c       6.0847
_cell_angle_alpha    90
_cell_angle_beta     90
_cell_angle_gamma    90

_symmetry_space_group_name_H-M    "P 1"
_symmetry_int_tables_number       1

loop_
  _symmetry_equiv_pos_as_xyz
  'x, y, z'

loop_
  _atom_site_label
  _atom_site_occupancy
  _atom_site_fract_x
  _atom_site_fract_y
  _atom_site_fract_z
  _atom_site_thermal_displace_type
  _atom_site_B_iso_or_equiv
  _atom_site_type_symbol
  Cu1      1.0000 0.18674  0.49429  0.23820  Biso   1.000  Cu
  Cu2      1.0000 0.31326  0.50571  0.73820  Biso   1.000  Cu
  Cu3      1.0000 0.68674  0.00571  0.76180  Biso   1.000  Cu
  Cu4      1.0000 0.81326  0.99429  0.26180  Biso   1.000  Cu
  Cu5      1.0000 0.81326  0.50571  0.76180  Biso   1.000  Cu
  Cu6      1.0000 0.68674  0.49429  0.26180  Biso   1.000  Cu
  Cu7      1.0000 0.31326  0.99429  0.23820  Biso   1.000  Cu
  Cu8      1.0000 0.18674  0.00571  0.73820  Biso   1.000  Cu
  N1       1.0000 0.17810  0.57841  0.37320  Biso   1.000  N
  N2       1.0000 0.32190  0.42159  0.87320  Biso   1.000  N
  N3       1.0000 0.67810  0.92159  0.62680  Biso   1.000  N
  N4       1.0000 0.82190  0.07841  0.12680  Biso   1.000  N
  N5       1.0000 0.82190  0.42159  0.62680  Biso   1.000  N
  N6       1.0000 0.67810  0.57841  0.12680  Biso   1.000  N
  N7       1.0000 0.32190  0.07841  0.37320  Biso   1.000  N
  N8       1.0000 0.17810  0.92159  0.87320  Biso   1.000  N
  N9       1.0000 0.25630  0.41610  0.08750  Biso   1.000  N
  N10      1.0000 0.24370  0.58390  0.58750  Biso   1.000  N
  N11      1.0000 0.75630  0.08390  0.91250  Biso   1.000  N
  N12      1.0000 0.74370  0.91610  0.41250  Biso   1.000  N
  N13      1.0000 0.74370  0.58390  0.91250  Biso   1.000  N
  N14      1.0000 0.75630  0.41610  0.41250  Biso   1.000  N
  N15      1.0000 0.24370  0.91610  0.08750  Biso   1.000  N
  N16      1.0000 0.25630  0.08390  0.58750  Biso   1.000  N
  C1       1.0000 0.26990  0.34922  0.14850  Biso   1.000  C
  C2       1.0000 0.23010  0.65078  0.64850  Biso   1.000  C
  C3       1.0000 0.76990  0.15078  0.85150  Biso   1.000  C
  C4       1.0000 0.73010  0.84922  0.35150  Biso   1.000  C
  C5       1.0000 0.73010  0.65078  0.85150  Biso   1.000  C
  C6       1.0000 0.76990  0.34922  0.35150  Biso   1.000  C
  C7       1.0000 0.23010  0.84922  0.14850  Biso   1.000  C
  C8       1.0000 0.26990  0.15078  0.64850  Biso   1.000  C
  C9       1.0000 0.34210  0.31328  0.97110  Biso   1.000  C
  C10      1.0000 0.15790  0.68672  0.47110  Biso   1.000  C
  C11      1.0000 0.84210  0.18672  0.02890  Biso   1.000  C
  C12      1.0000 0.65790  0.81328  0.52890  Biso   1.000  C
  C13      1.0000 0.65790  0.68672  0.02890  Biso   1.000  C
  C14      1.0000 0.84210  0.31328  0.52890  Biso   1.000  C
  C15      1.0000 0.15790  0.81328  0.97110  Biso   1.000  C
  C16      1.0000 0.34210  0.18672  0.47110  Biso   1.000  C
  C17      1.0000 0.12270  0.64182  0.30210  Biso   1.000  C
  C18      1.0000 0.37730  0.35818  0.80210  Biso   1.000  C
  C19      1.0000 0.62270  0.85818  0.69790  Biso   1.000  C
  C20      1.0000 0.87730  0.14182  0.19790  Biso   1.000  C
  C21      1.0000 0.87730  0.35818  0.69790  Biso   1.000  C
  C22      1.0000 0.62270  0.64182  0.19790  Biso   1.000  C
  C23      1.0000 0.37730  0.14182  0.30210  Biso   1.000  C
  C24      1.0000 0.12270  0.85818  0.80210  Biso   1.000  C
