data_image0
_cell_length_a       9.9332
_cell_length_b       13.3481
_cell_length_c       5.9538
_cell_angle_alpha    90
_cell_angle_beta     90
_cell_angle_gamma    90

_symmetry_space_group_name_H-M    "P 1"
_symmetry_int_tables_number       1

loop_
  _symmetry_equiv_pos_as_xyz
  'x, y, z'

loop_
  _atom_site_label
  _atom_site_occupancy
  _atom_site_fract_x
  _atom_site_fract_y
  _atom_site_fract_z
  _atom_site_thermal_displace_type
  _atom_site_B_iso_or_equiv
  _atom_site_type_symbol
  Cu1      1.0000 0.00000  0.35063  0.75000  Biso   1.000  Cu
  Cu2      1.0000 0.50000  0.85063  0.75000  Biso   1.000  Cu
  Cu3      1.0000 0.00000  0.64937  0.25000  Biso   1.000  Cu
  Cu4      1.0000 0.50000  0.14937  0.25000  Biso   1.000  Cu
  Cu5      1.0000 0.00000  0.42669  0.25000  Biso   1.000  Cu
  Cu6      1.0000 0.50000  0.92669  0.25000  Biso   1.000  Cu
  Cu7      1.0000 0.00000  0.57331  0.75000  Biso   1.000  Cu
  Cu8      1.0000 0.50000  0.07331  0.75000  Biso   1.000  Cu
  N1       1.0000 0.16345  0.35780  0.90160  Biso   1.000  N
  N2       1.0000 0.33655  0.85780  0.90160  Biso   1.000  N
  N3       1.0000 0.16345  0.64220  0.40160  Biso   1.000  N
  N4       1.0000 0.33655  0.14220  0.40160  Biso   1.000  N
  N5       1.0000 0.83655  0.64220  0.09840  Biso   1.000  N
  N6       1.0000 0.66345  0.14220  0.09840  Biso   1.000  N
  N7       1.0000 0.83655  0.35780  0.59840  Biso   1.000  N
  N8       1.0000 0.66345  0.85780  0.59840  Biso   1.000  N
  N9       1.0000 0.16451  0.39950  0.11380  Biso   1.000  N
  N10      1.0000 0.33549  0.89950  0.11380  Biso   1.000  N
  N11      1.0000 0.16451  0.60050  0.61380  Biso   1.000  N
  N12      1.0000 0.33549  0.10050  0.61380  Biso   1.000  N
  N13      1.0000 0.83549  0.60050  0.88620  Biso   1.000  N
  N14      1.0000 0.66451  0.10050  0.88620  Biso   1.000  N
  N15      1.0000 0.83549  0.39950  0.38620  Biso   1.000  N
  N16      1.0000 0.66451  0.89950  0.38620  Biso   1.000  N
  C1       1.0000 0.29696  0.41070  0.17910  Biso   1.000  C
  C2       1.0000 0.20304  0.91070  0.17910  Biso   1.000  C
  C3       1.0000 0.29696  0.58930  0.67910  Biso   1.000  C
  C4       1.0000 0.20304  0.08930  0.67910  Biso   1.000  C
  C5       1.0000 0.70304  0.58930  0.82090  Biso   1.000  C
  C6       1.0000 0.79696  0.08930  0.82090  Biso   1.000  C
  C7       1.0000 0.70304  0.41070  0.32090  Biso   1.000  C
  C8       1.0000 0.79696  0.91070  0.32090  Biso   1.000  C
  C9       1.0000 0.37766  0.37370  0.00960  Biso   1.000  C
  C10      1.0000 0.12234  0.87370  0.00960  Biso   1.000  C
  C11      1.0000 0.37766  0.62630  0.50960  Biso   1.000  C
  C12      1.0000 0.12234  0.12630  0.50960  Biso   1.000  C
  C13      1.0000 0.62234  0.62630  0.99040  Biso   1.000  C
  C14      1.0000 0.87766  0.12630  0.99040  Biso   1.000  C
  C15      1.0000 0.62234  0.37370  0.49040  Biso   1.000  C
  C16      1.0000 0.87766  0.87370  0.49040  Biso   1.000  C
  C17      1.0000 0.29517  0.34160  0.83760  Biso   1.000  C
  C18      1.0000 0.20483  0.84160  0.83760  Biso   1.000  C
  C19      1.0000 0.29517  0.65840  0.33760  Biso   1.000  C
  C20      1.0000 0.20483  0.15840  0.33760  Biso   1.000  C
  C21      1.0000 0.70483  0.65840  0.16240  Biso   1.000  C
  C22      1.0000 0.79517  0.15840  0.16240  Biso   1.000  C
  C23      1.0000 0.70483  0.34160  0.66240  Biso   1.000  C
  C24      1.0000 0.79517  0.84160  0.66240  Biso   1.000  C
