data_image0
_cell_length_a       8.786
_cell_length_b       9.334
_cell_length_c       3.9772
_cell_angle_alpha    91.31
_cell_angle_beta     101.1
_cell_angle_gamma    68.6

_symmetry_space_group_name_H-M    "P 1"
_symmetry_int_tables_number       1

loop_
  _symmetry_equiv_pos_as_xyz
  'x, y, z'

loop_
  _atom_site_label
  _atom_site_occupancy
  _atom_site_fract_x
  _atom_site_fract_y
  _atom_site_fract_z
  _atom_site_thermal_displace_type
  _atom_site_B_iso_or_equiv
  _atom_site_type_symbol
  Br1      1.0000 0.70112  0.89698  0.78740  Biso   1.000  Br
  Br2      1.0000 0.29888  0.10302  0.21260  Biso   1.000  Br
  Cu1      1.0000 0.45040  0.15650  0.78900  Biso   1.000  Cu
  Cu2      1.0000 0.54960  0.84350  0.21100  Biso   1.000  Cu
  N1       1.0000 0.51780  0.64180  0.09700  Biso   1.000  N
  N2       1.0000 0.48220  0.35820  0.90300  Biso   1.000  N
  C1       1.0000 0.63350  0.50510  0.23800  Biso   1.000  C
  C2       1.0000 0.36650  0.49490  0.76200  Biso   1.000  C
  C3       1.0000 0.77800  0.50040  0.48900  Biso   1.000  C
  C4       1.0000 0.22200  0.49960  0.51100  Biso   1.000  C
  C5       1.0000 0.89370  0.36540  0.63500  Biso   1.000  C
  C6       1.0000 0.10630  0.63460  0.36500  Biso   1.000  C
  C7       1.0000 0.87400  0.22440  0.54200  Biso   1.000  C
  C8       1.0000 0.12600  0.77560  0.45800  Biso   1.000  C
  C9       1.0000 0.74150  0.22210  0.30500  Biso   1.000  C
  C10      1.0000 0.25850  0.77790  0.69500  Biso   1.000  C
  C11      1.0000 0.61610  0.36090  0.14400  Biso   1.000  C
  C12      1.0000 0.38390  0.63910  0.85600  Biso   1.000  C
  H1       1.0000 0.20700  0.40550  0.44520  Biso   1.000  H
  H2       1.0000 0.79300  0.59450  0.55480  Biso   1.000  H
  H3       1.0000 0.00990  0.63550  0.19650  Biso   1.000  H
  H4       1.0000 0.99010  0.36450  0.80350  Biso   1.000  H
  H5       1.0000 0.04260  0.87070  0.35270  Biso   1.000  H
  H6       1.0000 0.95740  0.12930  0.64730  Biso   1.000  H
  H7       1.0000 0.26940  0.87380  0.75400  Biso   1.000  H
  H8       1.0000 0.73060  0.12620  0.24600  Biso   1.000  H
