data_image0
_cell_length_a       14.83
_cell_length_b       9.323
_cell_length_c       5.0012
_cell_angle_alpha    90
_cell_angle_beta     96.48
_cell_angle_gamma    90

_symmetry_space_group_name_H-M    "P 1"
_symmetry_int_tables_number       1

loop_
  _symmetry_equiv_pos_as_xyz
  'x, y, z'

loop_
  _atom_site_label
  _atom_site_occupancy
  _atom_site_fract_x
  _atom_site_fract_y
  _atom_site_fract_z
  _atom_site_thermal_displace_type
  _atom_site_B_iso_or_equiv
  _atom_site_type_symbol
  I1       1.0000 0.13217  0.00000  0.32894  Biso   1.000  I
  I2       1.0000 0.86783  0.00000  0.67106  Biso   1.000  I
  I3       1.0000 0.63217  0.50000  0.32894  Biso   1.000  I
  I4       1.0000 0.36783  0.50000  0.67106  Biso   1.000  I
  Cu1      1.0000 0.00000  0.13540  0.50000  Biso   1.000  Cu
  Cu2      1.0000 0.50000  0.63540  0.50000  Biso   1.000  Cu
  Cu3      1.0000 0.00000  0.86460  0.50000  Biso   1.000  Cu
  Cu4      1.0000 0.50000  0.36460  0.50000  Biso   1.000  Cu
  N1       1.0000 0.00000  0.34880  0.50000  Biso   1.000  N
  N2       1.0000 0.50000  0.84880  0.50000  Biso   1.000  N
  N3       1.0000 0.00000  0.65120  0.50000  Biso   1.000  N
  N4       1.0000 0.50000  0.15120  0.50000  Biso   1.000  N
  C1       1.0000 0.05410  0.42340  0.68440  Biso   1.000  C
  C2       1.0000 0.94590  0.42340  0.31560  Biso   1.000  C
  C3       1.0000 0.55410  0.92340  0.68440  Biso   1.000  C
  C4       1.0000 0.44590  0.92340  0.31560  Biso   1.000  C
  C5       1.0000 0.94590  0.57660  0.31560  Biso   1.000  C
  C6       1.0000 0.05410  0.57660  0.68440  Biso   1.000  C
  C7       1.0000 0.44590  0.07660  0.31560  Biso   1.000  C
  C8       1.0000 0.55410  0.07660  0.68440  Biso   1.000  C
  C9       1.0000 0.11280  0.35000  0.88570  Biso   1.000  C
  C10      1.0000 0.88720  0.35000  0.11430  Biso   1.000  C
  C11      1.0000 0.61280  0.85000  0.88570  Biso   1.000  C
  C12      1.0000 0.38720  0.85000  0.11430  Biso   1.000  C
  C13      1.0000 0.88720  0.65000  0.11430  Biso   1.000  C
  C14      1.0000 0.11280  0.65000  0.88570  Biso   1.000  C
  C15      1.0000 0.38720  0.15000  0.11430  Biso   1.000  C
  C16      1.0000 0.61280  0.15000  0.88570  Biso   1.000  C
  C17      1.0000 0.16700  0.42330  0.07160  Biso   1.000  C
  C18      1.0000 0.83300  0.42330  0.92840  Biso   1.000  C
  C19      1.0000 0.66700  0.92330  0.07160  Biso   1.000  C
  C20      1.0000 0.33300  0.92330  0.92840  Biso   1.000  C
  C21      1.0000 0.83300  0.57670  0.92840  Biso   1.000  C
  C22      1.0000 0.16700  0.57670  0.07160  Biso   1.000  C
  C23      1.0000 0.33300  0.07670  0.92840  Biso   1.000  C
  C24      1.0000 0.66700  0.07670  0.07160  Biso   1.000  C
  H1       1.0000 0.11180  0.23870  0.86680  Biso   1.000  H
  H2       1.0000 0.88820  0.23870  0.13320  Biso   1.000  H
  H3       1.0000 0.61180  0.73870  0.86680  Biso   1.000  H
  H4       1.0000 0.38820  0.73870  0.13320  Biso   1.000  H
  H5       1.0000 0.88820  0.76130  0.13320  Biso   1.000  H
  H6       1.0000 0.11180  0.76130  0.86680  Biso   1.000  H
  H7       1.0000 0.38820  0.26130  0.13320  Biso   1.000  H
  H8       1.0000 0.61180  0.26130  0.86680  Biso   1.000  H
  H9       1.0000 0.21020  0.36880  0.20710  Biso   1.000  H
  H10      1.0000 0.78980  0.36880  0.79290  Biso   1.000  H
  H11      1.0000 0.71020  0.86880  0.20710  Biso   1.000  H
  H12      1.0000 0.28980  0.86880  0.79290  Biso   1.000  H
  H13      1.0000 0.78980  0.63120  0.79290  Biso   1.000  H
  H14      1.0000 0.21020  0.63120  0.20710  Biso   1.000  H
  H15      1.0000 0.28980  0.13120  0.79290  Biso   1.000  H
  H16      1.0000 0.71020  0.13120  0.20710  Biso   1.000  H
