data_image0
_cell_length_a       3.9551
_cell_length_b       8.7098
_cell_length_c       9.3089
_cell_angle_alpha    68.536
_cell_angle_beta     88.835
_cell_angle_gamma    78.349

_symmetry_space_group_name_H-M    "P 1"
_symmetry_int_tables_number       1

loop_
  _symmetry_equiv_pos_as_xyz
  'x, y, z'

loop_
  _atom_site_label
  _atom_site_occupancy
  _atom_site_fract_x
  _atom_site_fract_y
  _atom_site_fract_z
  _atom_site_thermal_displace_type
  _atom_site_B_iso_or_equiv
  _atom_site_type_symbol
  Cu1      1.0000 0.71120  0.44998  0.15612  Biso   1.000  Cu
  Cu2      1.0000 0.28880  0.55002  0.84388  Biso   1.000  Cu
  Br1      1.0000 0.28415  0.29818  0.10225  Biso   1.000  Br
  Br2      1.0000 0.71585  0.70182  0.89775  Biso   1.000  Br
  N1       1.0000 0.59610  0.48270  0.35670  Biso   1.000  N
  N2       1.0000 0.40390  0.51730  0.64330  Biso   1.000  N
  C1       1.0000 0.73990  0.36540  0.49550  Biso   1.000  C
  C2       1.0000 0.26010  0.63460  0.50450  Biso   1.000  C
  C3       1.0000 0.98790  0.22230  0.49770  Biso   1.000  C
  C4       1.0000 0.01210  0.77770  0.50230  Biso   1.000  C
  H1       1.0000 0.05010  0.20890  0.40540  Biso   1.000  H
  H2       1.0000 0.94990  0.79110  0.59460  Biso   1.000  H
  C5       1.0000 0.13620  0.10360  0.63530  Biso   1.000  C
  C6       1.0000 0.86380  0.89640  0.36470  Biso   1.000  C
  H3       1.0000 0.29770  0.00940  0.63620  Biso   1.000  H
  H4       1.0000 0.70230  0.99060  0.36380  Biso   1.000  H
  C7       1.0000 0.04470  0.12330  0.77730  Biso   1.000  C
  C8       1.0000 0.95530  0.87670  0.22270  Biso   1.000  C
  H5       1.0000 0.14920  0.04220  0.87000  Biso   1.000  H
  H6       1.0000 0.85080  0.95780  0.13000  Biso   1.000  H
  C9       1.0000 0.80810  0.25830  0.77910  Biso   1.000  C
  C10      1.0000 0.19190  0.74170  0.22090  Biso   1.000  C
  H7       1.0000 0.75210  0.26920  0.87290  Biso   1.000  H
  H8       1.0000 0.24790  0.73080  0.12710  Biso   1.000  H
  C11      1.0000 0.64360  0.38410  0.63830  Biso   1.000  C
  C12      1.0000 0.35640  0.61590  0.36170  Biso   1.000  C
