data_image0
_cell_length_a       8.812
_cell_length_b       9.216
_cell_length_c       3.81
_cell_angle_alpha    91.93
_cell_angle_beta     100.69
_cell_angle_gamma    111.53

_symmetry_space_group_name_H-M    "P 1"
_symmetry_int_tables_number       1

loop_
  _symmetry_equiv_pos_as_xyz
  'x, y, z'

loop_
  _atom_site_label
  _atom_site_occupancy
  _atom_site_fract_x
  _atom_site_fract_y
  _atom_site_fract_z
  _atom_site_thermal_displace_type
  _atom_site_B_iso_or_equiv
  _atom_site_type_symbol
  Cu1      1.0000 0.54857  0.15359  0.33020  Biso   1.000  Cu
  Cu2      1.0000 0.45143  0.84641  0.66980  Biso   1.000  Cu
  Cl1      1.0000 0.68812  0.10117  0.88730  Biso   1.000  Cl
  Cl2      1.0000 0.31188  0.89883  0.11270  Biso   1.000  Cl
  N1       1.0000 0.48310  0.64470  0.58090  Biso   1.000  N
  N2       1.0000 0.51690  0.35530  0.41910  Biso   1.000  N
  C1       1.0000 0.09520  0.36290  0.74690  Biso   1.000  C
  C2       1.0000 0.90480  0.63710  0.25310  Biso   1.000  C
  C3       1.0000 0.21690  0.50180  0.71910  Biso   1.000  C
  C4       1.0000 0.78310  0.49820  0.28090  Biso   1.000  C
  C5       1.0000 0.36430  0.50510  0.60900  Biso   1.000  C
  C6       1.0000 0.63570  0.49490  0.39100  Biso   1.000  C
  C7       1.0000 0.38100  0.35970  0.53020  Biso   1.000  C
  C8       1.0000 0.61900  0.64030  0.46980  Biso   1.000  C
  C9       1.0000 0.25260  0.21700  0.57120  Biso   1.000  C
  C10      1.0000 0.74740  0.78300  0.42880  Biso   1.000  C
  C11      1.0000 0.11350  0.21950  0.67510  Biso   1.000  C
  C12      1.0000 0.88650  0.78050  0.32490  Biso   1.000  C
  H1       1.0000 0.00390  0.63770  0.18210  Biso   1.000  H
  H2       1.0000 0.99610  0.36230  0.81790  Biso   1.000  H
  H3       1.0000 0.79600  0.40180  0.22730  Biso   1.000  H
  H4       1.0000 0.20400  0.59820  0.77270  Biso   1.000  H
  H5       1.0000 0.73600  0.88080  0.47340  Biso   1.000  H
  H6       1.0000 0.26400  0.11920  0.52660  Biso   1.000  H
  H7       1.0000 0.97340  0.87720  0.30410  Biso   1.000  H
  H8       1.0000 0.02660  0.12280  0.69590  Biso   1.000  H
