data_image0
_cell_length_a       6.829
_cell_length_b       6.218
_cell_length_c       8.54
_cell_angle_alpha    90
_cell_angle_beta     105.68
_cell_angle_gamma    90

_symmetry_space_group_name_H-M    "P 1"
_symmetry_int_tables_number       1

loop_
  _symmetry_equiv_pos_as_xyz
  'x, y, z'

loop_
  _atom_site_label
  _atom_site_occupancy
  _atom_site_fract_x
  _atom_site_fract_y
  _atom_site_fract_z
  _atom_site_thermal_displace_type
  _atom_site_B_iso_or_equiv
  _atom_site_type_symbol
  Cu1      1.0000 0.61690  0.25000  0.08920  Biso   1.000  Cu
  Cu2      1.0000 0.38310  0.75000  0.91080  Biso   1.000  Cu
  Cu3      1.0000 0.61580  0.16640  0.08780  Biso   1.000  Cu
  Cu4      1.0000 0.38420  0.66640  0.91220  Biso   1.000  Cu
  Cu5      1.0000 0.38420  0.83360  0.91220  Biso   1.000  Cu
  Cu6      1.0000 0.61580  0.33360  0.08780  Biso   1.000  Cu
  Cl1      1.0000 0.66040  0.25000  0.63640  Biso   1.000  Cl
  Cl2      1.0000 0.33960  0.75000  0.36360  Biso   1.000  Cl
  S1       1.0000 0.33170  0.25000  0.87360  Biso   1.000  S
  S2       1.0000 0.66830  0.75000  0.12640  Biso   1.000  S
  N1       1.0000 0.90320  0.25000  0.09990  Biso   1.000  N
  N2       1.0000 0.09680  0.75000  0.90010  Biso   1.000  N
  N3       1.0000 0.97400  0.25000  0.96140  Biso   1.000  N
  N4       1.0000 0.02600  0.75000  0.03860  Biso   1.000  N
  N5       1.0000 0.23500  0.25000  0.16540  Biso   1.000  N
  N6       1.0000 0.76500  0.75000  0.83460  Biso   1.000  N
  N7       1.0000 0.44050  0.25000  0.25540  Biso   1.000  N
  N8       1.0000 0.55950  0.75000  0.74460  Biso   1.000  N
  C1       1.0000 0.17610  0.25000  0.99790  Biso   1.000  C
  C2       1.0000 0.82390  0.75000  0.00210  Biso   1.000  C
  C3       1.0000 0.06590  0.25000  0.22260  Biso   1.000  C
  C4       1.0000 0.93410  0.75000  0.77740  Biso   1.000  C
  C5       1.0000 0.07010  0.25000  0.39720  Biso   1.000  C
  C6       1.0000 0.92990  0.75000  0.60280  Biso   1.000  C
  H1       1.0000 0.87700  0.25000  0.88050  Biso   1.000  H
  H2       1.0000 0.12300  0.75000  0.11950  Biso   1.000  H
  H3       1.0000 0.45030  0.12270  0.32390  Biso   1.000  H
  H4       1.0000 0.54970  0.62270  0.67610  Biso   1.000  H
  H5       1.0000 0.54970  0.87730  0.67610  Biso   1.000  H
  H6       1.0000 0.45030  0.37730  0.32390  Biso   1.000  H
  H7       1.0000 0.91700  0.25000  0.39000  Biso   1.000  H
  H8       1.0000 0.08300  0.75000  0.61000  Biso   1.000  H
  H9       1.0000 0.14900  0.14300  0.44060  Biso   1.000  H
  H10      1.0000 0.85100  0.64300  0.55940  Biso   1.000  H
  H11      1.0000 0.85100  0.85700  0.55940  Biso   1.000  H
  H12      1.0000 0.14900  0.35700  0.44060  Biso   1.000  H
