data_image0
_cell_length_a       12.7929
_cell_length_b       13.4006
_cell_length_c       14.4847
_cell_angle_alpha    90
_cell_angle_beta     90
_cell_angle_gamma    90

_symmetry_space_group_name_H-M    "P 1"
_symmetry_int_tables_number       1

loop_
  _symmetry_equiv_pos_as_xyz
  'x, y, z'

loop_
  _atom_site_label
  _atom_site_occupancy
  _atom_site_fract_x
  _atom_site_fract_y
  _atom_site_fract_z
  _atom_site_thermal_displace_type
  _atom_site_B_iso_or_equiv
  _atom_site_type_symbol
  P1       1.0000 0.54674  0.59794  0.66257  Biso   1.000  P
  P2       1.0000 0.95326  0.40206  0.16257  Biso   1.000  P
  P3       1.0000 0.45326  0.09794  0.83743  Biso   1.000  P
  P4       1.0000 0.04674  0.90206  0.33743  Biso   1.000  P
  C1       1.0000 0.41770  0.62583  0.70553  Biso   1.000  C
  C2       1.0000 0.08230  0.37417  0.20553  Biso   1.000  C
  C3       1.0000 0.58230  0.12583  0.79447  Biso   1.000  C
  C4       1.0000 0.91770  0.87417  0.29447  Biso   1.000  C
  C5       1.0000 0.33080  0.57420  0.67337  Biso   1.000  C
  C6       1.0000 0.16920  0.42580  0.17337  Biso   1.000  C
  C7       1.0000 0.66920  0.07420  0.82663  Biso   1.000  C
  C8       1.0000 0.83080  0.92580  0.32663  Biso   1.000  C
  H1       1.0000 0.33870  0.52400  0.62760  Biso   1.000  H
  H2       1.0000 0.16130  0.47600  0.12760  Biso   1.000  H
  H3       1.0000 0.66130  0.02400  0.87240  Biso   1.000  H
  H4       1.0000 0.83870  0.97600  0.37240  Biso   1.000  H
  C9       1.0000 0.23260  0.59600  0.70824  Biso   1.000  C
  C10      1.0000 0.26740  0.40400  0.20824  Biso   1.000  C
  C11      1.0000 0.76740  0.09600  0.79176  Biso   1.000  C
  C12      1.0000 0.73260  0.90400  0.29176  Biso   1.000  C
  H5       1.0000 0.17300  0.56140  0.68580  Biso   1.000  H
  H6       1.0000 0.32700  0.43860  0.18580  Biso   1.000  H
  H7       1.0000 0.82700  0.06140  0.81420  Biso   1.000  H
  H8       1.0000 0.67300  0.93860  0.31420  Biso   1.000  H
  C13      1.0000 0.22150  0.66790  0.77550  Biso   1.000  C
  C14      1.0000 0.27850  0.33210  0.27550  Biso   1.000  C
  C15      1.0000 0.77850  0.16790  0.72450  Biso   1.000  C
  C16      1.0000 0.72150  0.83210  0.22450  Biso   1.000  C
  H9       1.0000 0.15410  0.68310  0.79920  Biso   1.000  H
  H10      1.0000 0.34590  0.31690  0.29920  Biso   1.000  H
  H11      1.0000 0.84590  0.18310  0.70080  Biso   1.000  H
  H12      1.0000 0.65410  0.81690  0.20080  Biso   1.000  H
  C17      1.0000 0.30840  0.71790  0.80870  Biso   1.000  C
  C18      1.0000 0.19160  0.28210  0.30870  Biso   1.000  C
  C19      1.0000 0.69160  0.21790  0.69130  Biso   1.000  C
  C20      1.0000 0.80840  0.78210  0.19130  Biso   1.000  C
  H13      1.0000 0.30040  0.76650  0.85590  Biso   1.000  H
  H14      1.0000 0.19960  0.23350  0.35590  Biso   1.000  H
  H15      1.0000 0.69960  0.26650  0.64410  Biso   1.000  H
  H16      1.0000 0.80040  0.73350  0.14410  Biso   1.000  H
  C21      1.0000 0.40650  0.69780  0.77380  Biso   1.000  C
  C22      1.0000 0.09350  0.30220  0.27380  Biso   1.000  C
  C23      1.0000 0.59350  0.19780  0.72620  Biso   1.000  C
  C24      1.0000 0.90650  0.80220  0.22620  Biso   1.000  C
  H17      1.0000 0.46580  0.73290  0.79630  Biso   1.000  H
  H18      1.0000 0.03420  0.26710  0.29630  Biso   1.000  H
  H19      1.0000 0.53420  0.23290  0.70370  Biso   1.000  H
  H20      1.0000 0.96580  0.76710  0.20370  Biso   1.000  H
  C25      1.0000 0.61500  0.71322  0.64187  Biso   1.000  C
  C26      1.0000 0.88500  0.28678  0.14187  Biso   1.000  C
  C27      1.0000 0.38500  0.21322  0.85813  Biso   1.000  C
  C28      1.0000 0.11500  0.78678  0.35813  Biso   1.000  C
  C29      1.0000 0.67010  0.75710  0.71444  Biso   1.000  C
  C30      1.0000 0.82990  0.24290  0.21444  Biso   1.000  C
  C31      1.0000 0.32990  0.25710  0.78556  Biso   1.000  C
  C32      1.0000 0.17010  0.74290  0.28556  Biso   1.000  C
  H21      1.0000 0.67770  0.72280  0.77140  Biso   1.000  H
  H22      1.0000 0.82230  0.27720  0.27140  Biso   1.000  H
  H23      1.0000 0.32230  0.22280  0.72860  Biso   1.000  H
  H24      1.0000 0.17770  0.77720  0.22860  Biso   1.000  H
  C33      1.0000 0.71360  0.85110  0.70290  Biso   1.000  C
  C34      1.0000 0.78640  0.14890  0.20290  Biso   1.000  C
  C35      1.0000 0.28640  0.35110  0.79710  Biso   1.000  C
  C36      1.0000 0.21360  0.64890  0.29710  Biso   1.000  C
  H25      1.0000 0.75130  0.88120  0.75210  Biso   1.000  H
  H26      1.0000 0.74870  0.11880  0.25210  Biso   1.000  H
  H27      1.0000 0.24870  0.38120  0.74790  Biso   1.000  H
  H28      1.0000 0.25130  0.61880  0.24790  Biso   1.000  H
  C37      1.0000 0.70240  0.90080  0.62045  Biso   1.000  C
  C38      1.0000 0.79760  0.09920  0.12045  Biso   1.000  C
  C39      1.0000 0.29760  0.40080  0.87955  Biso   1.000  C
  C40      1.0000 0.20240  0.59920  0.37955  Biso   1.000  C
  H29      1.0000 0.73120  0.96560  0.61330  Biso   1.000  H
  H30      1.0000 0.76880  0.03440  0.11330  Biso   1.000  H
  H31      1.0000 0.26880  0.46560  0.88670  Biso   1.000  H
  H32      1.0000 0.23120  0.53440  0.38670  Biso   1.000  H
  C41      1.0000 0.64930  0.85680  0.54790  Biso   1.000  C
  C42      1.0000 0.85070  0.14320  0.04790  Biso   1.000  C
  C43      1.0000 0.35070  0.35680  0.95210  Biso   1.000  C
  C44      1.0000 0.14930  0.64320  0.45210  Biso   1.000  C
  H33      1.0000 0.64310  0.89100  0.49070  Biso   1.000  H
  H34      1.0000 0.85690  0.10900  0.99070  Biso   1.000  H
  H35      1.0000 0.35690  0.39100  0.00930  Biso   1.000  H
  H36      1.0000 0.14310  0.60900  0.50930  Biso   1.000  H
  C45      1.0000 0.60510  0.76330  0.55822  Biso   1.000  C
  C46      1.0000 0.89490  0.23670  0.05822  Biso   1.000  C
  C47      1.0000 0.39490  0.26330  0.94178  Biso   1.000  C
  C48      1.0000 0.10510  0.73670  0.44178  Biso   1.000  C
  H37      1.0000 0.56820  0.73350  0.50850  Biso   1.000  H
  H38      1.0000 0.93180  0.26650  0.00850  Biso   1.000  H
  H39      1.0000 0.43180  0.23350  0.99150  Biso   1.000  H
  H40      1.0000 0.06820  0.76650  0.49150  Biso   1.000  H
  C49      1.0000 0.61840  0.52810  0.74723  Biso   1.000  C
  C50      1.0000 0.88160  0.47190  0.24723  Biso   1.000  C
  C51      1.0000 0.38160  0.02810  0.75277  Biso   1.000  C
  C52      1.0000 0.11840  0.97190  0.25277  Biso   1.000  C
  C53      1.0000 0.72420  0.50860  0.73136  Biso   1.000  C
  C54      1.0000 0.77580  0.49140  0.23136  Biso   1.000  C
  C55      1.0000 0.27580  0.00860  0.76864  Biso   1.000  C
  C56      1.0000 0.22420  0.99140  0.26864  Biso   1.000  C
  H41      1.0000 0.75780  0.53560  0.67850  Biso   1.000  H
  H42      1.0000 0.74220  0.46440  0.17850  Biso   1.000  H
  H43      1.0000 0.24220  0.03560  0.82150  Biso   1.000  H
  H44      1.0000 0.25780  0.96440  0.32150  Biso   1.000  H
  C57      1.0000 0.77960  0.45040  0.79240  Biso   1.000  C
  C58      1.0000 0.72040  0.54960  0.29240  Biso   1.000  C
  C59      1.0000 0.22040  0.95040  0.70760  Biso   1.000  C
  C60      1.0000 0.27960  0.04960  0.20760  Biso   1.000  C
  H45      1.0000 0.85100  0.43540  0.78100  Biso   1.000  H
  H46      1.0000 0.64900  0.56460  0.28100  Biso   1.000  H
  H47      1.0000 0.14900  0.93540  0.71900  Biso   1.000  H
  H48      1.0000 0.35100  0.06460  0.21900  Biso   1.000  H
  C61      1.0000 0.73040  0.41380  0.87070  Biso   1.000  C
  C62      1.0000 0.76960  0.58620  0.37070  Biso   1.000  C
  C63      1.0000 0.26960  0.91380  0.62930  Biso   1.000  C
  C64      1.0000 0.23040  0.08620  0.12930  Biso   1.000  C
  H49      1.0000 0.76870  0.37420  0.91340  Biso   1.000  H
  H50      1.0000 0.73130  0.62580  0.41340  Biso   1.000  H
  H51      1.0000 0.23130  0.87420  0.58660  Biso   1.000  H
  H52      1.0000 0.26870  0.12580  0.08660  Biso   1.000  H
  C65      1.0000 0.62660  0.43430  0.88730  Biso   1.000  C
  C66      1.0000 0.87340  0.56570  0.38730  Biso   1.000  C
  C67      1.0000 0.37340  0.93430  0.61270  Biso   1.000  C
  C68      1.0000 0.12660  0.06570  0.11270  Biso   1.000  C
  H53      1.0000 0.59400  0.40950  0.94160  Biso   1.000  H
  H54      1.0000 0.90600  0.59050  0.44160  Biso   1.000  H
  H55      1.0000 0.40600  0.90950  0.55840  Biso   1.000  H
  H56      1.0000 0.09400  0.09050  0.05840  Biso   1.000  H
  C69      1.0000 0.56960  0.49100  0.82533  Biso   1.000  C
  C70      1.0000 0.93040  0.50900  0.32533  Biso   1.000  C
  C71      1.0000 0.43040  0.99100  0.67467  Biso   1.000  C
  C72      1.0000 0.06960  0.00900  0.17467  Biso   1.000  C
  H57      1.0000 0.49770  0.50430  0.83620  Biso   1.000  H
  H58      1.0000 0.00230  0.49570  0.33620  Biso   1.000  H
  H59      1.0000 0.50230  0.00430  0.66380  Biso   1.000  H
  H60      1.0000 0.99770  0.99570  0.16380  Biso   1.000  H
  C73      1.0000 0.53630  0.52615  0.55795  Biso   1.000  C
  C74      1.0000 0.96370  0.47385  0.05795  Biso   1.000  C
  C75      1.0000 0.46370  0.02615  0.94205  Biso   1.000  C
  C76      1.0000 0.03630  0.97385  0.44205  Biso   1.000  C
  C77      1.0000 0.59280  0.43760  0.54920  Biso   1.000  C
  C78      1.0000 0.90720  0.56240  0.04920  Biso   1.000  C
  C79      1.0000 0.40720  0.93760  0.95080  Biso   1.000  C
  C80      1.0000 0.09280  0.06240  0.45080  Biso   1.000  C
  H61      1.0000 0.63560  0.41510  0.59860  Biso   1.000  H
  H62      1.0000 0.86440  0.58490  0.09860  Biso   1.000  H
  H63      1.0000 0.36440  0.91510  0.90140  Biso   1.000  H
  H64      1.0000 0.13560  0.08490  0.40140  Biso   1.000  H
  C81      1.0000 0.58640  0.38240  0.46840  Biso   1.000  C
  C82      1.0000 0.91360  0.61760  0.96840  Biso   1.000  C
  C83      1.0000 0.41360  0.88240  0.03160  Biso   1.000  C
  C84      1.0000 0.08640  0.11760  0.53160  Biso   1.000  C
  H65      1.0000 0.62390  0.32150  0.46280  Biso   1.000  H
  H66      1.0000 0.87610  0.67850  0.96280  Biso   1.000  H
  H67      1.0000 0.37610  0.82150  0.03720  Biso   1.000  H
  H68      1.0000 0.12390  0.17850  0.53720  Biso   1.000  H
  C85      1.0000 0.52570  0.41610  0.39650  Biso   1.000  C
  C86      1.0000 0.97430  0.58390  0.89650  Biso   1.000  C
  C87      1.0000 0.47430  0.91610  0.10350  Biso   1.000  C
  C88      1.0000 0.02570  0.08390  0.60350  Biso   1.000  C
  H69      1.0000 0.52270  0.37910  0.34070  Biso   1.000  H
  H70      1.0000 0.97730  0.62090  0.84070  Biso   1.000  H
  H71      1.0000 0.47730  0.87910  0.15930  Biso   1.000  H
  H72      1.0000 0.02270  0.12090  0.65930  Biso   1.000  H
  C89      1.0000 0.46920  0.50331  0.40480  Biso   1.000  C
  C90      1.0000 0.03080  0.49669  0.90480  Biso   1.000  C
  C91      1.0000 0.53080  0.00331  0.09520  Biso   1.000  C
  C92      1.0000 0.96920  0.99669  0.59520  Biso   1.000  C
  H73      1.0000 0.42680  0.52540  0.35490  Biso   1.000  H
  H74      1.0000 0.07320  0.47460  0.85490  Biso   1.000  H
  H75      1.0000 0.57320  0.02540  0.14510  Biso   1.000  H
  H76      1.0000 0.92680  0.97460  0.64510  Biso   1.000  H
  C93      1.0000 0.47370  0.55907  0.48554  Biso   1.000  C
  C94      1.0000 0.02630  0.44093  0.98554  Biso   1.000  C
  C95      1.0000 0.52630  0.05907  0.01446  Biso   1.000  C
  C96      1.0000 0.97370  0.94093  0.51446  Biso   1.000  C
  H77      1.0000 0.43450  0.61900  0.49120  Biso   1.000  H
  H78      1.0000 0.06550  0.38100  0.99120  Biso   1.000  H
  H79      1.0000 0.56550  0.11900  0.00880  Biso   1.000  H
  H80      1.0000 0.93450  0.88100  0.50880  Biso   1.000  H
  Cu1      1.0000 0.50274  0.09989  0.39858  Biso   1.000  Cu
  Cu2      1.0000 0.99726  0.90011  0.89858  Biso   1.000  Cu
  Cu3      1.0000 0.49726  0.59989  0.10142  Biso   1.000  Cu
  Cu4      1.0000 0.00274  0.40011  0.60142  Biso   1.000  Cu
  N1       1.0000 0.52450  0.17433  0.27500  Biso   1.000  N
  N2       1.0000 0.97550  0.82567  0.77500  Biso   1.000  N
  N3       1.0000 0.47550  0.67433  0.22500  Biso   1.000  N
  N4       1.0000 0.02450  0.32567  0.72500  Biso   1.000  N
  N5       1.0000 0.55410  0.27550  0.13528  Biso   1.000  N
  N6       1.0000 0.94590  0.72450  0.63528  Biso   1.000  N
  N7       1.0000 0.44590  0.77550  0.36472  Biso   1.000  N
  N8       1.0000 0.05410  0.22450  0.86472  Biso   1.000  N
  N9       1.0000 0.53432  0.45741  0.12412  Biso   1.000  N
  N10      1.0000 0.96568  0.54259  0.62412  Biso   1.000  N
  N11      1.0000 0.46568  0.95741  0.37588  Biso   1.000  N
  N12      1.0000 0.03432  0.04259  0.87588  Biso   1.000  N
  N13      1.0000 0.40650  0.18380  0.47300  Biso   1.000  N
  N14      1.0000 0.09350  0.81620  0.97300  Biso   1.000  N
  N15      1.0000 0.59350  0.68380  0.02700  Biso   1.000  N
  N16      1.0000 0.90650  0.31620  0.52700  Biso   1.000  N
  N17      1.0000 0.33030  0.32640  0.55610  Biso   1.000  N
  N18      1.0000 0.16970  0.67360  0.05610  Biso   1.000  N
  N19      1.0000 0.66970  0.82640  0.94390  Biso   1.000  N
  N20      1.0000 0.83030  0.17360  0.44390  Biso   1.000  N
  N21      1.0000 0.15360  0.39550  0.54821  Biso   1.000  N
  N22      1.0000 0.34640  0.60450  0.04821  Biso   1.000  N
  N23      1.0000 0.84640  0.89550  0.95179  Biso   1.000  N
  N24      1.0000 0.65360  0.10450  0.45179  Biso   1.000  N
  C97      1.0000 0.53690  0.22520  0.21210  Biso   1.000  C
  C98      1.0000 0.96310  0.77480  0.71210  Biso   1.000  C
  C99      1.0000 0.46310  0.72520  0.28790  Biso   1.000  C
  C100     1.0000 0.03690  0.27480  0.78790  Biso   1.000  C
  C101     1.0000 0.54250  0.37220  0.13384  Biso   1.000  C
  C102     1.0000 0.95750  0.62780  0.63384  Biso   1.000  C
  C103     1.0000 0.45750  0.87220  0.36616  Biso   1.000  C
  C104     1.0000 0.04250  0.12780  0.86616  Biso   1.000  C
  C105     1.0000 0.36590  0.24950  0.51030  Biso   1.000  C
  C106     1.0000 0.13410  0.75050  0.01030  Biso   1.000  C
  C107     1.0000 0.63410  0.74950  0.98970  Biso   1.000  C
  C108     1.0000 0.86590  0.25050  0.48970  Biso   1.000  C
  C109     1.0000 0.23530  0.35950  0.54799  Biso   1.000  C
  C110     1.0000 0.26470  0.64050  0.04799  Biso   1.000  C
  C111     1.0000 0.76470  0.85950  0.95201  Biso   1.000  C
  C112     1.0000 0.73530  0.14050  0.45201  Biso   1.000  C
