data_image0
_cell_length_a       6.712
_cell_length_b       13.45
_cell_length_c       6.807
_cell_angle_alpha    90
_cell_angle_beta     112.79
_cell_angle_gamma    90

_symmetry_space_group_name_H-M    "P 1"
_symmetry_int_tables_number       1

loop_
  _symmetry_equiv_pos_as_xyz
  'x, y, z'

loop_
  _atom_site_label
  _atom_site_occupancy
  _atom_site_fract_x
  _atom_site_fract_y
  _atom_site_fract_z
  _atom_site_thermal_displace_type
  _atom_site_B_iso_or_equiv
  _atom_site_type_symbol
  Cu1      1.0000 0.02625  0.73438  0.24493  Biso   1.000  Cu
  Cu2      1.0000 0.97375  0.23438  0.25507  Biso   1.000  Cu
  Cu3      1.0000 0.97375  0.26562  0.75507  Biso   1.000  Cu
  Cu4      1.0000 0.02625  0.76562  0.74493  Biso   1.000  Cu
  Br1      1.0000 0.24053  0.66585  0.06106  Biso   1.000  Br
  Br2      1.0000 0.75947  0.16585  0.43894  Biso   1.000  Br
  Br3      1.0000 0.75947  0.33415  0.93894  Biso   1.000  Br
  Br4      1.0000 0.24053  0.83415  0.56106  Biso   1.000  Br
  N1       1.0000 0.87370  0.63520  0.36450  Biso   1.000  N
  N2       1.0000 0.12630  0.13520  0.13550  Biso   1.000  N
  N3       1.0000 0.12630  0.36480  0.63550  Biso   1.000  N
  N4       1.0000 0.87370  0.86480  0.86450  Biso   1.000  N
  N5       1.0000 0.82280  0.66540  0.52750  Biso   1.000  N
  N6       1.0000 0.17720  0.16540  0.97250  Biso   1.000  N
  N7       1.0000 0.17720  0.33460  0.47250  Biso   1.000  N
  N8       1.0000 0.82280  0.83460  0.02750  Biso   1.000  N
  C1       1.0000 0.67970  0.61370  0.57410  Biso   1.000  C
  C2       1.0000 0.32030  0.11370  0.92590  Biso   1.000  C
  C3       1.0000 0.32030  0.38630  0.42590  Biso   1.000  C
  C4       1.0000 0.67970  0.88630  0.07410  Biso   1.000  C
  H1       1.0000 0.63910  0.63810  0.68600  Biso   1.000  H
  H2       1.0000 0.36090  0.13810  0.81400  Biso   1.000  H
  H3       1.0000 0.36090  0.36190  0.31400  Biso   1.000  H
  H4       1.0000 0.63910  0.86190  0.18600  Biso   1.000  H
  C5       1.0000 0.58350  0.52590  0.47140  Biso   1.000  C
  C6       1.0000 0.41650  0.02590  0.02860  Biso   1.000  C
  C7       1.0000 0.41650  0.47410  0.52860  Biso   1.000  C
  C8       1.0000 0.58350  0.97410  0.97140  Biso   1.000  C
  C9       1.0000 0.65570  0.49120  0.32090  Biso   1.000  C
  C10      1.0000 0.34430  0.99120  0.17910  Biso   1.000  C
  C11      1.0000 0.34430  0.50880  0.67910  Biso   1.000  C
  C12      1.0000 0.65570  0.00880  0.82090  Biso   1.000  C
  H5       1.0000 0.60960  0.42780  0.25390  Biso   1.000  H
  H6       1.0000 0.39040  0.92780  0.24610  Biso   1.000  H
  H7       1.0000 0.39040  0.57220  0.74610  Biso   1.000  H
  H8       1.0000 0.60960  0.07220  0.75390  Biso   1.000  H
  C13      1.0000 0.79730  0.55040  0.26840  Biso   1.000  C
  C14      1.0000 0.20270  0.05040  0.23160  Biso   1.000  C
  C15      1.0000 0.20270  0.44960  0.73160  Biso   1.000  C
  C16      1.0000 0.79730  0.94960  0.76840  Biso   1.000  C
  H9       1.0000 0.84140  0.52850  0.15710  Biso   1.000  H
  H10      1.0000 0.15860  0.02850  0.34290  Biso   1.000  H
  H11      1.0000 0.15860  0.47150  0.84290  Biso   1.000  H
  H12      1.0000 0.84140  0.97150  0.65710  Biso   1.000  H
