data_image0
_cell_length_a       6.617
_cell_length_b       13.132
_cell_length_c       6.642
_cell_angle_alpha    90
_cell_angle_beta     114.23
_cell_angle_gamma    90

_symmetry_space_group_name_H-M    "P 1"
_symmetry_int_tables_number       1

loop_
  _symmetry_equiv_pos_as_xyz
  'x, y, z'

loop_
  _atom_site_label
  _atom_site_occupancy
  _atom_site_fract_x
  _atom_site_fract_y
  _atom_site_fract_z
  _atom_site_thermal_displace_type
  _atom_site_B_iso_or_equiv
  _atom_site_type_symbol
  Cu1      1.0000 0.04439  0.72742  0.23373  Biso   1.000  Cu
  Cu2      1.0000 0.95561  0.22742  0.26627  Biso   1.000  Cu
  Cu3      1.0000 0.95561  0.27258  0.76627  Biso   1.000  Cu
  Cu4      1.0000 0.04439  0.77258  0.73373  Biso   1.000  Cu
  Cl1      1.0000 0.25679  0.67673  0.05449  Biso   1.000  Cl
  Cl2      1.0000 0.74321  0.17673  0.44551  Biso   1.000  Cl
  Cl3      1.0000 0.74321  0.32327  0.94551  Biso   1.000  Cl
  Cl4      1.0000 0.25679  0.82327  0.55449  Biso   1.000  Cl
  N1       1.0000 0.87980  0.63200  0.34810  Biso   1.000  N
  N2       1.0000 0.12020  0.13200  0.15190  Biso   1.000  N
  N3       1.0000 0.12020  0.36800  0.65190  Biso   1.000  N
  N4       1.0000 0.87980  0.86800  0.84810  Biso   1.000  N
  N5       1.0000 0.83060  0.66650  0.51570  Biso   1.000  N
  N6       1.0000 0.16940  0.16650  0.98430  Biso   1.000  N
  N7       1.0000 0.16940  0.33350  0.48430  Biso   1.000  N
  N8       1.0000 0.83060  0.83350  0.01570  Biso   1.000  N
  C1       1.0000 0.68410  0.61640  0.56640  Biso   1.000  C
  C2       1.0000 0.31590  0.11640  0.93360  Biso   1.000  C
  C3       1.0000 0.31590  0.38360  0.43360  Biso   1.000  C
  C4       1.0000 0.68410  0.88360  0.06640  Biso   1.000  C
  H1       1.0000 0.64430  0.64500  0.67830  Biso   1.000  H
  H2       1.0000 0.35570  0.14500  0.82170  Biso   1.000  H
  H3       1.0000 0.35570  0.35500  0.32170  Biso   1.000  H
  H4       1.0000 0.64430  0.85500  0.17830  Biso   1.000  H
  C5       1.0000 0.58290  0.52480  0.46830  Biso   1.000  C
  C6       1.0000 0.41710  0.02480  0.03170  Biso   1.000  C
  C7       1.0000 0.41710  0.47520  0.53170  Biso   1.000  C
  C8       1.0000 0.58290  0.97520  0.96830  Biso   1.000  C
  C9       1.0000 0.64910  0.48660  0.31270  Biso   1.000  C
  C10      1.0000 0.35090  0.98660  0.18730  Biso   1.000  C
  C11      1.0000 0.35090  0.51340  0.68730  Biso   1.000  C
  C12      1.0000 0.64910  0.01340  0.81270  Biso   1.000  C
  H5       1.0000 0.59540  0.42190  0.24430  Biso   1.000  H
  H6       1.0000 0.40460  0.92190  0.25570  Biso   1.000  H
  H7       1.0000 0.40460  0.57810  0.75570  Biso   1.000  H
  H8       1.0000 0.59540  0.07810  0.74430  Biso   1.000  H
  C13      1.0000 0.79490  0.54320  0.25580  Biso   1.000  C
  C14      1.0000 0.20510  0.04320  0.24420  Biso   1.000  C
  C15      1.0000 0.20510  0.45680  0.74420  Biso   1.000  C
  C16      1.0000 0.79490  0.95680  0.75580  Biso   1.000  C
  H9       1.0000 0.83690  0.51690  0.14370  Biso   1.000  H
  H10      1.0000 0.16310  0.01690  0.35630  Biso   1.000  H
  H11      1.0000 0.16310  0.48310  0.85630  Biso   1.000  H
  H12      1.0000 0.83690  0.98310  0.64370  Biso   1.000  H
