data_image0
_cell_length_a       10.1405
_cell_length_b       10.1405
_cell_length_c       11.9784
_cell_angle_alpha    90
_cell_angle_beta     90
_cell_angle_gamma    90

_symmetry_space_group_name_H-M    "P 1"
_symmetry_int_tables_number       1

loop_
  _symmetry_equiv_pos_as_xyz
  'x, y, z'

loop_
  _atom_site_label
  _atom_site_occupancy
  _atom_site_fract_x
  _atom_site_fract_y
  _atom_site_fract_z
  _atom_site_thermal_displace_type
  _atom_site_B_iso_or_equiv
  _atom_site_type_symbol
  Cu1      1.0000 0.59427  0.02883  0.87488  Biso   1.000  Cu
  Cu2      1.0000 0.40573  0.97117  0.37488  Biso   1.000  Cu
  Cu3      1.0000 0.47117  0.09427  0.62488  Biso   1.000  Cu
  Cu4      1.0000 0.52883  0.90573  0.12488  Biso   1.000  Cu
  Cu5      1.0000 0.90573  0.52883  0.87512  Biso   1.000  Cu
  Cu6      1.0000 0.09427  0.47117  0.37512  Biso   1.000  Cu
  Cu7      1.0000 0.02883  0.59427  0.12512  Biso   1.000  Cu
  Cu8      1.0000 0.97117  0.40573  0.62512  Biso   1.000  Cu
  I1       1.0000 0.72647  0.05328  0.06016  Biso   1.000  I
  I2       1.0000 0.27353  0.94672  0.56016  Biso   1.000  I
  I3       1.0000 0.44672  0.22647  0.81016  Biso   1.000  I
  I4       1.0000 0.55328  0.77353  0.31016  Biso   1.000  I
  I5       1.0000 0.77353  0.55328  0.68984  Biso   1.000  I
  I6       1.0000 0.22647  0.44672  0.18984  Biso   1.000  I
  I7       1.0000 0.05328  0.72647  0.93984  Biso   1.000  I
  I8       1.0000 0.94672  0.27353  0.43984  Biso   1.000  I
  N1       1.0000 0.71334  0.99119  0.73928  Biso   1.000  N
  N2       1.0000 0.28666  0.00881  0.23928  Biso   1.000  N
  N3       1.0000 0.50881  0.21334  0.48928  Biso   1.000  N
  N4       1.0000 0.49119  0.78666  0.98928  Biso   1.000  N
  N5       1.0000 0.78666  0.49119  0.01072  Biso   1.000  N
  N6       1.0000 0.21334  0.50881  0.51072  Biso   1.000  N
  N7       1.0000 0.99119  0.71334  0.26072  Biso   1.000  N
  N8       1.0000 0.00881  0.28666  0.76072  Biso   1.000  N
  N9       1.0000 0.65810  0.00690  0.63716  Biso   1.000  N
  N10      1.0000 0.34190  0.99310  0.13716  Biso   1.000  N
  N11      1.0000 0.49310  0.15810  0.38716  Biso   1.000  N
  N12      1.0000 0.50690  0.84190  0.88716  Biso   1.000  N
  N13      1.0000 0.84190  0.50690  0.11284  Biso   1.000  N
  N14      1.0000 0.15810  0.49310  0.61284  Biso   1.000  N
  N15      1.0000 0.00690  0.65810  0.36284  Biso   1.000  N
  N16      1.0000 0.99310  0.34190  0.86284  Biso   1.000  N
  C1       1.0000 0.83020  0.93410  0.74737  Biso   1.000  C
  C2       1.0000 0.16980  0.06590  0.24737  Biso   1.000  C
  C3       1.0000 0.56590  0.33020  0.49737  Biso   1.000  C
  C4       1.0000 0.43410  0.66980  0.99737  Biso   1.000  C
  C5       1.0000 0.66980  0.43410  0.00263  Biso   1.000  C
  C6       1.0000 0.33020  0.56590  0.50263  Biso   1.000  C
  C7       1.0000 0.93410  0.83020  0.25263  Biso   1.000  C
  C8       1.0000 0.06590  0.16980  0.75263  Biso   1.000  C
  H1       1.0000 0.86100  0.92700  0.82000  Biso   1.000  H
  H2       1.0000 0.13900  0.07300  0.32000  Biso   1.000  H
  H3       1.0000 0.57300  0.36100  0.57000  Biso   1.000  H
  H4       1.0000 0.42700  0.63900  0.07000  Biso   1.000  H
  H5       1.0000 0.63900  0.42700  0.93000  Biso   1.000  H
  H6       1.0000 0.36100  0.57300  0.43000  Biso   1.000  H
  H7       1.0000 0.92700  0.86100  0.18000  Biso   1.000  H
  H8       1.0000 0.07300  0.13900  0.68000  Biso   1.000  H
  C9       1.0000 0.90110  0.88660  0.65606  Biso   1.000  C
  C10      1.0000 0.09890  0.11340  0.15606  Biso   1.000  C
  C11      1.0000 0.61340  0.40110  0.40606  Biso   1.000  C
  C12      1.0000 0.38660  0.59890  0.90606  Biso   1.000  C
  C13      1.0000 0.59890  0.38660  0.09394  Biso   1.000  C
  C14      1.0000 0.40110  0.61340  0.59394  Biso   1.000  C
  C15      1.0000 0.88660  0.90110  0.34394  Biso   1.000  C
  C16      1.0000 0.11340  0.09890  0.84394  Biso   1.000  C
  H9       1.0000 0.97900  0.83900  0.66600  Biso   1.000  H
  H10      1.0000 0.02100  0.16100  0.16600  Biso   1.000  H
  H11      1.0000 0.66100  0.47900  0.41600  Biso   1.000  H
  H12      1.0000 0.33900  0.52100  0.91600  Biso   1.000  H
  H13      1.0000 0.52100  0.33900  0.08400  Biso   1.000  H
  H14      1.0000 0.47900  0.66100  0.58400  Biso   1.000  H
  H15      1.0000 0.83900  0.97900  0.33400  Biso   1.000  H
  H16      1.0000 0.16100  0.02100  0.83400  Biso   1.000  H
  C17      1.0000 0.72320  0.96590  0.54757  Biso   1.000  C
  C18      1.0000 0.27680  0.03410  0.04757  Biso   1.000  C
  C19      1.0000 0.53410  0.22320  0.29757  Biso   1.000  C
  C20      1.0000 0.46590  0.77680  0.79757  Biso   1.000  C
  C21      1.0000 0.77680  0.46590  0.20243  Biso   1.000  C
  C22      1.0000 0.22320  0.53410  0.70243  Biso   1.000  C
  C23      1.0000 0.96590  0.72320  0.45243  Biso   1.000  C
  C24      1.0000 0.03410  0.27680  0.95243  Biso   1.000  C
  H17      1.0000 0.67800  0.97600  0.47900  Biso   1.000  H
  H18      1.0000 0.32200  0.02400  0.97900  Biso   1.000  H
  H19      1.0000 0.52400  0.17800  0.22900  Biso   1.000  H
  H20      1.0000 0.47600  0.82200  0.72900  Biso   1.000  H
  H21      1.0000 0.82200  0.47600  0.27100  Biso   1.000  H
  H22      1.0000 0.17800  0.52400  0.77100  Biso   1.000  H
  H23      1.0000 0.97600  0.67800  0.52100  Biso   1.000  H
  H24      1.0000 0.02400  0.32200  0.02100  Biso   1.000  H
  C25      1.0000 0.84600  0.90300  0.55167  Biso   1.000  C
  C26      1.0000 0.15400  0.09700  0.05167  Biso   1.000  C
  C27      1.0000 0.59700  0.34600  0.30167  Biso   1.000  C
  C28      1.0000 0.40300  0.65400  0.80167  Biso   1.000  C
  C29      1.0000 0.65400  0.40300  0.19833  Biso   1.000  C
  C30      1.0000 0.34600  0.59700  0.69833  Biso   1.000  C
  C31      1.0000 0.90300  0.84600  0.44833  Biso   1.000  C
  C32      1.0000 0.09700  0.15400  0.94833  Biso   1.000  C
