data_image0
_cell_length_a       14.164
_cell_length_b       16.024
_cell_length_c       24.529
_cell_angle_alpha    91.41
_cell_angle_beta     105.26
_cell_angle_gamma    114.04

_symmetry_space_group_name_H-M    "P 1"
_symmetry_int_tables_number       1

loop_
  _symmetry_equiv_pos_as_xyz
  'x, y, z'

loop_
  _atom_site_label
  _atom_site_occupancy
  _atom_site_fract_x
  _atom_site_fract_y
  _atom_site_fract_z
  _atom_site_thermal_displace_type
  _atom_site_B_iso_or_equiv
  _atom_site_type_symbol
  V1       1.0000 0.90056  0.85084  0.31630  Biso   1.000  V
  V2       1.0000 0.09944  0.14916  0.68370  Biso   1.000  V
  V3       1.0000 0.12687  0.82387  0.40482  Biso   1.000  V
  V4       1.0000 0.87313  0.17613  0.59518  Biso   1.000  V
  V5       1.0000 0.99084  0.60839  0.11705  Biso   1.000  V
  V6       1.0000 0.00916  0.39161  0.88295  Biso   1.000  V
  V7       1.0000 0.12017  0.59872  0.23319  Biso   1.000  V
  V8       1.0000 0.87983  0.40128  0.76681  Biso   1.000  V
  V9       1.0000 0.76648  0.62659  0.12100  Biso   1.000  V
  V10      1.0000 0.23352  0.37341  0.87900  Biso   1.000  V
  V11      1.0000 0.18309  0.99794  0.33106  Biso   1.000  V
  V12      1.0000 0.81691  0.00206  0.66894  Biso   1.000  V
  V13      1.0000 0.13735  0.65671  0.34772  Biso   1.000  V
  V14      1.0000 0.86265  0.34329  0.65228  Biso   1.000  V
  V15      1.0000 0.90072  0.67255  0.35055  Biso   1.000  V
  V16      1.0000 0.09928  0.32745  0.64945  Biso   1.000  V
  V17      1.0000 0.74805  0.62152  0.23591  Biso   1.000  V
  V18      1.0000 0.25195  0.37848  0.76409  Biso   1.000  V
  V19      1.0000 0.28519  0.82801  0.31331  Biso   1.000  V
  V20      1.0000 0.71481  0.17199  0.68669  Biso   1.000  V
  V21      1.0000 0.88875  0.52578  0.23276  Biso   1.000  V
  V22      1.0000 0.11125  0.47422  0.76724  Biso   1.000  V
  V23      1.0000 0.18558  0.78930  0.15891  Biso   1.000  V
  V24      1.0000 0.81442  0.21070  0.84109  Biso   1.000  V
  V25      1.0000 0.24112  0.95380  0.23283  Biso   1.000  V
  V26      1.0000 0.75888  0.04620  0.76717  Biso   1.000  V
  V27      1.0000 0.99399  0.83288  0.11392  Biso   1.000  V
  V28      1.0000 0.00601  0.16712  0.88608  Biso   1.000  V
  V29      1.0000 0.99988  0.96856  0.23561  Biso   1.000  V
  V30      1.0000 0.00012  0.03144  0.76439  Biso   1.000  V
  V31      1.0000 0.81197  0.81230  0.16186  Biso   1.000  V
  V32      1.0000 0.18803  0.18770  0.83814  Biso   1.000  V
  Cu1      1.0000 0.86759  0.30122  0.26709  Biso   1.000  Cu
  Cu2      1.0000 0.13241  0.69878  0.73291  Biso   1.000  Cu
  Cu3      1.0000 0.45641  0.42463  0.03570  Biso   1.000  Cu
  Cu4      1.0000 0.54359  0.57537  0.96430  Biso   1.000  Cu
  Cu5      1.0000 0.86776  0.05922  0.35197  Biso   1.000  Cu
  Cu6      1.0000 0.13224  0.94078  0.64803  Biso   1.000  Cu
  Cu7      1.0000 0.31655  0.57466  0.45538  Biso   1.000  Cu
  Cu8      1.0000 0.68345  0.42534  0.54462  Biso   1.000  Cu
  Cu9      1.0000 0.00336  0.92421  0.97552  Biso   1.000  Cu
  Cu10     1.0000 0.99664  0.07579  0.02448  Biso   1.000  Cu
  Cu11     1.0000 0.57234  0.47566  0.31081  Biso   1.000  Cu
  Cu12     1.0000 0.42766  0.52434  0.68919  Biso   1.000  Cu
  Cl1      1.0000 0.01532  0.75748  0.24311  Biso   1.000  Cl
  Cl2      1.0000 0.98468  0.24252  0.75689  Biso   1.000  Cl
  C1       1.0000 0.93570  0.32170  0.16810  Biso   1.000  C
  C2       1.0000 0.06430  0.67830  0.83190  Biso   1.000  C
  H1       1.0000 0.95470  0.38470  0.17400  Biso   1.000  H
  H2       1.0000 0.04530  0.61530  0.82600  Biso   1.000  H
  C3       1.0000 0.87610  0.18030  0.17830  Biso   1.000  C
  C4       1.0000 0.12390  0.81970  0.82170  Biso   1.000  C
  H3       1.0000 0.84610  0.12570  0.19280  Biso   1.000  H
  H4       1.0000 0.15390  0.87430  0.80720  Biso   1.000  H
  C5       1.0000 0.91080  0.18850  0.13100  Biso   1.000  C
  C6       1.0000 0.08920  0.81150  0.86900  Biso   1.000  C
  H5       1.0000 0.90860  0.14120  0.10710  Biso   1.000  H
  H6       1.0000 0.09140  0.85880  0.89290  Biso   1.000  H
  C7       1.0000 0.99060  0.32250  0.08000  Biso   1.000  C
  C8       1.0000 0.00940  0.67750  0.92000  Biso   1.000  C
  H7       1.0000 0.05790  0.31830  0.08240  Biso   1.000  H
  H8       1.0000 0.94210  0.68170  0.91760  Biso   1.000  H
  H9       1.0000 0.00580  0.38750  0.08470  Biso   1.000  H
  H10      1.0000 0.99420  0.61250  0.91530  Biso   1.000  H
  C9       1.0000 0.91170  0.27690  0.02270  Biso   1.000  C
  C10      1.0000 0.08830  0.72310  0.97730  Biso   1.000  C
  H11      1.0000 0.91070  0.21690  0.01440  Biso   1.000  H
  H12      1.0000 0.08930  0.78310  0.98560  Biso   1.000  H
  H13      1.0000 0.93680  0.31370  0.99420  Biso   1.000  H
  H14      1.0000 0.06320  0.68630  0.00580  Biso   1.000  H
  C11      1.0000 0.79440  0.26320  0.01680  Biso   1.000  C
  C12      1.0000 0.20560  0.73680  0.98320  Biso   1.000  C
  H15      1.0000 0.74490  0.22130  0.98210  Biso   1.000  H
  H16      1.0000 0.25510  0.77870  0.01790  Biso   1.000  H
  H17      1.0000 0.77270  0.23650  0.04910  Biso   1.000  H
  H18      1.0000 0.22730  0.76350  0.95090  Biso   1.000  H
  C13      1.0000 0.79030  0.34680  0.01500  Biso   1.000  C
  C14      1.0000 0.20970  0.65320  0.98500  Biso   1.000  C
  H19      1.0000 0.81070  0.37290  0.98240  Biso   1.000  H
  H20      1.0000 0.18930  0.62710  0.01760  Biso   1.000  H
  H21      1.0000 0.84080  0.38910  0.04940  Biso   1.000  H
  H22      1.0000 0.15920  0.61090  0.95060  Biso   1.000  H
  C15      1.0000 0.58130  0.27280  0.96950  Biso   1.000  C
  C16      1.0000 0.41870  0.72720  0.03050  Biso   1.000  C
  H23      1.0000 0.57760  0.22610  0.94460  Biso   1.000  H
  H24      1.0000 0.42240  0.77390  0.05540  Biso   1.000  H
  C17      1.0000 0.49850  0.29340  0.97190  Biso   1.000  C
  C18      1.0000 0.50150  0.70660  0.02810  Biso   1.000  C
  H25      1.0000 0.42830  0.26440  0.94710  Biso   1.000  H
  H26      1.0000 0.57170  0.73560  0.05290  Biso   1.000  H
  C19      1.0000 0.63540  0.38290  0.03790  Biso   1.000  C
  C20      1.0000 0.36460  0.61710  0.96210  Biso   1.000  C
  H27      1.0000 0.68040  0.42750  0.06970  Biso   1.000  H
  H28      1.0000 0.31960  0.57250  0.93030  Biso   1.000  H
  C21      1.0000 0.85390  0.39550  0.36270  Biso   1.000  C
  C22      1.0000 0.14610  0.60450  0.63730  Biso   1.000  C
  H29      1.0000 0.86440  0.44880  0.34600  Biso   1.000  H
  H30      1.0000 0.13560  0.55120  0.65400  Biso   1.000  H
  C23      1.0000 0.83340  0.25940  0.37770  Biso   1.000  C
  C24      1.0000 0.16660  0.74060  0.62230  Biso   1.000  C
  H31      1.0000 0.82590  0.19910  0.37220  Biso   1.000  H
  H32      1.0000 0.17410  0.80090  0.62780  Biso   1.000  H
  C25      1.0000 0.82820  0.29950  0.42390  Biso   1.000  C
  C26      1.0000 0.17180  0.70050  0.57610  Biso   1.000  C
  H33      1.0000 0.81890  0.27360  0.45670  Biso   1.000  H
  H34      1.0000 0.18110  0.72640  0.54330  Biso   1.000  H
  C27      1.0000 0.85100  0.45770  0.45640  Biso   1.000  C
  C28      1.0000 0.14900  0.54230  0.54360  Biso   1.000  C
  H35      1.0000 0.84780  0.50930  0.43740  Biso   1.000  H
  H36      1.0000 0.15220  0.49070  0.56260  Biso   1.000  H
  H37      1.0000 0.79040  0.43390  0.47190  Biso   1.000  H
  H38      1.0000 0.20960  0.56610  0.52810  Biso   1.000  H
  C29      1.0000 0.94990  0.49080  0.50260  Biso   1.000  C
  C30      1.0000 0.05010  0.50920  0.49740  Biso   1.000  C
  H39      1.0000 0.95690  0.54740  0.52200  Biso   1.000  H
  H40      1.0000 0.04310  0.45260  0.47800  Biso   1.000  H
  H41      1.0000 0.93760  0.44630  0.52910  Biso   1.000  H
  H42      1.0000 0.06240  0.55370  0.47090  Biso   1.000  H
  C31      1.0000 0.43290  0.52150  0.12420  Biso   1.000  C
  C32      1.0000 0.56710  0.47850  0.87580  Biso   1.000  C
  H43      1.0000 0.50400  0.53580  0.14520  Biso   1.000  H
  H44      1.0000 0.49600  0.46420  0.85480  Biso   1.000  H
  C33      1.0000 0.28320  0.47210  0.05770  Biso   1.000  C
  C34      1.0000 0.71680  0.52790  0.94230  Biso   1.000  C
  H45      1.0000 0.23030  0.44480  0.02270  Biso   1.000  H
  H46      1.0000 0.76970  0.55520  0.97730  Biso   1.000  H
  C35      1.0000 0.27180  0.51510  0.10110  Biso   1.000  C
  C36      1.0000 0.72820  0.48490  0.89890  Biso   1.000  C
  H47      1.0000 0.21030  0.52200  0.10230  Biso   1.000  H
  H48      1.0000 0.78970  0.47800  0.89770  Biso   1.000  H
  C37      1.0000 0.39740  0.60210  0.19920  Biso   1.000  C
  C38      1.0000 0.60260  0.39790  0.80080  Biso   1.000  C
  H49      1.0000 0.46040  0.59820  0.22440  Biso   1.000  H
  H50      1.0000 0.53960  0.40180  0.77560  Biso   1.000  H
  H51      1.0000 0.33830  0.57450  0.21560  Biso   1.000  H
  H52      1.0000 0.66170  0.42550  0.78440  Biso   1.000  H
  C39      1.0000 0.42230  0.70480  0.19810  Biso   1.000  C
  C40      1.0000 0.57770  0.29520  0.80190  Biso   1.000  C
  H53      1.0000 0.36230  0.70950  0.17030  Biso   1.000  H
  H54      1.0000 0.63770  0.29050  0.82970  Biso   1.000  H
  H55      1.0000 0.42840  0.73220  0.23530  Biso   1.000  H
  H56      1.0000 0.57160  0.26780  0.76470  Biso   1.000  H
  C41      1.0000 0.51700  0.75460  0.18440  Biso   1.000  C
  C42      1.0000 0.48300  0.24540  0.81560  Biso   1.000  C
  H57      1.0000 0.51520  0.72220  0.14990  Biso   1.000  H
  H58      1.0000 0.48480  0.27780  0.85010  Biso   1.000  H
  H59      1.0000 0.57810  0.75710  0.21500  Biso   1.000  H
  H60      1.0000 0.42190  0.24290  0.78500  Biso   1.000  H
  C43      1.0000 0.53480  0.85440  0.17500  Biso   1.000  C
  C44      1.0000 0.46520  0.14560  0.82500  Biso   1.000  C
  H61      1.0000 0.57420  0.87210  0.14710  Biso   1.000  H
  H62      1.0000 0.42580  0.12790  0.85290  Biso   1.000  H
  H63      1.0000 0.46450  0.85410  0.15850  Biso   1.000  H
  H64      1.0000 0.53550  0.14590  0.84150  Biso   1.000  H
  C45      1.0000 0.55400  0.96450  0.25720  Biso   1.000  C
  C46      1.0000 0.44600  0.03550  0.74280  Biso   1.000  C
  H65      1.0000 0.48200  0.95410  0.25020  Biso   1.000  H
  H66      1.0000 0.51800  0.04590  0.74980  Biso   1.000  H
  C47      1.0000 0.63780  0.02210  0.30090  Biso   1.000  C
  C48      1.0000 0.36220  0.97790  0.69910  Biso   1.000  C
  H67      1.0000 0.63320  0.05780  0.32960  Biso   1.000  H
  H68      1.0000 0.36680  0.94220  0.67040  Biso   1.000  H
  C49      1.0000 0.70000  0.96010  0.25010  Biso   1.000  C
  C50      1.0000 0.30000  0.03990  0.74990  Biso   1.000  C
  H69      1.0000 0.74600  0.94390  0.23590  Biso   1.000  H
  H70      1.0000 0.25400  0.05610  0.76410  Biso   1.000  H
  C51      1.0000 0.05250  0.06310  0.43480  Biso   1.000  C
  C52      1.0000 0.94750  0.93690  0.56520  Biso   1.000  C
  H71      1.0000 0.05410  0.01610  0.41260  Biso   1.000  H
  H72      1.0000 0.94590  0.98390  0.58740  Biso   1.000  H
  C53      1.0000 0.01540  0.17090  0.46200  Biso   1.000  C
  C54      1.0000 0.98460  0.82910  0.53800  Biso   1.000  C
  H73      1.0000 0.98380  0.21170  0.46150  Biso   1.000  H
  H74      1.0000 0.01620  0.78830  0.53850  Biso   1.000  H
  C55      1.0000 0.08870  0.16720  0.50510  Biso   1.000  C
  C56      1.0000 0.91130  0.83280  0.49490  Biso   1.000  C
  H75      1.0000 0.11970  0.20500  0.54030  Biso   1.000  H
  H76      1.0000 0.88030  0.79500  0.45970  Biso   1.000  H
  C57      1.0000 0.18980  0.06450  0.52190  Biso   1.000  C
  C58      1.0000 0.81020  0.93550  0.47810  Biso   1.000  C
  H77      1.0000 0.18650  0.06530  0.56090  Biso   1.000  H
  H78      1.0000 0.81350  0.93470  0.43910  Biso   1.000  H
  H79      1.0000 0.17030  0.00140  0.50650  Biso   1.000  H
  H80      1.0000 0.82970  0.99860  0.49350  Biso   1.000  H
  C59      1.0000 0.30110  0.12350  0.52190  Biso   1.000  C
  C60      1.0000 0.69890  0.87650  0.47810  Biso   1.000  C
  H81      1.0000 0.32410  0.08230  0.50530  Biso   1.000  H
  H82      1.0000 0.67590  0.91770  0.49470  Biso   1.000  H
  H83      1.0000 0.29340  0.16390  0.49400  Biso   1.000  H
  H84      1.0000 0.70660  0.83610  0.50600  Biso   1.000  H
  C61      1.0000 0.37510  0.17020  0.55910  Biso   1.000  C
  C62      1.0000 0.62490  0.82980  0.44090  Biso   1.000  C
  H85      1.0000 0.39930  0.23000  0.54620  Biso   1.000  H
  H86      1.0000 0.60070  0.77000  0.45380  Biso   1.000  H
  H87      1.0000 0.42930  0.14840  0.55780  Biso   1.000  H
  H88      1.0000 0.57070  0.85160  0.44220  Biso   1.000  H
  C63      1.0000 0.20250  0.41240  0.37150  Biso   1.000  C
  C64      1.0000 0.79750  0.58760  0.62850  Biso   1.000  C
  H89      1.0000 0.16730  0.44110  0.34690  Biso   1.000  H
  H90      1.0000 0.83270  0.55890  0.65310  Biso   1.000  H
  C65      1.0000 0.25640  0.31200  0.40460  Biso   1.000  C
  C66      1.0000 0.74360  0.68800  0.59540  Biso   1.000  C
  H91      1.0000 0.26510  0.25770  0.40790  Biso   1.000  H
  H92      1.0000 0.73490  0.74230  0.59210  Biso   1.000  H
  C67      1.0000 0.30190  0.38420  0.44390  Biso   1.000  C
  C68      1.0000 0.69810  0.61580  0.55610  Biso   1.000  C
  H93      1.0000 0.35010  0.39090  0.47960  Biso   1.000  H
  H94      1.0000 0.64990  0.60910  0.52040  Biso   1.000  H
  C69      1.0000 0.13230  0.26810  0.30390  Biso   1.000  C
  C70      1.0000 0.86770  0.73190  0.69610  Biso   1.000  C
  H95      1.0000 0.05720  0.25770  0.29540  Biso   1.000  H
  H96      1.0000 0.94280  0.74230  0.70460  Biso   1.000  H
  H97      1.0000 0.13500  0.20890  0.30740  Biso   1.000  H
  H98      1.0000 0.86500  0.79110  0.69260  Biso   1.000  H
  C71      1.0000 0.37100  0.76290  0.49730  Biso   1.000  C
  C72      1.0000 0.62900  0.23710  0.50270  Biso   1.000  C
  H99      1.0000 0.31440  0.76460  0.46840  Biso   1.000  H
  H100     1.0000 0.68560  0.23540  0.53160  Biso   1.000  H
  C73      1.0000 0.48190  0.71830  0.54840  Biso   1.000  C
  C74      1.0000 0.51810  0.28170  0.45160  Biso   1.000  C
  H101     1.0000 0.51720  0.68180  0.56200  Biso   1.000  H
  H102     1.0000 0.48280  0.31820  0.43800  Biso   1.000  H
  C75      1.0000 0.51020  0.80360  0.57210  Biso   1.000  C
  C76      1.0000 0.48980  0.19640  0.42790  Biso   1.000  C
  H103     1.0000 0.56770  0.83700  0.60450  Biso   1.000  H
  H104     1.0000 0.43230  0.16300  0.39550  Biso   1.000  H
  C77      1.0000 0.43420  0.92230  0.55070  Biso   1.000  C
  C78      1.0000 0.56580  0.07770  0.44930  Biso   1.000  C
  H105     1.0000 0.44730  0.93720  0.59140  Biso   1.000  H
  H106     1.0000 0.55270  0.06280  0.40860  Biso   1.000  H
  H107     1.0000 0.36210  0.91640  0.53110  Biso   1.000  H
  H108     1.0000 0.63790  0.08360  0.46890  Biso   1.000  H
  C79      1.0000 0.51720  0.00130  0.53100  Biso   1.000  C
  C80      1.0000 0.48280  0.99870  0.46900  Biso   1.000  C
  H109     1.0000 0.52780  0.05980  0.54980  Biso   1.000  H
  H110     1.0000 0.47220  0.94020  0.45020  Biso   1.000  H
  H111     1.0000 0.58610  0.99730  0.54230  Biso   1.000  H
  H112     1.0000 0.41390  0.00270  0.45770  Biso   1.000  H
  C81      1.0000 0.21450  0.04090  0.96630  Biso   1.000  C
  C82      1.0000 0.78550  0.95910  0.03370  Biso   1.000  C
  H113     1.0000 0.18670  0.06150  0.93350  Biso   1.000  H
  H114     1.0000 0.81330  0.93850  0.06650  Biso   1.000  H
  C83      1.0000 0.31690  0.05650  0.98830  Biso   1.000  C
  C84      1.0000 0.68310  0.94350  0.01170  Biso   1.000  C
  H115     1.0000 0.37350  0.08930  0.97370  Biso   1.000  H
  H116     1.0000 0.62650  0.91070  0.02630  Biso   1.000  H
  C85      1.0000 0.22490  0.97780  0.04130  Biso   1.000  C
  C86      1.0000 0.77510  0.02220  0.95870  Biso   1.000  C
  H117     1.0000 0.20650  0.94640  0.07110  Biso   1.000  H
  H118     1.0000 0.79350  0.05360  0.92890  Biso   1.000  H
  C87      1.0000 0.41890  0.00520  0.07200  Biso   1.000  C
  C88      1.0000 0.58110  0.99480  0.92800  Biso   1.000  C
  H119     1.0000 0.43840  0.96870  0.04890  Biso   1.000  H
  H120     1.0000 0.56160  0.03130  0.95110  Biso   1.000  H
  H121     1.0000 0.39950  0.97170  0.10270  Biso   1.000  H
  H122     1.0000 0.60050  0.02830  0.89730  Biso   1.000  H
  C89      1.0000 0.51780  0.09760  0.09790  Biso   1.000  C
  C90      1.0000 0.48220  0.90240  0.90210  Biso   1.000  C
  H123     1.0000 0.58070  0.08670  0.11570  Biso   1.000  H
  H124     1.0000 0.41930  0.91330  0.88430  Biso   1.000  H
  H125     1.0000 0.53310  0.13520  0.06810  Biso   1.000  H
  H126     1.0000 0.46690  0.86480  0.93190  Biso   1.000  H
  C91      1.0000 0.49560  0.14460  0.13950  Biso   1.000  C
  C92      1.0000 0.50440  0.85540  0.86050  Biso   1.000  C
  H127     1.0000 0.47200  0.10430  0.16680  Biso   1.000  H
  H128     1.0000 0.52800  0.89570  0.83320  Biso   1.000  H
  H129     1.0000 0.43810  0.16190  0.12100  Biso   1.000  H
  H130     1.0000 0.56190  0.83810  0.87900  Biso   1.000  H
  C93      1.0000 0.85250  0.86050  0.86260  Biso   1.000  C
  C94      1.0000 0.14750  0.13950  0.13740  Biso   1.000  C
  H131     1.0000 0.89820  0.90680  0.84710  Biso   1.000  H
  H132     1.0000 0.10180  0.09320  0.15290  Biso   1.000  H
  C95      1.0000 0.78530  0.77940  0.92150  Biso   1.000  C
  C96      1.0000 0.21470  0.22060  0.07850  Biso   1.000  C
  H133     1.0000 0.77490  0.75830  0.95540  Biso   1.000  H
  H134     1.0000 0.22510  0.24170  0.04460  Biso   1.000  H
  C97      1.0000 0.71640  0.73900  0.86930  Biso   1.000  C
  C98      1.0000 0.28360  0.26100  0.13070  Biso   1.000  C
  H135     1.0000 0.65180  0.68560  0.86030  Biso   1.000  H
  H136     1.0000 0.34820  0.31440  0.13970  Biso   1.000  H
  C99      1.0000 0.28420  0.22420  0.23060  Biso   1.000  C
  C100     1.0000 0.71580  0.77580  0.76940  Biso   1.000  C
  H137     1.0000 0.24150  0.17150  0.24600  Biso   1.000  H
  H138     1.0000 0.75850  0.82850  0.75400  Biso   1.000  H
  H139     1.0000 0.35760  0.22960  0.24070  Biso   1.000  H
  H140     1.0000 0.64240  0.77040  0.75930  Biso   1.000  H
  C101     1.0000 0.28550  0.31020  0.25760  Biso   1.000  C
  C102     1.0000 0.71450  0.68980  0.74240  Biso   1.000  C
  H141     1.0000 0.32770  0.32310  0.29750  Biso   1.000  H
  H142     1.0000 0.67230  0.67690  0.70250  Biso   1.000  H
  H143     1.0000 0.32240  0.36160  0.23940  Biso   1.000  H
  H144     1.0000 0.67760  0.63840  0.76060  Biso   1.000  H
  C103     1.0000 0.17380  0.30640  0.25420  Biso   1.000  C
  C104     1.0000 0.82620  0.69360  0.74580  Biso   1.000  C
  H145     1.0000 0.12190  0.26820  0.21870  Biso   1.000  H
  H146     1.0000 0.87810  0.73180  0.78130  Biso   1.000  H
  H147     1.0000 0.17790  0.36820  0.25310  Biso   1.000  H
  H148     1.0000 0.82210  0.63180  0.74690  Biso   1.000  H
  C105     1.0000 0.60680  0.65530  0.35250  Biso   1.000  C
  C106     1.0000 0.39320  0.34470  0.64750  Biso   1.000  C
  H149     1.0000 0.67920  0.67950  0.35340  Biso   1.000  H
  H150     1.0000 0.32080  0.32050  0.64660  Biso   1.000  H
  C107     1.0000 0.45200  0.64670  0.35600  Biso   1.000  C
  C108     1.0000 0.54800  0.35330  0.64400  Biso   1.000  C
  H151     1.0000 0.39740  0.66230  0.35980  Biso   1.000  H
  H152     1.0000 0.60260  0.33770  0.64020  Biso   1.000  H
  C109     1.0000 0.44360  0.56180  0.34290  Biso   1.000  C
  C110     1.0000 0.55640  0.43820  0.65710  Biso   1.000  C
  H153     1.0000 0.38050  0.50750  0.33610  Biso   1.000  H
  H154     1.0000 0.61950  0.49250  0.66390  Biso   1.000  H
  C111     1.0000 0.39360  0.19320  0.62190  Biso   1.000  C
  C112     1.0000 0.60640  0.80680  0.37810  Biso   1.000  C
  C113     1.0000 0.59540  0.35590  0.23310  Biso   1.000  C
  C114     1.0000 0.40460  0.64410  0.76690  Biso   1.000  C
  H155     1.0000 0.60670  0.39910  0.20800  Biso   1.000  H
  H156     1.0000 0.39330  0.60090  0.79200  Biso   1.000  H
  C115     1.0000 0.57060  0.29190  0.30550  Biso   1.000  C
  C116     1.0000 0.42940  0.70810  0.69450  Biso   1.000  C
  H157     1.0000 0.56110  0.28110  0.34120  Biso   1.000  H
  H158     1.0000 0.43890  0.71890  0.65880  Biso   1.000  H
  C117     1.0000 0.57330  0.23190  0.26780  Biso   1.000  C
  C118     1.0000 0.42670  0.76810  0.73220  Biso   1.000  C
  H159     1.0000 0.56560  0.17230  0.27240  Biso   1.000  H
  H160     1.0000 0.43440  0.82770  0.72760  Biso   1.000  H
  C119     1.0000 0.60170  0.23390  0.17140  Biso   1.000  C
  C120     1.0000 0.39830  0.76610  0.82860  Biso   1.000  C
  H161     1.0000 0.66270  0.21820  0.18260  Biso   1.000  H
  H162     1.0000 0.33730  0.78180  0.81740  Biso   1.000  H
  H163     1.0000 0.61650  0.27950  0.14570  Biso   1.000  H
  H164     1.0000 0.38350  0.72050  0.85430  Biso   1.000  H
  O1       1.0000 0.83010  0.41610  0.23044  Biso   1.000  O
  O2       1.0000 0.16990  0.58390  0.76956  Biso   1.000  O
  O3       1.0000 0.64950  0.57730  0.07413  Biso   1.000  O
  O4       1.0000 0.35050  0.42270  0.92587  Biso   1.000  O
  O5       1.0000 0.84140  0.89270  0.34882  Biso   1.000  O
  O6       1.0000 0.15860  0.10730  0.65118  Biso   1.000  O
  O7       1.0000 0.19610  0.60870  0.39300  Biso   1.000  O
  O8       1.0000 0.80390  0.39130  0.60700  Biso   1.000  O
  O9       1.0000 0.98630  0.87190  0.05407  Biso   1.000  O
  O10      1.0000 0.01370  0.12810  0.94593  Biso   1.000  O
  O11      1.0000 0.62660  0.55870  0.23678  Biso   1.000  O
  O12      1.0000 0.37340  0.44130  0.76322  Biso   1.000  O
  O13      1.0000 0.24790  0.10570  0.35553  Biso   1.000  O
  O14      1.0000 0.75210  0.89430  0.64447  Biso   1.000  O
  O15      1.0000 0.26550  0.80890  0.12058  Biso   1.000  O
  O16      1.0000 0.73450  0.19110  0.87942  Biso   1.000  O
  O17      1.0000 0.02950  0.66680  0.37527  Biso   1.000  O
  O18      1.0000 0.97050  0.33320  0.62473  Biso   1.000  O
  O19      1.0000 0.41000  0.85670  0.34424  Biso   1.000  O
  O20      1.0000 0.59000  0.14330  0.65576  Biso   1.000  O
  O21      1.0000 0.85200  0.58550  0.09149  Biso   1.000  O
  O22      1.0000 0.14800  0.41450  0.90851  Biso   1.000  O
  O23      1.0000 0.72250  0.84410  0.12732  Biso   1.000  O
  O24      1.0000 0.27750  0.15590  0.87268  Biso   1.000  O
  O25      1.0000 0.98490  0.06160  0.23058  Biso   1.000  O
  O26      1.0000 0.01510  0.93840  0.76942  Biso   1.000  O
  O27      1.0000 0.18390  0.94110  0.39856  Biso   1.000  O
  O28      1.0000 0.81610  0.05890  0.60144  Biso   1.000  O
  O29      1.0000 0.83780  0.63500  0.39661  Biso   1.000  O
  O30      1.0000 0.16220  0.36500  0.60339  Biso   1.000  O
  O31      1.0000 0.16560  0.52350  0.23121  Biso   1.000  O
  O32      1.0000 0.83440  0.47650  0.76879  Biso   1.000  O
  O33      1.0000 0.01040  0.55070  0.07054  Biso   1.000  O
  O34      1.0000 0.98960  0.44930  0.92946  Biso   1.000  O
  O35      1.0000 0.15020  0.66860  0.17509  Biso   1.000  O
  O36      1.0000 0.84980  0.33140  0.82491  Biso   1.000  O
  O37      1.0000 0.34420  0.03760  0.22491  Biso   1.000  O
  O38      1.0000 0.65580  0.96240  0.77509  Biso   1.000  O
  O39      1.0000 0.27120  0.84430  0.23307  Biso   1.000  O
  O40      1.0000 0.72880  0.15570  0.76693  Biso   1.000  O
  O41      1.0000 0.15980  0.82070  0.47245  Biso   1.000  O
  O42      1.0000 0.84020  0.17930  0.52755  Biso   1.000  O
  O43      1.0000 0.21120  0.78920  0.37172  Biso   1.000  O
  O44      1.0000 0.78880  0.21080  0.62828  Biso   1.000  O
  O45      1.0000 0.03160  0.95510  0.31432  Biso   1.000  O
  O46      1.0000 0.96840  0.04490  0.68568  Biso   1.000  O
  O47      1.0000 0.84640  0.74770  0.10957  Biso   1.000  O
  O48      1.0000 0.15360  0.25230  0.89043  Biso   1.000  O
  O49      1.0000 0.97560  0.54560  0.18025  Biso   1.000  O
  O50      1.0000 0.02440  0.45440  0.81975  Biso   1.000  O
  O51      1.0000 0.73870  0.69990  0.18186  Biso   1.000  O
  O52      1.0000 0.26130  0.30010  0.81814  Biso   1.000  O
  O53      1.0000 0.03450  0.56590  0.28517  Biso   1.000  O
  O54      1.0000 0.96550  0.43410  0.71483  Biso   1.000  O
  O55      1.0000 0.26700  0.94270  0.31215  Biso   1.000  O
  O56      1.0000 0.73300  0.05730  0.68785  Biso   1.000  O
  O57      1.0000 0.78170  0.55840  0.18211  Biso   1.000  O
  O58      1.0000 0.21830  0.44160  0.81789  Biso   1.000  O
  O59      1.0000 0.14420  0.00090  0.24402  Biso   1.000  O
  O60      1.0000 0.85580  0.99910  0.75598  Biso   1.000  O
  O61      1.0000 0.03940  0.73360  0.10844  Biso   1.000  O
  O62      1.0000 0.96060  0.26640  0.89156  Biso   1.000  O
  O63      1.0000 0.14720  0.89140  0.15902  Biso   1.000  O
  O64      1.0000 0.85280  0.10860  0.84098  Biso   1.000  O
  O65      1.0000 0.84260  0.57820  0.28868  Biso   1.000  O
  O66      1.0000 0.15740  0.42180  0.71132  Biso   1.000  O
  O67      1.0000 0.98360  0.80370  0.37387  Biso   1.000  O
  O68      1.0000 0.01640  0.19630  0.62613  Biso   1.000  O
  O69      1.0000 0.21770  0.69300  0.29190  Biso   1.000  O
  O70      1.0000 0.78230  0.30700  0.70810  Biso   1.000  O
  O71      1.0000 0.81170  0.71930  0.29795  Biso   1.000  O
  O72      1.0000 0.18830  0.28070  0.70205  Biso   1.000  O
  O73      1.0000 0.86210  0.87300  0.23730  Biso   1.000  O
  O74      1.0000 0.13790  0.12700  0.76270  Biso   1.000  O
  O75      1.0000 0.95310  0.90560  0.16134  Biso   1.000  O
  O76      1.0000 0.04690  0.09440  0.83866  Biso   1.000  O
  N1       1.0000 0.89280  0.26520  0.20050  Biso   1.000  N
  N2       1.0000 0.10720  0.73480  0.79950  Biso   1.000  N
  N3       1.0000 0.94960  0.28040  0.12560  Biso   1.000  N
  N4       1.0000 0.05040  0.71960  0.87440  Biso   1.000  N
  N5       1.0000 0.53290  0.36290  0.01580  Biso   1.000  N
  N6       1.0000 0.46710  0.63710  0.98420  Biso   1.000  N
  N7       1.0000 0.66960  0.33280  0.01010  Biso   1.000  N
  N8       1.0000 0.33040  0.66720  0.98990  Biso   1.000  N
  N9       1.0000 0.85170  0.32070  0.33880  Biso   1.000  N
  N10      1.0000 0.14830  0.67930  0.66120  Biso   1.000  N
  N11      1.0000 0.83910  0.38590  0.41440  Biso   1.000  N
  N12      1.0000 0.16090  0.61410  0.58560  Biso   1.000  N
  N13      1.0000 0.38620  0.47430  0.07260  Biso   1.000  N
  N14      1.0000 0.61380  0.52570  0.92740  Biso   1.000  N
  N15      1.0000 0.36790  0.54660  0.14320  Biso   1.000  N
  N16      1.0000 0.63210  0.45340  0.85680  Biso   1.000  N
  N17      1.0000 0.73360  0.01990  0.29630  Biso   1.000  N
  N18      1.0000 0.26640  0.98010  0.70370  Biso   1.000  N
  N19      1.0000 0.59280  0.92480  0.22540  Biso   1.000  N
  N20      1.0000 0.40720  0.07520  0.77460  Biso   1.000  N
  N21      1.0000 0.99100  0.10430  0.41660  Biso   1.000  N
  N22      1.0000 0.00900  0.89570  0.58340  Biso   1.000  N
  N23      1.0000 0.11290  0.09500  0.48840  Biso   1.000  N
  N24      1.0000 0.88710  0.90500  0.51160  Biso   1.000  N
  N25      1.0000 0.26600  0.45000  0.42310  Biso   1.000  N
  N26      1.0000 0.73400  0.55000  0.57690  Biso   1.000  N
  N27      1.0000 0.19410  0.32890  0.35810  Biso   1.000  N
  N28      1.0000 0.80590  0.67110  0.64190  Biso   1.000  N
  N29      1.0000 0.39410  0.69170  0.50140  Biso   1.000  N
  N30      1.0000 0.60590  0.30830  0.49860  Biso   1.000  N
  N31      1.0000 0.43820  0.83310  0.53950  Biso   1.000  N
  N32      1.0000 0.56180  0.16690  0.46050  Biso   1.000  N
  N33      1.0000 0.87270  0.85550  0.91810  Biso   1.000  N
  N34      1.0000 0.12730  0.14450  0.08190  Biso   1.000  N
  N35      1.0000 0.23950  0.20740  0.16840  Biso   1.000  N
  N36      1.0000 0.76050  0.79260  0.83160  Biso   1.000  N
  N37      1.0000 0.15640  0.99010  0.99960  Biso   1.000  N
  N38      1.0000 0.84360  0.00990  0.00040  Biso   1.000  N
  N39      1.0000 0.32450  0.01520  0.03680  Biso   1.000  N
  N40      1.0000 0.67550  0.98480  0.96320  Biso   1.000  N
  N41      1.0000 0.54170  0.56670  0.34110  Biso   1.000  N
  N42      1.0000 0.45830  0.43330  0.65890  Biso   1.000  N
  N43      1.0000 0.44200  0.29410  0.63740  Biso   1.000  N
  N44      1.0000 0.55800  0.70590  0.36260  Biso   1.000  N
  N45      1.0000 0.58400  0.37120  0.28290  Biso   1.000  N
  N46      1.0000 0.41600  0.62880  0.71710  Biso   1.000  N
  N47      1.0000 0.58900  0.27300  0.22210  Biso   1.000  N
  N48      1.0000 0.41100  0.72700  0.77790  Biso   1.000  N
