data_image0
_cell_length_a       13.267
_cell_length_b       9.2456
_cell_length_c       9.1109
_cell_angle_alpha    90
_cell_angle_beta     109.11
_cell_angle_gamma    90

_symmetry_space_group_name_H-M    "P 1"
_symmetry_int_tables_number       1

loop_
  _symmetry_equiv_pos_as_xyz
  'x, y, z'

loop_
  _atom_site_label
  _atom_site_occupancy
  _atom_site_fract_x
  _atom_site_fract_y
  _atom_site_fract_z
  _atom_site_thermal_displace_type
  _atom_site_B_iso_or_equiv
  _atom_site_type_symbol
  C1       1.0000 0.04440  0.16300  0.88370  Biso   1.000  C
  C2       1.0000 0.95560  0.66300  0.61630  Biso   1.000  C
  C3       1.0000 0.95560  0.83700  0.11630  Biso   1.000  C
  C4       1.0000 0.04440  0.33700  0.38370  Biso   1.000  C
  H1       1.0000 0.99810  0.10110  0.81250  Biso   1.000  H
  H2       1.0000 0.00190  0.60110  0.68750  Biso   1.000  H
  H3       1.0000 0.00190  0.89890  0.18750  Biso   1.000  H
  H4       1.0000 0.99810  0.39890  0.31250  Biso   1.000  H
  C5       1.0000 0.03200  0.31110  0.86100  Biso   1.000  C
  C6       1.0000 0.96800  0.81110  0.63900  Biso   1.000  C
  C7       1.0000 0.96800  0.68890  0.13900  Biso   1.000  C
  C8       1.0000 0.03200  0.18890  0.36100  Biso   1.000  C
  H5       1.0000 0.97800  0.34590  0.77480  Biso   1.000  H
  H6       1.0000 0.02200  0.84590  0.72520  Biso   1.000  H
  H7       1.0000 0.02200  0.65410  0.22520  Biso   1.000  H
  H8       1.0000 0.97800  0.15410  0.27480  Biso   1.000  H
  C9       1.0000 0.31090  0.04620  0.32480  Biso   1.000  C
  C10      1.0000 0.68910  0.54620  0.17520  Biso   1.000  C
  C11      1.0000 0.68910  0.95380  0.67520  Biso   1.000  C
  C12      1.0000 0.31090  0.45380  0.82480  Biso   1.000  C
  H9       1.0000 0.25890  0.97200  0.27680  Biso   1.000  H
  H10      1.0000 0.74110  0.47200  0.22320  Biso   1.000  H
  H11      1.0000 0.74110  0.02800  0.72320  Biso   1.000  H
  H12      1.0000 0.25890  0.52800  0.77680  Biso   1.000  H
  H13      1.0000 0.31700  0.05160  0.43370  Biso   1.000  H
  H14      1.0000 0.68300  0.55160  0.06630  Biso   1.000  H
  H15      1.0000 0.68300  0.94840  0.56630  Biso   1.000  H
  H16      1.0000 0.31700  0.44840  0.93370  Biso   1.000  H
  C13      1.0000 0.12350  0.10430  0.00930  Biso   1.000  C
  C14      1.0000 0.87650  0.60430  0.49070  Biso   1.000  C
  C15      1.0000 0.87650  0.89570  0.99070  Biso   1.000  C
  C16      1.0000 0.12350  0.39570  0.50930  Biso   1.000  C
  H17      1.0000 0.13250  0.00490  0.02340  Biso   1.000  H
  H18      1.0000 0.86750  0.50490  0.47660  Biso   1.000  H
  H19      1.0000 0.86750  0.99510  0.97660  Biso   1.000  H
  H20      1.0000 0.13250  0.49510  0.52340  Biso   1.000  H
  C17      1.0000 0.41450  0.00510  0.31210  Biso   1.000  C
  C18      1.0000 0.58550  0.50510  0.18790  Biso   1.000  C
  C19      1.0000 0.58550  0.99490  0.68790  Biso   1.000  C
  C20      1.0000 0.41450  0.49490  0.81210  Biso   1.000  C
  C21      1.0000 0.09800  0.40830  0.96360  Biso   1.000  C
  C22      1.0000 0.90200  0.90830  0.53640  Biso   1.000  C
  C23      1.0000 0.90200  0.59170  0.03640  Biso   1.000  C
  C24      1.0000 0.09800  0.09170  0.46360  Biso   1.000  C
  H21      1.0000 0.09000  0.50750  0.94770  Biso   1.000  H
  H22      1.0000 0.91000  0.00750  0.55230  Biso   1.000  H
  H23      1.0000 0.91000  0.49250  0.05230  Biso   1.000  H
  H24      1.0000 0.09000  0.99250  0.44770  Biso   1.000  H
  C25      1.0000 0.30850  0.31960  0.30650  Biso   1.000  C
  C26      1.0000 0.69150  0.81960  0.19350  Biso   1.000  C
  C27      1.0000 0.69150  0.68040  0.69350  Biso   1.000  C
  C28      1.0000 0.30850  0.18040  0.80650  Biso   1.000  C
  C29      1.0000 0.18840  0.20210  0.11240  Biso   1.000  C
  C30      1.0000 0.81160  0.70210  0.38760  Biso   1.000  C
  C31      1.0000 0.81160  0.79790  0.88760  Biso   1.000  C
  C32      1.0000 0.18840  0.29790  0.61240  Biso   1.000  C
  C33      1.0000 0.39860  0.34130  0.45090  Biso   1.000  C
  C34      1.0000 0.60140  0.84130  0.04910  Biso   1.000  C
  C35      1.0000 0.60140  0.65870  0.54910  Biso   1.000  C
  C36      1.0000 0.39860  0.15870  0.95090  Biso   1.000  C
  H25      1.0000 0.46420  0.32000  0.43260  Biso   1.000  H
  H26      1.0000 0.53580  0.82000  0.06740  Biso   1.000  H
  H27      1.0000 0.53580  0.68000  0.56740  Biso   1.000  H
  H28      1.0000 0.46420  0.18000  0.93260  Biso   1.000  H
  H29      1.0000 0.39080  0.27820  0.53020  Biso   1.000  H
  H30      1.0000 0.60920  0.77820  0.96980  Biso   1.000  H
  H31      1.0000 0.60920  0.72180  0.46980  Biso   1.000  H
  H32      1.0000 0.39080  0.22180  0.03020  Biso   1.000  H
  H33      1.0000 0.39940  0.44000  0.48420  Biso   1.000  H
  H34      1.0000 0.60060  0.94000  0.01580  Biso   1.000  H
  H35      1.0000 0.60060  0.56000  0.51580  Biso   1.000  H
  H36      1.0000 0.39940  0.06000  0.98420  Biso   1.000  H
  N1       1.0000 0.26950  0.71590  0.43550  Biso   1.000  N
  N2       1.0000 0.73050  0.21590  0.06450  Biso   1.000  N
  N3       1.0000 0.73050  0.28410  0.56450  Biso   1.000  N
  N4       1.0000 0.26950  0.78410  0.93550  Biso   1.000  N
  C37      1.0000 0.17650  0.35180  0.09080  Biso   1.000  C
  C38      1.0000 0.82350  0.85180  0.40920  Biso   1.000  C
  C39      1.0000 0.82350  0.64820  0.90920  Biso   1.000  C
  C40      1.0000 0.17650  0.14820  0.59080  Biso   1.000  C
  Cu1      1.0000 0.26730  0.64111  0.23978  Biso   1.000  Cu
  Cu2      1.0000 0.73270  0.14111  0.26022  Biso   1.000  Cu
  Cu3      1.0000 0.73270  0.35889  0.76022  Biso   1.000  Cu
  Cu4      1.0000 0.26730  0.85889  0.73978  Biso   1.000  Cu
  N5       1.0000 0.26630  0.76610  0.55100  Biso   1.000  N
  N6       1.0000 0.73370  0.26610  0.94900  Biso   1.000  N
  N7       1.0000 0.73370  0.23390  0.44900  Biso   1.000  N
  N8       1.0000 0.26630  0.73390  0.05100  Biso   1.000  N
  N9       1.0000 0.49480  0.97300  0.30560  Biso   1.000  N
  N10      1.0000 0.50520  0.47300  0.19440  Biso   1.000  N
  N11      1.0000 0.50520  0.02700  0.69440  Biso   1.000  N
  N12      1.0000 0.49480  0.52700  0.80560  Biso   1.000  N
  N13      1.0000 0.27330  0.18420  0.25140  Biso   1.000  N
  N14      1.0000 0.72670  0.68420  0.24860  Biso   1.000  N
  N15      1.0000 0.72670  0.81580  0.74860  Biso   1.000  N
  N16      1.0000 0.27330  0.31580  0.75140  Biso   1.000  N
  N17      1.0000 0.25350  0.42210  0.21480  Biso   1.000  N
  N18      1.0000 0.74650  0.92210  0.28520  Biso   1.000  N
  N19      1.0000 0.74650  0.57790  0.78520  Biso   1.000  N
  N20      1.0000 0.25350  0.07790  0.71480  Biso   1.000  N
