data_image0
_cell_length_a       8.714
_cell_length_b       8.714
_cell_length_c       8.083
_cell_angle_alpha    90
_cell_angle_beta     90
_cell_angle_gamma    120

_symmetry_space_group_name_H-M    "P 1"
_symmetry_int_tables_number       1

loop_
  _symmetry_equiv_pos_as_xyz
  'x, y, z'

loop_
  _atom_site_label
  _atom_site_occupancy
  _atom_site_fract_x
  _atom_site_fract_y
  _atom_site_fract_z
  _atom_site_thermal_displace_type
  _atom_site_B_iso_or_equiv
  _atom_site_type_symbol
  Cu1      1.0000 0.00000  0.00000  0.00000  Biso   1.000  Cu
  Cu2      1.0000 0.00000  0.00000  0.50000  Biso   1.000  Cu
  Cu3      1.0000 0.66670  0.33330  0.07250  Biso   1.000  Cu
  Cu4      1.0000 0.33340  0.66670  0.57250  Biso   1.000  Cu
  C1       1.0000 0.88710  0.14560  0.00720  Biso   1.000  C
  C2       1.0000 0.74150  0.88710  0.50720  Biso   1.000  C
  C3       1.0000 0.85440  0.74150  0.00720  Biso   1.000  C
  C4       1.0000 0.11290  0.85440  0.50720  Biso   1.000  C
  C5       1.0000 0.25850  0.11290  0.00720  Biso   1.000  C
  C6       1.0000 0.14560  0.25850  0.50720  Biso   1.000  C
  N1       1.0000 0.81230  0.22270  0.02090  Biso   1.000  N
  N2       1.0000 0.58960  0.81230  0.52090  Biso   1.000  N
  N3       1.0000 0.77730  0.58960  0.02090  Biso   1.000  N
  N4       1.0000 0.18770  0.77730  0.52090  Biso   1.000  N
  N5       1.0000 0.41040  0.18770  0.02090  Biso   1.000  N
  N6       1.0000 0.22270  0.41040  0.52090  Biso   1.000  N
  N7       1.0000 0.66670  0.33330  0.34930  Biso   1.000  N
  N8       1.0000 0.33340  0.66670  0.84930  Biso   1.000  N
  C7       1.0000 0.50270  0.18090  0.41180  Biso   1.000  C
  C8       1.0000 0.32180  0.50270  0.91180  Biso   1.000  C
  C9       1.0000 0.81910  0.32180  0.41180  Biso   1.000  C
  C10      1.0000 0.49730  0.81910  0.91180  Biso   1.000  C
  C11      1.0000 0.67820  0.49730  0.41180  Biso   1.000  C
  C12      1.0000 0.18090  0.67820  0.91180  Biso   1.000  C
  C13      1.0000 0.49800  0.17920  0.60180  Biso   1.000  C
  C14      1.0000 0.31880  0.49800  0.10180  Biso   1.000  C
  C15      1.0000 0.82080  0.31880  0.60180  Biso   1.000  C
  C16      1.0000 0.50200  0.82080  0.10180  Biso   1.000  C
  C17      1.0000 0.68120  0.50200  0.60180  Biso   1.000  C
  C18      1.0000 0.17920  0.68120  0.10180  Biso   1.000  C
  N9       1.0000 0.66670  0.33330  0.66470  Biso   1.000  N
  N10      1.0000 0.33340  0.66670  0.16470  Biso   1.000  N
  H1       1.0000 0.40400  0.18760  0.37090  Biso   1.000  H
  H2       1.0000 0.21640  0.40400  0.87090  Biso   1.000  H
  H3       1.0000 0.81240  0.21640  0.37090  Biso   1.000  H
  H4       1.0000 0.59600  0.81240  0.87090  Biso   1.000  H
  H5       1.0000 0.78360  0.59600  0.37090  Biso   1.000  H
  H6       1.0000 0.18760  0.78360  0.87090  Biso   1.000  H
  H7       1.0000 0.49620  0.07470  0.37360  Biso   1.000  H
  H8       1.0000 0.42150  0.49620  0.87360  Biso   1.000  H
  H9       1.0000 0.92530  0.42150  0.37360  Biso   1.000  H
  H10      1.0000 0.50380  0.92530  0.87360  Biso   1.000  H
  H11      1.0000 0.57850  0.50380  0.37360  Biso   1.000  H
  H12      1.0000 0.07470  0.57850  0.87360  Biso   1.000  H
