data_image0
_cell_length_a       8.812
_cell_length_b       9.631
_cell_length_c       7.266
_cell_angle_alpha    90
_cell_angle_beta     113.4
_cell_angle_gamma    90

_symmetry_space_group_name_H-M    "P 1"
_symmetry_int_tables_number       1

loop_
  _symmetry_equiv_pos_as_xyz
  'x, y, z'

loop_
  _atom_site_label
  _atom_site_occupancy
  _atom_site_fract_x
  _atom_site_fract_y
  _atom_site_fract_z
  _atom_site_thermal_displace_type
  _atom_site_B_iso_or_equiv
  _atom_site_type_symbol
  Cu1      1.0000 0.22803  0.50000  0.93523  Biso   1.000  Cu
  Cu2      1.0000 0.77197  0.50000  0.06477  Biso   1.000  Cu
  Cu3      1.0000 0.72803  0.00000  0.93523  Biso   1.000  Cu
  Cu4      1.0000 0.27197  0.00000  0.06477  Biso   1.000  Cu
  N1       1.0000 0.24550  0.30900  0.99200  Biso   1.000  N
  N2       1.0000 0.75450  0.30900  0.00800  Biso   1.000  N
  N3       1.0000 0.74550  0.80900  0.99200  Biso   1.000  N
  N4       1.0000 0.25450  0.80900  0.00800  Biso   1.000  N
  N5       1.0000 0.75450  0.69100  0.00800  Biso   1.000  N
  N6       1.0000 0.24550  0.69100  0.99200  Biso   1.000  N
  N7       1.0000 0.25450  0.19100  0.00800  Biso   1.000  N
  N8       1.0000 0.74550  0.19100  0.99200  Biso   1.000  N
  N9       1.0000 0.17710  0.50000  0.60710  Biso   1.000  N
  N10      1.0000 0.82290  0.50000  0.39290  Biso   1.000  N
  N11      1.0000 0.67710  0.00000  0.60710  Biso   1.000  N
  N12      1.0000 0.32290  0.00000  0.39290  Biso   1.000  N
  C1       1.0000 0.08680  0.37600  0.50370  Biso   1.000  C
  C2       1.0000 0.91320  0.37600  0.49630  Biso   1.000  C
  C3       1.0000 0.58680  0.87600  0.50370  Biso   1.000  C
  C4       1.0000 0.41320  0.87600  0.49630  Biso   1.000  C
  C5       1.0000 0.91320  0.62400  0.49630  Biso   1.000  C
  C6       1.0000 0.08680  0.62400  0.50370  Biso   1.000  C
  C7       1.0000 0.41320  0.12400  0.49630  Biso   1.000  C
  C8       1.0000 0.58680  0.12400  0.50370  Biso   1.000  C
  C9       1.0000 0.34480  0.50000  0.60840  Biso   1.000  C
  C10      1.0000 0.65520  0.50000  0.39160  Biso   1.000  C
  C11      1.0000 0.84480  0.00000  0.60840  Biso   1.000  C
  C12      1.0000 0.15520  0.00000  0.39160  Biso   1.000  C
  H1       1.0000 0.08190  0.37480  0.37070  Biso   1.000  H
  H2       1.0000 0.91810  0.37480  0.62930  Biso   1.000  H
  H3       1.0000 0.58190  0.87480  0.37070  Biso   1.000  H
  H4       1.0000 0.41810  0.87480  0.62930  Biso   1.000  H
  H5       1.0000 0.91810  0.62520  0.62930  Biso   1.000  H
  H6       1.0000 0.08190  0.62520  0.37070  Biso   1.000  H
  H7       1.0000 0.41810  0.12520  0.62930  Biso   1.000  H
  H8       1.0000 0.58190  0.12520  0.37070  Biso   1.000  H
  H9       1.0000 0.14330  0.29560  0.57310  Biso   1.000  H
  H10      1.0000 0.85670  0.29560  0.42690  Biso   1.000  H
  H11      1.0000 0.64330  0.79560  0.57310  Biso   1.000  H
  H12      1.0000 0.35670  0.79560  0.42690  Biso   1.000  H
  H13      1.0000 0.85670  0.70440  0.42690  Biso   1.000  H
  H14      1.0000 0.14330  0.70440  0.57310  Biso   1.000  H
  H15      1.0000 0.35670  0.20440  0.42690  Biso   1.000  H
  H16      1.0000 0.64330  0.20440  0.57310  Biso   1.000  H
  H17      1.0000 0.40250  0.41950  0.67560  Biso   1.000  H
  H18      1.0000 0.59750  0.41950  0.32440  Biso   1.000  H
  H19      1.0000 0.90250  0.91950  0.67560  Biso   1.000  H
  H20      1.0000 0.09750  0.91950  0.32440  Biso   1.000  H
  H21      1.0000 0.59750  0.58050  0.32440  Biso   1.000  H
  H22      1.0000 0.40250  0.58050  0.67560  Biso   1.000  H
  H23      1.0000 0.09750  0.08050  0.32440  Biso   1.000  H
  H24      1.0000 0.90250  0.08050  0.67560  Biso   1.000  H
  H25      1.0000 0.33730  0.50000  0.47410  Biso   1.000  H
  H26      1.0000 0.66270  0.50000  0.52590  Biso   1.000  H
  H27      1.0000 0.83730  0.00000  0.47410  Biso   1.000  H
  H28      1.0000 0.16270  0.00000  0.52590  Biso   1.000  H
