data_image0
_cell_length_a       10.456
_cell_length_b       5.55
_cell_length_c       8.669
_cell_angle_alpha    90
_cell_angle_beta     106.8
_cell_angle_gamma    90

_symmetry_space_group_name_H-M    "P 1"
_symmetry_int_tables_number       1

loop_
  _symmetry_equiv_pos_as_xyz
  'x, y, z'

loop_
  _atom_site_label
  _atom_site_occupancy
  _atom_site_fract_x
  _atom_site_fract_y
  _atom_site_fract_z
  _atom_site_thermal_displace_type
  _atom_site_B_iso_or_equiv
  _atom_site_type_symbol
  Cu1      1.0000 0.11259  0.52785  0.45842  Biso   1.000  Cu
  Cu2      1.0000 0.88741  0.02785  0.04158  Biso   1.000  Cu
  Cu3      1.0000 0.88741  0.47215  0.54158  Biso   1.000  Cu
  Cu4      1.0000 0.11259  0.97215  0.95842  Biso   1.000  Cu
  C1       1.0000 0.88560  0.17600  0.24730  Biso   1.000  C
  C2       1.0000 0.11440  0.67600  0.25270  Biso   1.000  C
  C3       1.0000 0.11440  0.82400  0.75270  Biso   1.000  C
  C4       1.0000 0.88560  0.32400  0.74730  Biso   1.000  C
  N1       1.0000 0.89260  0.29160  0.35860  Biso   1.000  N
  N2       1.0000 0.10740  0.79160  0.14140  Biso   1.000  N
  N3       1.0000 0.10740  0.70840  0.64140  Biso   1.000  N
  N4       1.0000 0.89260  0.20840  0.85860  Biso   1.000  N
  N5       1.0000 0.78870  0.79560  0.53120  Biso   1.000  N
  N6       1.0000 0.21130  0.29560  0.96880  Biso   1.000  N
  N7       1.0000 0.21130  0.20440  0.46880  Biso   1.000  N
  N8       1.0000 0.78870  0.70440  0.03120  Biso   1.000  N
  C5       1.0000 0.64570  0.77790  0.51490  Biso   1.000  C
  C6       1.0000 0.35430  0.27790  0.98510  Biso   1.000  C
  C7       1.0000 0.35430  0.22210  0.48510  Biso   1.000  C
  C8       1.0000 0.64570  0.72210  0.01490  Biso   1.000  C
  C9       1.0000 0.57370  0.01440  0.50790  Biso   1.000  C
  C10      1.0000 0.42630  0.51440  0.99210  Biso   1.000  C
  C11      1.0000 0.42630  0.98560  0.49210  Biso   1.000  C
  C12      1.0000 0.57370  0.48560  0.00790  Biso   1.000  C
  H1       1.0000 0.79880  0.88310  0.44120  Biso   1.000  H
  H2       1.0000 0.20120  0.38310  0.05880  Biso   1.000  H
  H3       1.0000 0.20120  0.11690  0.55880  Biso   1.000  H
  H4       1.0000 0.79880  0.61690  0.94120  Biso   1.000  H
  H5       1.0000 0.82970  0.88210  0.62730  Biso   1.000  H
  H6       1.0000 0.17030  0.38210  0.87270  Biso   1.000  H
  H7       1.0000 0.17030  0.11790  0.37270  Biso   1.000  H
  H8       1.0000 0.82970  0.61790  0.12730  Biso   1.000  H
  H9       1.0000 0.63560  0.69000  0.60470  Biso   1.000  H
  H10      1.0000 0.36440  0.19000  0.89530  Biso   1.000  H
  H11      1.0000 0.36440  0.31000  0.39530  Biso   1.000  H
  H12      1.0000 0.63560  0.81000  0.10470  Biso   1.000  H
  H13      1.0000 0.60460  0.69200  0.41860  Biso   1.000  H
  H14      1.0000 0.39540  0.19200  0.08140  Biso   1.000  H
  H15      1.0000 0.39540  0.30800  0.58140  Biso   1.000  H
  H16      1.0000 0.60460  0.80800  0.91860  Biso   1.000  H
  H17      1.0000 0.58250  0.10290  0.41770  Biso   1.000  H
  H18      1.0000 0.41750  0.60290  0.08230  Biso   1.000  H
  H19      1.0000 0.41750  0.89710  0.58230  Biso   1.000  H
  H20      1.0000 0.58250  0.39710  0.91770  Biso   1.000  H
  H21      1.0000 0.61420  0.10160  0.60390  Biso   1.000  H
  H22      1.0000 0.38580  0.60160  0.89610  Biso   1.000  H
  H23      1.0000 0.38580  0.89840  0.39610  Biso   1.000  H
  H24      1.0000 0.61420  0.39840  0.10390  Biso   1.000  H
