data_image0
_cell_length_a       9.439
_cell_length_b       10.561
_cell_length_c       8.87
_cell_angle_alpha    90
_cell_angle_beta     98.32
_cell_angle_gamma    90

_symmetry_space_group_name_H-M    "P 1"
_symmetry_int_tables_number       1

loop_
  _symmetry_equiv_pos_as_xyz
  'x, y, z'

loop_
  _atom_site_label
  _atom_site_occupancy
  _atom_site_fract_x
  _atom_site_fract_y
  _atom_site_fract_z
  _atom_site_thermal_displace_type
  _atom_site_B_iso_or_equiv
  _atom_site_type_symbol
  Cu1      1.0000 0.52764  0.61928  0.49204  Biso   1.000  Cu
  Cu2      1.0000 0.47236  0.61928  0.00796  Biso   1.000  Cu
  Cu3      1.0000 0.02764  0.11928  0.49204  Biso   1.000  Cu
  Cu4      1.0000 0.97236  0.11928  0.00796  Biso   1.000  Cu
  Cu5      1.0000 0.47236  0.38072  0.50796  Biso   1.000  Cu
  Cu6      1.0000 0.52764  0.38072  0.99204  Biso   1.000  Cu
  Cu7      1.0000 0.97236  0.88072  0.50796  Biso   1.000  Cu
  Cu8      1.0000 0.02764  0.88072  0.99204  Biso   1.000  Cu
  C1       1.0000 0.50100  0.53000  0.68620  Biso   1.000  C
  C2       1.0000 0.49900  0.53000  0.81380  Biso   1.000  C
  C3       1.0000 0.00100  0.03000  0.68620  Biso   1.000  C
  C4       1.0000 0.99900  0.03000  0.81380  Biso   1.000  C
  C5       1.0000 0.49900  0.47000  0.31380  Biso   1.000  C
  C6       1.0000 0.50100  0.47000  0.18620  Biso   1.000  C
  C7       1.0000 0.99900  0.97000  0.31380  Biso   1.000  C
  C8       1.0000 0.00100  0.97000  0.18620  Biso   1.000  C
  N1       1.0000 0.69910  0.71990  0.49590  Biso   1.000  N
  N2       1.0000 0.30090  0.71990  0.00410  Biso   1.000  N
  N3       1.0000 0.19910  0.21990  0.49590  Biso   1.000  N
  N4       1.0000 0.80090  0.21990  0.00410  Biso   1.000  N
  N5       1.0000 0.30090  0.28010  0.50410  Biso   1.000  N
  N6       1.0000 0.69910  0.28010  0.99590  Biso   1.000  N
  N7       1.0000 0.80090  0.78010  0.50410  Biso   1.000  N
  N8       1.0000 0.19910  0.78010  0.99590  Biso   1.000  N
  N9       1.0000 0.34270  0.71680  0.39270  Biso   1.000  N
  N10      1.0000 0.65730  0.71680  0.10730  Biso   1.000  N
  N11      1.0000 0.84270  0.21680  0.39270  Biso   1.000  N
  N12      1.0000 0.15730  0.21680  0.10730  Biso   1.000  N
  N13      1.0000 0.65730  0.28320  0.60730  Biso   1.000  N
  N14      1.0000 0.34270  0.28320  0.89270  Biso   1.000  N
  N15      1.0000 0.15730  0.78320  0.60730  Biso   1.000  N
  N16      1.0000 0.84270  0.78320  0.89270  Biso   1.000  N
  C9       1.0000 0.33470  0.84750  0.44820  Biso   1.000  C
  C10      1.0000 0.66530  0.84750  0.05180  Biso   1.000  C
  C11      1.0000 0.83470  0.34750  0.44820  Biso   1.000  C
  C12      1.0000 0.16530  0.34750  0.05180  Biso   1.000  C
  C13      1.0000 0.66530  0.15250  0.55180  Biso   1.000  C
  C14      1.0000 0.33470  0.15250  0.94820  Biso   1.000  C
  C15      1.0000 0.16530  0.65250  0.55180  Biso   1.000  C
  C16      1.0000 0.83470  0.65250  0.94820  Biso   1.000  C
  C17      1.0000 0.20420  0.65300  0.39430  Biso   1.000  C
  C18      1.0000 0.79580  0.65300  0.10570  Biso   1.000  C
  C19      1.0000 0.70420  0.15300  0.39430  Biso   1.000  C
  C20      1.0000 0.29580  0.15300  0.10570  Biso   1.000  C
  C21      1.0000 0.79580  0.34700  0.60570  Biso   1.000  C
  C22      1.0000 0.20420  0.34700  0.89430  Biso   1.000  C
  C23      1.0000 0.29580  0.84700  0.60570  Biso   1.000  C
  C24      1.0000 0.70420  0.84700  0.89430  Biso   1.000  C
  H1       1.0000 0.35240  0.72480  0.28800  Biso   1.000  H
  H2       1.0000 0.64760  0.72480  0.21200  Biso   1.000  H
  H3       1.0000 0.85240  0.22480  0.28800  Biso   1.000  H
  H4       1.0000 0.14760  0.22480  0.21200  Biso   1.000  H
  H5       1.0000 0.64760  0.27520  0.71200  Biso   1.000  H
  H6       1.0000 0.35240  0.27520  0.78800  Biso   1.000  H
  H7       1.0000 0.14760  0.77520  0.71200  Biso   1.000  H
  H8       1.0000 0.85240  0.77520  0.78800  Biso   1.000  H
  H9       1.0000 0.42500  0.88750  0.44950  Biso   1.000  H
  H10      1.0000 0.57500  0.88750  0.05050  Biso   1.000  H
  H11      1.0000 0.92500  0.38750  0.44950  Biso   1.000  H
  H12      1.0000 0.07500  0.38750  0.05050  Biso   1.000  H
  H13      1.0000 0.57500  0.11250  0.55050  Biso   1.000  H
  H14      1.0000 0.42500  0.11250  0.94950  Biso   1.000  H
  H15      1.0000 0.07500  0.61250  0.55050  Biso   1.000  H
  H16      1.0000 0.92500  0.61250  0.94950  Biso   1.000  H
  H17      1.0000 0.26400  0.89280  0.38230  Biso   1.000  H
  H18      1.0000 0.73600  0.89280  0.11770  Biso   1.000  H
  H19      1.0000 0.76400  0.39280  0.38230  Biso   1.000  H
  H20      1.0000 0.23600  0.39280  0.11770  Biso   1.000  H
  H21      1.0000 0.73600  0.10720  0.61770  Biso   1.000  H
  H22      1.0000 0.26400  0.10720  0.88230  Biso   1.000  H
  H23      1.0000 0.23600  0.60720  0.61770  Biso   1.000  H
  H24      1.0000 0.76400  0.60720  0.88230  Biso   1.000  H
  H25      1.0000 0.13220  0.69650  0.32800  Biso   1.000  H
  H26      1.0000 0.86780  0.69650  0.17200  Biso   1.000  H
  H27      1.0000 0.63220  0.19650  0.32800  Biso   1.000  H
  H28      1.0000 0.36780  0.19650  0.17200  Biso   1.000  H
  H29      1.0000 0.86780  0.30350  0.67200  Biso   1.000  H
  H30      1.0000 0.13220  0.30350  0.82800  Biso   1.000  H
  H31      1.0000 0.36780  0.80350  0.67200  Biso   1.000  H
  H32      1.0000 0.63220  0.80350  0.82800  Biso   1.000  H
  H33      1.0000 0.21080  0.56820  0.36020  Biso   1.000  H
  H34      1.0000 0.78920  0.56820  0.13980  Biso   1.000  H
  H35      1.0000 0.71080  0.06820  0.36020  Biso   1.000  H
  H36      1.0000 0.28920  0.06820  0.13980  Biso   1.000  H
  H37      1.0000 0.78920  0.43180  0.63980  Biso   1.000  H
  H38      1.0000 0.21080  0.43180  0.86020  Biso   1.000  H
  H39      1.0000 0.28920  0.93180  0.63980  Biso   1.000  H
  H40      1.0000 0.71080  0.93180  0.86020  Biso   1.000  H
