data_image0
_cell_length_a       20.573
_cell_length_b       8.354
_cell_length_c       15.989
_cell_angle_alpha    90
_cell_angle_beta     133.7
_cell_angle_gamma    90

_symmetry_space_group_name_H-M    "P 1"
_symmetry_int_tables_number       1

loop_
  _symmetry_equiv_pos_as_xyz
  'x, y, z'

loop_
  _atom_site_label
  _atom_site_occupancy
  _atom_site_fract_x
  _atom_site_fract_y
  _atom_site_fract_z
  _atom_site_thermal_displace_type
  _atom_site_B_iso_or_equiv
  _atom_site_type_symbol
  Cu1      1.0000 0.49029  0.93889  0.38890  Biso   1.000  Cu
  Cu2      1.0000 0.50971  0.93889  0.11110  Biso   1.000  Cu
  Cu3      1.0000 0.99029  0.43889  0.38890  Biso   1.000  Cu
  Cu4      1.0000 0.00971  0.43889  0.11110  Biso   1.000  Cu
  Cu5      1.0000 0.50971  0.06111  0.61110  Biso   1.000  Cu
  Cu6      1.0000 0.49029  0.06111  0.88890  Biso   1.000  Cu
  Cu7      1.0000 0.00971  0.56111  0.61110  Biso   1.000  Cu
  Cu8      1.0000 0.99029  0.56111  0.88890  Biso   1.000  Cu
  Cu9      1.0000 0.67429  0.43439  0.52184  Biso   1.000  Cu
  Cu10     1.0000 0.32571  0.43439  0.97816  Biso   1.000  Cu
  Cu11     1.0000 0.17429  0.93439  0.52184  Biso   1.000  Cu
  Cu12     1.0000 0.82571  0.93439  0.97816  Biso   1.000  Cu
  Cu13     1.0000 0.32571  0.56561  0.47816  Biso   1.000  Cu
  Cu14     1.0000 0.67429  0.56561  0.02184  Biso   1.000  Cu
  Cu15     1.0000 0.82571  0.06561  0.47816  Biso   1.000  Cu
  Cu16     1.0000 0.17429  0.06561  0.02184  Biso   1.000  Cu
  C1       1.0000 0.56710  0.12620  0.46450  Biso   1.000  C
  C2       1.0000 0.43290  0.12620  0.03550  Biso   1.000  C
  C3       1.0000 0.06710  0.62620  0.46450  Biso   1.000  C
  C4       1.0000 0.93290  0.62620  0.03550  Biso   1.000  C
  C5       1.0000 0.43290  0.87380  0.53550  Biso   1.000  C
  C6       1.0000 0.56710  0.87380  0.96450  Biso   1.000  C
  C7       1.0000 0.93290  0.37380  0.53550  Biso   1.000  C
  C8       1.0000 0.06710  0.37380  0.96450  Biso   1.000  C
  N1       1.0000 0.61160  0.23610  0.49490  Biso   1.000  N
  N2       1.0000 0.38840  0.23610  0.00510  Biso   1.000  N
  N3       1.0000 0.11160  0.73610  0.49490  Biso   1.000  N
  N4       1.0000 0.88840  0.73610  0.00510  Biso   1.000  N
  N5       1.0000 0.38840  0.76390  0.50510  Biso   1.000  N
  N6       1.0000 0.61160  0.76390  0.99490  Biso   1.000  N
  N7       1.0000 0.88840  0.26390  0.50510  Biso   1.000  N
  N8       1.0000 0.11160  0.26390  0.99490  Biso   1.000  N
  C9       1.0000 0.54760  0.73480  0.43380  Biso   1.000  C
  C10      1.0000 0.45240  0.73480  0.06620  Biso   1.000  C
  C11      1.0000 0.04760  0.23480  0.43380  Biso   1.000  C
  C12      1.0000 0.95240  0.23480  0.06620  Biso   1.000  C
  C13      1.0000 0.45240  0.26520  0.56620  Biso   1.000  C
  C14      1.0000 0.54760  0.26520  0.93380  Biso   1.000  C
  C15      1.0000 0.95240  0.76520  0.56620  Biso   1.000  C
  C16      1.0000 0.04760  0.76520  0.93380  Biso   1.000  C
  N9       1.0000 0.59090  0.62140  0.46390  Biso   1.000  N
  N10      1.0000 0.40910  0.62140  0.03610  Biso   1.000  N
  N11      1.0000 0.09090  0.12140  0.46390  Biso   1.000  N
  N12      1.0000 0.90910  0.12140  0.03610  Biso   1.000  N
  N13      1.0000 0.40910  0.37860  0.53610  Biso   1.000  N
  N14      1.0000 0.59090  0.37860  0.96390  Biso   1.000  N
  N15      1.0000 0.90910  0.87860  0.53610  Biso   1.000  N
  N16      1.0000 0.09090  0.87860  0.96390  Biso   1.000  N
  N17      1.0000 0.86610  0.51990  0.75450  Biso   1.000  N
  N18      1.0000 0.13390  0.51990  0.74550  Biso   1.000  N
  N19      1.0000 0.36610  0.01990  0.75450  Biso   1.000  N
  N20      1.0000 0.63390  0.01990  0.74550  Biso   1.000  N
  N21      1.0000 0.13390  0.48010  0.24550  Biso   1.000  N
  N22      1.0000 0.86610  0.48010  0.25450  Biso   1.000  N
  N23      1.0000 0.63390  0.98010  0.24550  Biso   1.000  N
  N24      1.0000 0.36610  0.98010  0.25450  Biso   1.000  N
  C17      1.0000 0.79440  0.48340  0.67060  Biso   1.000  C
  C18      1.0000 0.20560  0.48340  0.82940  Biso   1.000  C
  C19      1.0000 0.29440  0.98340  0.67060  Biso   1.000  C
  C20      1.0000 0.70560  0.98340  0.82940  Biso   1.000  C
  C21      1.0000 0.20560  0.51660  0.32940  Biso   1.000  C
  C22      1.0000 0.79440  0.51660  0.17060  Biso   1.000  C
  C23      1.0000 0.70560  0.01660  0.32940  Biso   1.000  C
  C24      1.0000 0.29440  0.01660  0.17060  Biso   1.000  C
  N25      1.0000 0.69040  0.43210  0.40230  Biso   1.000  N
  N26      1.0000 0.30960  0.43210  0.09770  Biso   1.000  N
  N27      1.0000 0.19040  0.93210  0.40230  Biso   1.000  N
  N28      1.0000 0.80960  0.93210  0.09770  Biso   1.000  N
  N29      1.0000 0.30960  0.56790  0.59770  Biso   1.000  N
  N30      1.0000 0.69040  0.56790  0.90230  Biso   1.000  N
  N31      1.0000 0.80960  0.06790  0.59770  Biso   1.000  N
  N32      1.0000 0.19040  0.06790  0.90230  Biso   1.000  N
  C25      1.0000 0.72830  0.58510  0.40840  Biso   1.000  C
  C26      1.0000 0.27170  0.58510  0.09160  Biso   1.000  C
  C27      1.0000 0.22830  0.08510  0.40840  Biso   1.000  C
  C28      1.0000 0.77170  0.08510  0.09160  Biso   1.000  C
  C29      1.0000 0.27170  0.41490  0.59160  Biso   1.000  C
  C30      1.0000 0.72830  0.41490  0.90840  Biso   1.000  C
  C31      1.0000 0.77170  0.91490  0.59160  Biso   1.000  C
  C32      1.0000 0.22830  0.91490  0.90840  Biso   1.000  C
  C33      1.0000 0.73640  0.59990  0.32130  Biso   1.000  C
  C34      1.0000 0.26360  0.59990  0.17870  Biso   1.000  C
  C35      1.0000 0.23640  0.09990  0.32130  Biso   1.000  C
  C36      1.0000 0.76360  0.09990  0.17870  Biso   1.000  C
  C37      1.0000 0.26360  0.40010  0.67870  Biso   1.000  C
  C38      1.0000 0.73640  0.40010  0.82130  Biso   1.000  C
  C39      1.0000 0.76360  0.90010  0.67870  Biso   1.000  C
  C40      1.0000 0.23640  0.90010  0.82130  Biso   1.000  C
  N33      1.0000 0.64710  0.56970  0.20280  Biso   1.000  N
  N34      1.0000 0.35290  0.56970  0.29720  Biso   1.000  N
  N35      1.0000 0.14710  0.06970  0.20280  Biso   1.000  N
  N36      1.0000 0.85290  0.06970  0.29720  Biso   1.000  N
  N37      1.0000 0.35290  0.43030  0.79720  Biso   1.000  N
  N38      1.0000 0.64710  0.43030  0.70280  Biso   1.000  N
  N39      1.0000 0.85290  0.93030  0.79720  Biso   1.000  N
  N40      1.0000 0.14710  0.93030  0.70280  Biso   1.000  N
  C41      1.0000 0.61130  0.41020  0.19520  Biso   1.000  C
  C42      1.0000 0.38870  0.41020  0.30480  Biso   1.000  C
  C43      1.0000 0.11130  0.91020  0.19520  Biso   1.000  C
  C44      1.0000 0.88870  0.91020  0.30480  Biso   1.000  C
  C45      1.0000 0.38870  0.58980  0.80480  Biso   1.000  C
  C46      1.0000 0.61130  0.58980  0.69520  Biso   1.000  C
  C47      1.0000 0.88870  0.08980  0.80480  Biso   1.000  C
  C48      1.0000 0.11130  0.08980  0.69520  Biso   1.000  C
  C49      1.0000 0.60480  0.40060  0.28350  Biso   1.000  C
  C50      1.0000 0.39520  0.40060  0.21650  Biso   1.000  C
  C51      1.0000 0.10480  0.90060  0.28350  Biso   1.000  C
  C52      1.0000 0.89520  0.90060  0.21650  Biso   1.000  C
  C53      1.0000 0.39520  0.59940  0.71650  Biso   1.000  C
  C54      1.0000 0.60480  0.59940  0.78350  Biso   1.000  C
  C55      1.0000 0.89520  0.09940  0.71650  Biso   1.000  C
  C56      1.0000 0.10480  0.09940  0.78350  Biso   1.000  C
  H1       1.0000 0.73140  0.34930  0.42460  Biso   1.000  H
  H2       1.0000 0.26860  0.34930  0.07540  Biso   1.000  H
  H3       1.0000 0.23140  0.84930  0.42460  Biso   1.000  H
  H4       1.0000 0.76860  0.84930  0.07540  Biso   1.000  H
  H5       1.0000 0.26860  0.65070  0.57540  Biso   1.000  H
  H6       1.0000 0.73140  0.65070  0.92460  Biso   1.000  H
  H7       1.0000 0.76860  0.15070  0.57540  Biso   1.000  H
  H8       1.0000 0.23140  0.15070  0.92460  Biso   1.000  H
  H9       1.0000 0.69060  0.66900  0.39450  Biso   1.000  H
  H10      1.0000 0.30940  0.66900  0.10550  Biso   1.000  H
  H11      1.0000 0.19060  0.16900  0.39450  Biso   1.000  H
  H12      1.0000 0.80940  0.16900  0.10550  Biso   1.000  H
  H13      1.0000 0.30940  0.33100  0.60550  Biso   1.000  H
  H14      1.0000 0.69060  0.33100  0.89450  Biso   1.000  H
  H15      1.0000 0.80940  0.83100  0.60550  Biso   1.000  H
  H16      1.0000 0.19060  0.83100  0.89450  Biso   1.000  H
  H17      1.0000 0.78650  0.59640  0.48380  Biso   1.000  H
  H18      1.0000 0.21350  0.59640  0.01620  Biso   1.000  H
  H19      1.0000 0.28650  0.09640  0.48380  Biso   1.000  H
  H20      1.0000 0.71350  0.09640  0.01620  Biso   1.000  H
  H21      1.0000 0.21350  0.40360  0.51620  Biso   1.000  H
  H22      1.0000 0.78650  0.40360  0.98380  Biso   1.000  H
  H23      1.0000 0.71350  0.90360  0.51620  Biso   1.000  H
  H24      1.0000 0.28650  0.90360  0.98380  Biso   1.000  H
  H25      1.0000 0.75620  0.70470  0.32490  Biso   1.000  H
  H26      1.0000 0.24380  0.70470  0.17510  Biso   1.000  H
  H27      1.0000 0.25620  0.20470  0.32490  Biso   1.000  H
  H28      1.0000 0.74380  0.20470  0.17510  Biso   1.000  H
  H29      1.0000 0.24380  0.29530  0.67510  Biso   1.000  H
  H30      1.0000 0.75620  0.29530  0.82490  Biso   1.000  H
  H31      1.0000 0.74380  0.79530  0.67510  Biso   1.000  H
  H32      1.0000 0.25620  0.79530  0.82490  Biso   1.000  H
  H33      1.0000 0.77860  0.52370  0.33880  Biso   1.000  H
  H34      1.0000 0.22140  0.52370  0.16120  Biso   1.000  H
  H35      1.0000 0.27860  0.02370  0.33880  Biso   1.000  H
  H36      1.0000 0.72140  0.02370  0.16120  Biso   1.000  H
  H37      1.0000 0.22140  0.47630  0.66120  Biso   1.000  H
  H38      1.0000 0.77860  0.47630  0.83880  Biso   1.000  H
  H39      1.0000 0.72140  0.97630  0.66120  Biso   1.000  H
  H40      1.0000 0.27860  0.97630  0.83880  Biso   1.000  H
  H41      1.0000 0.60610  0.65010  0.18410  Biso   1.000  H
  H42      1.0000 0.39390  0.65010  0.31590  Biso   1.000  H
  H43      1.0000 0.10610  0.15010  0.18410  Biso   1.000  H
  H44      1.0000 0.89390  0.15010  0.31590  Biso   1.000  H
  H45      1.0000 0.39390  0.34990  0.81590  Biso   1.000  H
  H46      1.0000 0.60610  0.34990  0.68410  Biso   1.000  H
  H47      1.0000 0.89390  0.84990  0.81590  Biso   1.000  H
  H48      1.0000 0.10610  0.84990  0.68410  Biso   1.000  H
  H49      1.0000 0.65320  0.57390  0.14910  Biso   1.000  H
  H50      1.0000 0.34680  0.57390  0.35090  Biso   1.000  H
  H51      1.0000 0.15320  0.07390  0.14910  Biso   1.000  H
  H52      1.0000 0.84680  0.07390  0.35090  Biso   1.000  H
  H53      1.0000 0.34680  0.42610  0.85090  Biso   1.000  H
  H54      1.0000 0.65320  0.42610  0.64910  Biso   1.000  H
  H55      1.0000 0.84680  0.92610  0.85090  Biso   1.000  H
  H56      1.0000 0.15320  0.92610  0.64910  Biso   1.000  H
  H57      1.0000 0.55340  0.39570  0.11990  Biso   1.000  H
  H58      1.0000 0.44660  0.39570  0.38010  Biso   1.000  H
  H59      1.0000 0.05340  0.89570  0.11990  Biso   1.000  H
  H60      1.0000 0.94660  0.89570  0.38010  Biso   1.000  H
  H61      1.0000 0.44660  0.60430  0.88010  Biso   1.000  H
  H62      1.0000 0.55340  0.60430  0.61990  Biso   1.000  H
  H63      1.0000 0.94660  0.10430  0.88010  Biso   1.000  H
  H64      1.0000 0.05340  0.10430  0.61990  Biso   1.000  H
  H65      1.0000 0.65060  0.32890  0.21030  Biso   1.000  H
  H66      1.0000 0.34940  0.32890  0.28970  Biso   1.000  H
  H67      1.0000 0.15060  0.82890  0.21030  Biso   1.000  H
  H68      1.0000 0.84940  0.82890  0.28970  Biso   1.000  H
  H69      1.0000 0.34940  0.67110  0.78970  Biso   1.000  H
  H70      1.0000 0.65060  0.67110  0.71030  Biso   1.000  H
  H71      1.0000 0.84940  0.17110  0.78970  Biso   1.000  H
  H72      1.0000 0.15060  0.17110  0.71030  Biso   1.000  H
  H73      1.0000 0.58510  0.29620  0.28080  Biso   1.000  H
  H74      1.0000 0.41490  0.29620  0.21920  Biso   1.000  H
  H75      1.0000 0.08510  0.79620  0.28080  Biso   1.000  H
  H76      1.0000 0.91490  0.79620  0.21920  Biso   1.000  H
  H77      1.0000 0.41490  0.70380  0.71920  Biso   1.000  H
  H78      1.0000 0.58510  0.70380  0.78080  Biso   1.000  H
  H79      1.0000 0.91490  0.20380  0.71920  Biso   1.000  H
  H80      1.0000 0.08510  0.20380  0.78080  Biso   1.000  H
  H81      1.0000 0.56190  0.47710  0.26390  Biso   1.000  H
  H82      1.0000 0.43810  0.47710  0.23610  Biso   1.000  H
  H83      1.0000 0.06190  0.97710  0.26390  Biso   1.000  H
  H84      1.0000 0.93810  0.97710  0.23610  Biso   1.000  H
  H85      1.0000 0.43810  0.52290  0.73610  Biso   1.000  H
  H86      1.0000 0.56190  0.52290  0.76390  Biso   1.000  H
  H87      1.0000 0.93810  0.02290  0.73610  Biso   1.000  H
  H88      1.0000 0.06190  0.02290  0.76390  Biso   1.000  H
