data_image0
_cell_length_a       17.8819
_cell_length_b       6.919
_cell_length_c       8.6972
_cell_angle_alpha    90
_cell_angle_beta     96.72
_cell_angle_gamma    90

_symmetry_space_group_name_H-M    "P 1"
_symmetry_int_tables_number       1

loop_
  _symmetry_equiv_pos_as_xyz
  'x, y, z'

loop_
  _atom_site_label
  _atom_site_occupancy
  _atom_site_fract_x
  _atom_site_fract_y
  _atom_site_fract_z
  _atom_site_thermal_displace_type
  _atom_site_B_iso_or_equiv
  _atom_site_type_symbol
  Cu1      1.0000 0.05132  0.06508  0.42536  Biso   1.000  Cu
  Cu2      1.0000 0.94868  0.56508  0.07464  Biso   1.000  Cu
  Cu3      1.0000 0.94868  0.93492  0.57464  Biso   1.000  Cu
  Cu4      1.0000 0.05132  0.43492  0.92536  Biso   1.000  Cu
  N1       1.0000 0.04990  0.23190  0.24490  Biso   1.000  N
  N2       1.0000 0.95010  0.73190  0.25510  Biso   1.000  N
  N3       1.0000 0.95010  0.76810  0.75510  Biso   1.000  N
  N4       1.0000 0.04990  0.26810  0.74490  Biso   1.000  N
  C1       1.0000 0.95870  0.82850  0.36260  Biso   1.000  C
  C2       1.0000 0.04130  0.32850  0.13740  Biso   1.000  C
  C3       1.0000 0.04130  0.17150  0.63740  Biso   1.000  C
  C4       1.0000 0.95870  0.67150  0.86260  Biso   1.000  C
  N5       1.0000 0.14340  0.86450  0.46140  Biso   1.000  N
  N6       1.0000 0.85660  0.36450  0.03860  Biso   1.000  N
  N7       1.0000 0.85660  0.13550  0.53860  Biso   1.000  N
  N8       1.0000 0.14340  0.63550  0.96140  Biso   1.000  N
  N9       1.0000 0.24980  0.63440  0.66600  Biso   1.000  N
  N10      1.0000 0.75020  0.13440  0.83400  Biso   1.000  N
  N11      1.0000 0.75020  0.36560  0.33400  Biso   1.000  N
  N12      1.0000 0.24980  0.86560  0.16600  Biso   1.000  N
  C5       1.0000 0.12490  0.66820  0.51260  Biso   1.000  C
  C6       1.0000 0.87510  0.16820  0.98740  Biso   1.000  C
  C7       1.0000 0.87510  0.33180  0.48740  Biso   1.000  C
  C8       1.0000 0.12490  0.83180  0.01260  Biso   1.000  C
  C9       1.0000 0.19320  0.54080  0.55180  Biso   1.000  C
  C10      1.0000 0.80680  0.04080  0.94820  Biso   1.000  C
  C11      1.0000 0.80680  0.45920  0.44820  Biso   1.000  C
  C12      1.0000 0.19320  0.95920  0.05180  Biso   1.000  C
  C13      1.0000 0.27000  0.82460  0.61230  Biso   1.000  C
  C14      1.0000 0.73000  0.32460  0.88770  Biso   1.000  C
  C15      1.0000 0.73000  0.17540  0.38770  Biso   1.000  C
  C16      1.0000 0.27000  0.67540  0.11230  Biso   1.000  C
  C17      1.0000 0.20030  0.94830  0.57780  Biso   1.000  C
  C18      1.0000 0.79970  0.44830  0.92220  Biso   1.000  C
  C19      1.0000 0.79970  0.05170  0.42220  Biso   1.000  C
  C20      1.0000 0.20030  0.55170  0.07780  Biso   1.000  C
  C21      1.0000 0.31080  0.51520  0.73000  Biso   1.000  C
  C22      1.0000 0.68920  0.01520  0.77000  Biso   1.000  C
  C23      1.0000 0.68920  0.48480  0.27000  Biso   1.000  C
  C24      1.0000 0.31080  0.98480  0.23000  Biso   1.000  C
  C25      1.0000 0.29630  0.33660  0.79360  Biso   1.000  C
  C26      1.0000 0.70370  0.83660  0.70640  Biso   1.000  C
  C27      1.0000 0.70370  0.66340  0.20640  Biso   1.000  C
  C28      1.0000 0.29630  0.16340  0.29360  Biso   1.000  C
  C29      1.0000 0.35400  0.22660  0.86840  Biso   1.000  C
  C30      1.0000 0.64600  0.72660  0.63160  Biso   1.000  C
  C31      1.0000 0.64600  0.77340  0.13160  Biso   1.000  C
  C32      1.0000 0.35400  0.27340  0.36840  Biso   1.000  C
  C33      1.0000 0.42760  0.28910  0.88070  Biso   1.000  C
  C34      1.0000 0.57240  0.78910  0.61930  Biso   1.000  C
  C35      1.0000 0.57240  0.71090  0.11930  Biso   1.000  C
  C36      1.0000 0.42760  0.21090  0.38070  Biso   1.000  C
  C37      1.0000 0.44330  0.46370  0.81540  Biso   1.000  C
  C38      1.0000 0.55670  0.96370  0.68460  Biso   1.000  C
  C39      1.0000 0.55670  0.53630  0.18460  Biso   1.000  C
  C40      1.0000 0.44330  0.03630  0.31540  Biso   1.000  C
  C41      1.0000 0.38570  0.57690  0.73990  Biso   1.000  C
  C42      1.0000 0.61430  0.07690  0.76010  Biso   1.000  C
  C43      1.0000 0.61430  0.42310  0.26010  Biso   1.000  C
  C44      1.0000 0.38570  0.92310  0.23990  Biso   1.000  C
  H1       1.0000 0.16200  0.86300  0.37700  Biso   1.000  H
  H2       1.0000 0.83800  0.36300  0.12300  Biso   1.000  H
  H3       1.0000 0.83800  0.13700  0.62300  Biso   1.000  H
  H4       1.0000 0.16200  0.63700  0.87700  Biso   1.000  H
  H5       1.0000 0.09940  0.67960  0.60200  Biso   1.000  H
  H6       1.0000 0.90060  0.17960  0.89800  Biso   1.000  H
  H7       1.0000 0.90060  0.32040  0.39800  Biso   1.000  H
  H8       1.0000 0.09940  0.82040  0.10200  Biso   1.000  H
  H9       1.0000 0.09270  0.60830  0.43190  Biso   1.000  H
  H10      1.0000 0.90730  0.10830  0.06810  Biso   1.000  H
  H11      1.0000 0.90730  0.39170  0.56810  Biso   1.000  H
  H12      1.0000 0.09270  0.89170  0.93190  Biso   1.000  H
  H13      1.0000 0.21540  0.51530  0.45990  Biso   1.000  H
  H14      1.0000 0.78460  0.01530  0.04010  Biso   1.000  H
  H15      1.0000 0.78460  0.48470  0.54010  Biso   1.000  H
  H16      1.0000 0.21540  0.98470  0.95990  Biso   1.000  H
  H17      1.0000 0.17770  0.42260  0.59380  Biso   1.000  H
  H18      1.0000 0.82230  0.92260  0.90620  Biso   1.000  H
  H19      1.0000 0.82230  0.57740  0.40620  Biso   1.000  H
  H20      1.0000 0.17770  0.07740  0.09380  Biso   1.000  H
  H21      1.0000 0.30370  0.88520  0.69020  Biso   1.000  H
  H22      1.0000 0.69630  0.38520  0.80980  Biso   1.000  H
  H23      1.0000 0.69630  0.11480  0.30980  Biso   1.000  H
  H24      1.0000 0.30370  0.61480  0.19020  Biso   1.000  H
  H25      1.0000 0.29390  0.81080  0.52080  Biso   1.000  H
  H26      1.0000 0.70610  0.31080  0.97920  Biso   1.000  H
  H27      1.0000 0.70610  0.18920  0.47920  Biso   1.000  H
  H28      1.0000 0.29390  0.68920  0.02080  Biso   1.000  H
  H29      1.0000 0.21500  0.07030  0.54110  Biso   1.000  H
  H30      1.0000 0.78500  0.57030  0.95890  Biso   1.000  H
  H31      1.0000 0.78500  0.92970  0.45890  Biso   1.000  H
  H32      1.0000 0.21500  0.42970  0.04110  Biso   1.000  H
  H33      1.0000 0.17830  0.96560  0.67110  Biso   1.000  H
  H34      1.0000 0.82170  0.46560  0.82890  Biso   1.000  H
  H35      1.0000 0.82170  0.03440  0.32890  Biso   1.000  H
  H36      1.0000 0.17830  0.53440  0.17110  Biso   1.000  H
  H37      1.0000 0.24610  0.28960  0.78560  Biso   1.000  H
  H38      1.0000 0.75390  0.78960  0.71440  Biso   1.000  H
  H39      1.0000 0.75390  0.71040  0.21440  Biso   1.000  H
  H40      1.0000 0.24610  0.21040  0.28560  Biso   1.000  H
  H41      1.0000 0.34270  0.10570  0.91210  Biso   1.000  H
  H42      1.0000 0.65730  0.60570  0.58790  Biso   1.000  H
  H43      1.0000 0.65730  0.89430  0.08790  Biso   1.000  H
  H44      1.0000 0.34270  0.39430  0.41210  Biso   1.000  H
  H45      1.0000 0.46690  0.21320  0.93330  Biso   1.000  H
  H46      1.0000 0.53310  0.71320  0.56670  Biso   1.000  H
  H47      1.0000 0.53310  0.78680  0.06670  Biso   1.000  H
  H48      1.0000 0.46690  0.28680  0.43330  Biso   1.000  H
  H49      1.0000 0.49390  0.50760  0.82200  Biso   1.000  H
  H50      1.0000 0.50610  0.00760  0.67800  Biso   1.000  H
  H51      1.0000 0.50610  0.49240  0.17800  Biso   1.000  H
  H52      1.0000 0.49390  0.99240  0.32200  Biso   1.000  H
  H53      1.0000 0.39740  0.69650  0.69480  Biso   1.000  H
  H54      1.0000 0.60260  0.19650  0.80520  Biso   1.000  H
  H55      1.0000 0.60260  0.30350  0.30520  Biso   1.000  H
  H56      1.0000 0.39740  0.80350  0.19480  Biso   1.000  H
