data_image0
_cell_length_a       19.6227
_cell_length_b       10.6131
_cell_length_c       16.8353
_cell_angle_alpha    90
_cell_angle_beta     90
_cell_angle_gamma    90

_symmetry_space_group_name_H-M    "P 1"
_symmetry_int_tables_number       1

loop_
  _symmetry_equiv_pos_as_xyz
  'x, y, z'

loop_
  _atom_site_label
  _atom_site_occupancy
  _atom_site_fract_x
  _atom_site_fract_y
  _atom_site_fract_z
  _atom_site_thermal_displace_type
  _atom_site_B_iso_or_equiv
  _atom_site_type_symbol
  I1       1.0000 0.26228  0.60703  0.74273  Biso   1.000  I
  I2       1.0000 0.73772  0.39297  0.24273  Biso   1.000  I
  I3       1.0000 0.76228  0.89297  0.74273  Biso   1.000  I
  I4       1.0000 0.23772  0.10703  0.24273  Biso   1.000  I
  Cu1      1.0000 0.16448  0.72522  0.67127  Biso   1.000  Cu
  Cu2      1.0000 0.83552  0.27478  0.17127  Biso   1.000  Cu
  Cu3      1.0000 0.66448  0.77478  0.67127  Biso   1.000  Cu
  Cu4      1.0000 0.33552  0.22522  0.17127  Biso   1.000  Cu
  P1       1.0000 0.19255  0.89390  0.59802  Biso   1.000  P
  P2       1.0000 0.80745  0.10610  0.09802  Biso   1.000  P
  P3       1.0000 0.69255  0.60610  0.59802  Biso   1.000  P
  P4       1.0000 0.30745  0.39390  0.09802  Biso   1.000  P
  P5       1.0000 0.08804  0.62510  0.59469  Biso   1.000  P
  P6       1.0000 0.91196  0.37490  0.09469  Biso   1.000  P
  P7       1.0000 0.58804  0.87490  0.59469  Biso   1.000  P
  P8       1.0000 0.41196  0.12510  0.09469  Biso   1.000  P
  C1       1.0000 0.12400  0.93380  0.52610  Biso   1.000  C
  C2       1.0000 0.87600  0.06620  0.02610  Biso   1.000  C
  C3       1.0000 0.62400  0.56620  0.52610  Biso   1.000  C
  C4       1.0000 0.37600  0.43380  0.02610  Biso   1.000  C
  H1       1.0000 0.08620  0.97360  0.55600  Biso   1.000  H
  H2       1.0000 0.91380  0.02640  0.05600  Biso   1.000  H
  H3       1.0000 0.58620  0.52640  0.55600  Biso   1.000  H
  H4       1.0000 0.41380  0.47360  0.05600  Biso   1.000  H
  H5       1.0000 0.14210  0.99790  0.48900  Biso   1.000  H
  H6       1.0000 0.85790  0.00210  0.98900  Biso   1.000  H
  H7       1.0000 0.64210  0.50210  0.48900  Biso   1.000  H
  H8       1.0000 0.35790  0.49790  0.98900  Biso   1.000  H
  C5       1.0000 0.09370  0.82470  0.47610  Biso   1.000  C
  C6       1.0000 0.90630  0.17530  0.97610  Biso   1.000  C
  C7       1.0000 0.59370  0.67530  0.47610  Biso   1.000  C
  C8       1.0000 0.40630  0.32470  0.97610  Biso   1.000  C
  C9       1.0000 0.04620  0.73710  0.52420  Biso   1.000  C
  C10      1.0000 0.95380  0.26290  0.02420  Biso   1.000  C
  C11      1.0000 0.54620  0.76290  0.52420  Biso   1.000  C
  C12      1.0000 0.45380  0.23710  0.02420  Biso   1.000  C
  H9       1.0000 0.01870  0.68740  0.48620  Biso   1.000  H
  H10      1.0000 0.98130  0.31260  0.98620  Biso   1.000  H
  H11      1.0000 0.51870  0.81260  0.48620  Biso   1.000  H
  H12      1.0000 0.48130  0.18740  0.98620  Biso   1.000  H
  H13      1.0000 0.01430  0.79050  0.55480  Biso   1.000  H
  H14      1.0000 0.98570  0.20950  0.05480  Biso   1.000  H
  H15      1.0000 0.51430  0.70950  0.55480  Biso   1.000  H
  H16      1.0000 0.48570  0.29050  0.05480  Biso   1.000  H
  C13      1.0000 0.14910  0.75200  0.43440  Biso   1.000  C
  C14      1.0000 0.85090  0.24800  0.93440  Biso   1.000  C
  C15      1.0000 0.64910  0.74800  0.43440  Biso   1.000  C
  C16      1.0000 0.35090  0.25200  0.93440  Biso   1.000  C
  H17      1.0000 0.17810  0.81040  0.40460  Biso   1.000  H
  H18      1.0000 0.82190  0.18960  0.90460  Biso   1.000  H
  H19      1.0000 0.67810  0.68960  0.40460  Biso   1.000  H
  H20      1.0000 0.32190  0.31040  0.90460  Biso   1.000  H
  H21      1.0000 0.12850  0.69110  0.39780  Biso   1.000  H
  H22      1.0000 0.87150  0.30890  0.89780  Biso   1.000  H
  H23      1.0000 0.62850  0.80890  0.39780  Biso   1.000  H
  H24      1.0000 0.37150  0.19110  0.89780  Biso   1.000  H
  H25      1.0000 0.17670  0.70720  0.47380  Biso   1.000  H
  H26      1.0000 0.82330  0.29280  0.97380  Biso   1.000  H
  H27      1.0000 0.67670  0.79280  0.47380  Biso   1.000  H
  H28      1.0000 0.32330  0.20720  0.97380  Biso   1.000  H
  C17      1.0000 0.04970  0.88160  0.40860  Biso   1.000  C
  C18      1.0000 0.95030  0.11840  0.90860  Biso   1.000  C
  C19      1.0000 0.54970  0.61840  0.40860  Biso   1.000  C
  C20      1.0000 0.45030  0.38160  0.90860  Biso   1.000  C
  O1       1.0000 0.05300  0.84710  0.34240  Biso   1.000  O
  O2       1.0000 0.94700  0.15290  0.84240  Biso   1.000  O
  O3       1.0000 0.55300  0.65290  0.34240  Biso   1.000  O
  O4       1.0000 0.44700  0.34710  0.84240  Biso   1.000  O
  N1       1.0000 0.00490  0.97830  0.42970  Biso   1.000  N
  N2       1.0000 0.99510  0.02170  0.92970  Biso   1.000  N
  N3       1.0000 0.50490  0.52170  0.42970  Biso   1.000  N
  N4       1.0000 0.49510  0.47830  0.92970  Biso   1.000  N
  H29      1.0000 0.99930  0.99470  0.48050  Biso   1.000  H
  H30      1.0000 0.00070  0.00530  0.98050  Biso   1.000  H
  H31      1.0000 0.49930  0.50530  0.48050  Biso   1.000  H
  H32      1.0000 0.50070  0.49470  0.98050  Biso   1.000  H
  C21      1.0000 0.96840  0.05030  0.37500  Biso   1.000  C
  C22      1.0000 0.03160  0.94970  0.87500  Biso   1.000  C
  C23      1.0000 0.46840  0.44970  0.37500  Biso   1.000  C
  C24      1.0000 0.53160  0.55030  0.87500  Biso   1.000  C
  C25      1.0000 0.90410  0.09990  0.39290  Biso   1.000  C
  C26      1.0000 0.09590  0.90010  0.89290  Biso   1.000  C
  C27      1.0000 0.40410  0.40010  0.39290  Biso   1.000  C
  C28      1.0000 0.59590  0.59990  0.89290  Biso   1.000  C
  H33      1.0000 0.88370  0.08400  0.44310  Biso   1.000  H
  H34      1.0000 0.11630  0.91600  0.94310  Biso   1.000  H
  H35      1.0000 0.38370  0.41600  0.44310  Biso   1.000  H
  H36      1.0000 0.61630  0.58400  0.94310  Biso   1.000  H
  C29      1.0000 0.87140  0.17100  0.33790  Biso   1.000  C
  C30      1.0000 0.12860  0.82900  0.83790  Biso   1.000  C
  C31      1.0000 0.37140  0.32900  0.33790  Biso   1.000  C
  C32      1.0000 0.62860  0.67100  0.83790  Biso   1.000  C
  H37      1.0000 0.82800  0.20430  0.35170  Biso   1.000  H
  H38      1.0000 0.17200  0.79570  0.85170  Biso   1.000  H
  H39      1.0000 0.32800  0.29570  0.35170  Biso   1.000  H
  H40      1.0000 0.67200  0.70430  0.85170  Biso   1.000  H
  N5       1.0000 0.89570  0.19750  0.26550  Biso   1.000  N
  N6       1.0000 0.10430  0.80250  0.76550  Biso   1.000  N
  N7       1.0000 0.39570  0.30250  0.26550  Biso   1.000  N
  N8       1.0000 0.60430  0.69750  0.76550  Biso   1.000  N
  C33      1.0000 0.95780  0.15310  0.25030  Biso   1.000  C
  C34      1.0000 0.04220  0.84690  0.75030  Biso   1.000  C
  C35      1.0000 0.45780  0.34690  0.25030  Biso   1.000  C
  C36      1.0000 0.54220  0.65310  0.75030  Biso   1.000  C
  H41      1.0000 0.97690  0.17200  0.19980  Biso   1.000  H
  H42      1.0000 0.02310  0.82800  0.69980  Biso   1.000  H
  H43      1.0000 0.47690  0.32800  0.19980  Biso   1.000  H
  H44      1.0000 0.52310  0.67200  0.69980  Biso   1.000  H
  C37      1.0000 0.99630  0.08260  0.30140  Biso   1.000  C
  C38      1.0000 0.00370  0.91740  0.80140  Biso   1.000  C
  C39      1.0000 0.49630  0.41740  0.30140  Biso   1.000  C
  C40      1.0000 0.50370  0.58260  0.80140  Biso   1.000  C
  H45      1.0000 0.04090  0.05610  0.28710  Biso   1.000  H
  H46      1.0000 0.95910  0.94390  0.78710  Biso   1.000  H
  H47      1.0000 0.54090  0.44390  0.28710  Biso   1.000  H
  H48      1.0000 0.45910  0.55610  0.78710  Biso   1.000  H
  C41      1.0000 0.26950  0.88830  0.53530  Biso   1.000  C
  C42      1.0000 0.73050  0.11170  0.03530  Biso   1.000  C
  C43      1.0000 0.76950  0.61170  0.53530  Biso   1.000  C
  C44      1.0000 0.23050  0.38830  0.03530  Biso   1.000  C
  C45      1.0000 0.28730  0.98560  0.48410  Biso   1.000  C
  C46      1.0000 0.71270  0.01440  0.98410  Biso   1.000  C
  C47      1.0000 0.78730  0.51440  0.48410  Biso   1.000  C
  C48      1.0000 0.21270  0.48560  0.98410  Biso   1.000  C
  H49      1.0000 0.26310  0.06310  0.48570  Biso   1.000  H
  H50      1.0000 0.73690  0.93690  0.98570  Biso   1.000  H
  H51      1.0000 0.76310  0.43690  0.48570  Biso   1.000  H
  H52      1.0000 0.23690  0.56310  0.98570  Biso   1.000  H
  C49      1.0000 0.34050  0.96950  0.43060  Biso   1.000  C
  C50      1.0000 0.65950  0.03050  0.93060  Biso   1.000  C
  C51      1.0000 0.84050  0.53050  0.43060  Biso   1.000  C
  C52      1.0000 0.15950  0.46950  0.93060  Biso   1.000  C
  H53      1.0000 0.35270  0.03600  0.39560  Biso   1.000  H
  H54      1.0000 0.64730  0.96400  0.89560  Biso   1.000  H
  H55      1.0000 0.85270  0.46400  0.39560  Biso   1.000  H
  H56      1.0000 0.14730  0.53600  0.89560  Biso   1.000  H
  C53      1.0000 0.37590  0.85610  0.42820  Biso   1.000  C
  C54      1.0000 0.62410  0.14390  0.92820  Biso   1.000  C
  C55      1.0000 0.87590  0.64390  0.42820  Biso   1.000  C
  C56      1.0000 0.12410  0.35610  0.92820  Biso   1.000  C
  H57      1.0000 0.41230  0.84510  0.39160  Biso   1.000  H
  H58      1.0000 0.58770  0.15490  0.89160  Biso   1.000  H
  H59      1.0000 0.91230  0.65490  0.39160  Biso   1.000  H
  H60      1.0000 0.08770  0.34510  0.89160  Biso   1.000  H
  C57      1.0000 0.35810  0.75880  0.47950  Biso   1.000  C
  C58      1.0000 0.64190  0.24120  0.97950  Biso   1.000  C
  C59      1.0000 0.85810  0.74120  0.47950  Biso   1.000  C
  C60      1.0000 0.14190  0.25880  0.97950  Biso   1.000  C
  H61      1.0000 0.38230  0.68130  0.47790  Biso   1.000  H
  H62      1.0000 0.61770  0.31870  0.97790  Biso   1.000  H
  H63      1.0000 0.88230  0.81870  0.47790  Biso   1.000  H
  H64      1.0000 0.11770  0.18130  0.97790  Biso   1.000  H
  C61      1.0000 0.30490  0.77490  0.53300  Biso   1.000  C
  C62      1.0000 0.69510  0.22510  0.03300  Biso   1.000  C
  C63      1.0000 0.80490  0.72510  0.53300  Biso   1.000  C
  C64      1.0000 0.19510  0.27490  0.03300  Biso   1.000  C
  H65      1.0000 0.29270  0.70840  0.56800  Biso   1.000  H
  H66      1.0000 0.70730  0.29160  0.06800  Biso   1.000  H
  H67      1.0000 0.79270  0.79160  0.56800  Biso   1.000  H
  H68      1.0000 0.20730  0.20840  0.06800  Biso   1.000  H
  C65      1.0000 0.20140  0.03930  0.65820  Biso   1.000  C
  C66      1.0000 0.79860  0.96070  0.15820  Biso   1.000  C
  C67      1.0000 0.70140  0.46070  0.65820  Biso   1.000  C
  C68      1.0000 0.29860  0.53930  0.15820  Biso   1.000  C
  C69      1.0000 0.18220  0.15900  0.63330  Biso   1.000  C
  C70      1.0000 0.81780  0.84100  0.13330  Biso   1.000  C
  C71      1.0000 0.68220  0.34100  0.63330  Biso   1.000  C
  C72      1.0000 0.31780  0.65900  0.13330  Biso   1.000  C
  H69      1.0000 0.16460  0.17120  0.58140  Biso   1.000  H
  H70      1.0000 0.83540  0.82880  0.08140  Biso   1.000  H
  H71      1.0000 0.66460  0.32880  0.58140  Biso   1.000  H
  H72      1.0000 0.33540  0.67120  0.08140  Biso   1.000  H
  C73      1.0000 0.18890  0.26100  0.68460  Biso   1.000  C
  C74      1.0000 0.81110  0.73900  0.18460  Biso   1.000  C
  C75      1.0000 0.68890  0.23900  0.68460  Biso   1.000  C
  C76      1.0000 0.31110  0.76100  0.18460  Biso   1.000  C
  H73      1.0000 0.17580  0.34290  0.66760  Biso   1.000  H
  H74      1.0000 0.82420  0.65710  0.16760  Biso   1.000  H
  H75      1.0000 0.67580  0.15710  0.66760  Biso   1.000  H
  H76      1.0000 0.32420  0.84290  0.16760  Biso   1.000  H
  C77      1.0000 0.21470  0.24320  0.76060  Biso   1.000  C
  C78      1.0000 0.78530  0.75680  0.26060  Biso   1.000  C
  C79      1.0000 0.71470  0.25680  0.76060  Biso   1.000  C
  C80      1.0000 0.28530  0.74320  0.26060  Biso   1.000  C
  H77      1.0000 0.21930  0.31290  0.79560  Biso   1.000  H
  H78      1.0000 0.78070  0.68710  0.29560  Biso   1.000  H
  H79      1.0000 0.71930  0.18710  0.79560  Biso   1.000  H
  H80      1.0000 0.28070  0.81290  0.29560  Biso   1.000  H
  C81      1.0000 0.23390  0.12350  0.78540  Biso   1.000  C
  C82      1.0000 0.76610  0.87650  0.28540  Biso   1.000  C
  C83      1.0000 0.73390  0.37650  0.78540  Biso   1.000  C
  C84      1.0000 0.26610  0.62350  0.28540  Biso   1.000  C
  H81      1.0000 0.25160  0.11130  0.83740  Biso   1.000  H
  H82      1.0000 0.74840  0.88870  0.33740  Biso   1.000  H
  H83      1.0000 0.75160  0.38870  0.83740  Biso   1.000  H
  H84      1.0000 0.24840  0.61130  0.33740  Biso   1.000  H
  C85      1.0000 0.22730  0.02150  0.73420  Biso   1.000  C
  C86      1.0000 0.77270  0.97850  0.23420  Biso   1.000  C
  C87      1.0000 0.72730  0.47850  0.73420  Biso   1.000  C
  C88      1.0000 0.27270  0.52150  0.23420  Biso   1.000  C
  H85      1.0000 0.24040  0.93960  0.75120  Biso   1.000  H
  H86      1.0000 0.75960  0.06040  0.25120  Biso   1.000  H
  H87      1.0000 0.74040  0.56040  0.75120  Biso   1.000  H
  H88      1.0000 0.25960  0.43960  0.25120  Biso   1.000  H
  C89      1.0000 0.01680  0.56660  0.65400  Biso   1.000  C
  C90      1.0000 0.98320  0.43340  0.15400  Biso   1.000  C
  C91      1.0000 0.51680  0.93340  0.65400  Biso   1.000  C
  C92      1.0000 0.48320  0.06660  0.15400  Biso   1.000  C
  C93      1.0000 0.03410  0.51430  0.72700  Biso   1.000  C
  C94      1.0000 0.96590  0.48570  0.22700  Biso   1.000  C
  C95      1.0000 0.53410  0.98570  0.72700  Biso   1.000  C
  C96      1.0000 0.46590  0.01430  0.22700  Biso   1.000  C
  H89      1.0000 0.08070  0.50620  0.74160  Biso   1.000  H
  H90      1.0000 0.91930  0.49380  0.24160  Biso   1.000  H
  H91      1.0000 0.58070  0.99380  0.74160  Biso   1.000  H
  H92      1.0000 0.41930  0.00620  0.24160  Biso   1.000  H
  C97      1.0000 0.98330  0.47380  0.77850  Biso   1.000  C
  C98      1.0000 0.01670  0.52620  0.27850  Biso   1.000  C
  C99      1.0000 0.48330  0.02620  0.77850  Biso   1.000  C
  C100     1.0000 0.51670  0.97380  0.27850  Biso   1.000  C
  H93      1.0000 0.99510  0.43800  0.82840  Biso   1.000  H
  H94      1.0000 0.00490  0.56200  0.32840  Biso   1.000  H
  H95      1.0000 0.49510  0.06200  0.82840  Biso   1.000  H
  H96      1.0000 0.50490  0.93800  0.32840  Biso   1.000  H
  C101     1.0000 0.91520  0.48560  0.75710  Biso   1.000  C
  C102     1.0000 0.08480  0.51440  0.25710  Biso   1.000  C
  C103     1.0000 0.41520  0.01440  0.75710  Biso   1.000  C
  C104     1.0000 0.58480  0.98560  0.25710  Biso   1.000  C
  H97      1.0000 0.88050  0.45800  0.79230  Biso   1.000  H
  H98      1.0000 0.11950  0.54200  0.29230  Biso   1.000  H
  H99      1.0000 0.38050  0.04200  0.79230  Biso   1.000  H
  H100     1.0000 0.61950  0.95800  0.29230  Biso   1.000  H
  C105     1.0000 0.89790  0.53800  0.68420  Biso   1.000  C
  C106     1.0000 0.10210  0.46200  0.18420  Biso   1.000  C
  C107     1.0000 0.39790  0.96200  0.68420  Biso   1.000  C
  C108     1.0000 0.60210  0.03800  0.18420  Biso   1.000  C
  H101     1.0000 0.85140  0.54610  0.66950  Biso   1.000  H
  H102     1.0000 0.14860  0.45390  0.16950  Biso   1.000  H
  H103     1.0000 0.35140  0.95390  0.66950  Biso   1.000  H
  H104     1.0000 0.64860  0.04610  0.16950  Biso   1.000  H
  C109     1.0000 0.94870  0.57850  0.63260  Biso   1.000  C
  C110     1.0000 0.05130  0.42150  0.13260  Biso   1.000  C
  C111     1.0000 0.44870  0.92150  0.63260  Biso   1.000  C
  C112     1.0000 0.55130  0.07850  0.13260  Biso   1.000  C
  H105     1.0000 0.93690  0.61420  0.58270  Biso   1.000  H
  H106     1.0000 0.06310  0.38580  0.08270  Biso   1.000  H
  H107     1.0000 0.43690  0.88580  0.58270  Biso   1.000  H
  H108     1.0000 0.56310  0.11420  0.08270  Biso   1.000  H
  C113     1.0000 0.10910  0.49180  0.52950  Biso   1.000  C
  C114     1.0000 0.89090  0.50820  0.02950  Biso   1.000  C
  C115     1.0000 0.60910  0.00820  0.52950  Biso   1.000  C
  C116     1.0000 0.39090  0.99180  0.02950  Biso   1.000  C
  C117     1.0000 0.05930  0.42510  0.48850  Biso   1.000  C
  C118     1.0000 0.94070  0.57490  0.98850  Biso   1.000  C
  C119     1.0000 0.55930  0.07490  0.48850  Biso   1.000  C
  C120     1.0000 0.44070  0.92510  0.98850  Biso   1.000  C
  H109     1.0000 0.01260  0.44470  0.49600  Biso   1.000  H
  H110     1.0000 0.98740  0.55530  0.99600  Biso   1.000  H
  H111     1.0000 0.51260  0.05530  0.49600  Biso   1.000  H
  H112     1.0000 0.48740  0.94470  0.99600  Biso   1.000  H
  C121     1.0000 0.07810  0.32960  0.43630  Biso   1.000  C
  C122     1.0000 0.92190  0.67040  0.93630  Biso   1.000  C
  C123     1.0000 0.57810  0.17040  0.43630  Biso   1.000  C
  C124     1.0000 0.42190  0.82960  0.93630  Biso   1.000  C
  H113     1.0000 0.04410  0.28400  0.40820  Biso   1.000  H
  H114     1.0000 0.95590  0.71600  0.90820  Biso   1.000  H
  H115     1.0000 0.54410  0.21600  0.40820  Biso   1.000  H
  H116     1.0000 0.45590  0.78400  0.90820  Biso   1.000  H
  C125     1.0000 0.14650  0.30090  0.42520  Biso   1.000  C
  C126     1.0000 0.85350  0.69910  0.92520  Biso   1.000  C
  C127     1.0000 0.64650  0.19910  0.42520  Biso   1.000  C
  C128     1.0000 0.35350  0.80090  0.92520  Biso   1.000  C
  H117     1.0000 0.15930  0.23570  0.38950  Biso   1.000  H
  H118     1.0000 0.84070  0.76430  0.88950  Biso   1.000  H
  H119     1.0000 0.65930  0.26430  0.38950  Biso   1.000  H
  H120     1.0000 0.34070  0.73570  0.88950  Biso   1.000  H
  C129     1.0000 0.19620  0.36760  0.46620  Biso   1.000  C
  C130     1.0000 0.80380  0.63240  0.96620  Biso   1.000  C
  C131     1.0000 0.69620  0.13240  0.46620  Biso   1.000  C
  C132     1.0000 0.30380  0.86760  0.96620  Biso   1.000  C
  H121     1.0000 0.24300  0.34800  0.45860  Biso   1.000  H
  H122     1.0000 0.75700  0.65200  0.95860  Biso   1.000  H
  H123     1.0000 0.74300  0.15200  0.45860  Biso   1.000  H
  H124     1.0000 0.25700  0.84800  0.95860  Biso   1.000  H
  C133     1.0000 0.17750  0.46310  0.51840  Biso   1.000  C
  C134     1.0000 0.82250  0.53690  0.01840  Biso   1.000  C
  C135     1.0000 0.67750  0.03690  0.51840  Biso   1.000  C
  C136     1.0000 0.32250  0.96310  0.01840  Biso   1.000  C
  H125     1.0000 0.21150  0.50860  0.54650  Biso   1.000  H
  H126     1.0000 0.78850  0.49140  0.04650  Biso   1.000  H
  H127     1.0000 0.71150  0.99140  0.54650  Biso   1.000  H
  H128     1.0000 0.28850  0.00860  0.04650  Biso   1.000  H
  S1       1.0000 0.92833  0.07890  0.64989  Biso   1.000  S
  S2       1.0000 0.07167  0.92110  0.14989  Biso   1.000  S
  S3       1.0000 0.42833  0.42110  0.64989  Biso   1.000  S
  S4       1.0000 0.57167  0.57890  0.14989  Biso   1.000  S
  O5       1.0000 0.94400  0.00450  0.57770  Biso   1.000  O
  O6       1.0000 0.05600  0.99550  0.07770  Biso   1.000  O
  O7       1.0000 0.44400  0.49550  0.57770  Biso   1.000  O
  O8       1.0000 0.55600  0.50450  0.07770  Biso   1.000  O
  C137     1.0000 0.86310  0.18300  0.62620  Biso   1.000  C
  C138     1.0000 0.13690  0.81700  0.12620  Biso   1.000  C
  C139     1.0000 0.36310  0.31700  0.62620  Biso   1.000  C
  C140     1.0000 0.63690  0.68300  0.12620  Biso   1.000  C
  H129     1.0000 0.82070  0.13590  0.61800  Biso   1.000  H
  H130     1.0000 0.17930  0.86410  0.11800  Biso   1.000  H
  H131     1.0000 0.32070  0.36410  0.61800  Biso   1.000  H
  H132     1.0000 0.67930  0.63590  0.11800  Biso   1.000  H
  H133     1.0000 0.87480  0.22860  0.57750  Biso   1.000  H
  H134     1.0000 0.12520  0.77140  0.07750  Biso   1.000  H
  H135     1.0000 0.37480  0.27140  0.57750  Biso   1.000  H
  H136     1.0000 0.62520  0.72860  0.07750  Biso   1.000  H
  H137     1.0000 0.85690  0.24310  0.66980  Biso   1.000  H
  H138     1.0000 0.14310  0.75690  0.16980  Biso   1.000  H
  H139     1.0000 0.35690  0.25690  0.66980  Biso   1.000  H
  H140     1.0000 0.64310  0.74310  0.16980  Biso   1.000  H
  C141     1.0000 0.99730  0.18760  0.66010  Biso   1.000  C
  C142     1.0000 0.00270  0.81240  0.16010  Biso   1.000  C
  C143     1.0000 0.49730  0.31240  0.66010  Biso   1.000  C
  C144     1.0000 0.50270  0.68760  0.16010  Biso   1.000  C
  H141     1.0000 0.03890  0.14170  0.67460  Biso   1.000  H
  H142     1.0000 0.96110  0.85830  0.17460  Biso   1.000  H
  H143     1.0000 0.53890  0.35830  0.67460  Biso   1.000  H
  H144     1.0000 0.46110  0.64170  0.17460  Biso   1.000  H
  H145     1.0000 0.98650  0.24900  0.70170  Biso   1.000  H
  H146     1.0000 0.01350  0.75100  0.20170  Biso   1.000  H
  H147     1.0000 0.48650  0.25100  0.70170  Biso   1.000  H
  H148     1.0000 0.51350  0.74900  0.20170  Biso   1.000  H
  H149     1.0000 0.00450  0.23170  0.60960  Biso   1.000  H
  H150     1.0000 0.99550  0.76830  0.10960  Biso   1.000  H
  H151     1.0000 0.50450  0.26830  0.60960  Biso   1.000  H
  H152     1.0000 0.49550  0.73170  0.10960  Biso   1.000  H
