data_image0
_cell_length_a       10.384
_cell_length_b       12.773
_cell_length_c       9.984
_cell_angle_alpha    98.24
_cell_angle_beta     110.72
_cell_angle_gamma    83.75

_symmetry_space_group_name_H-M    "P 1"
_symmetry_int_tables_number       1

loop_
  _symmetry_equiv_pos_as_xyz
  'x, y, z'

loop_
  _atom_site_label
  _atom_site_occupancy
  _atom_site_fract_x
  _atom_site_fract_y
  _atom_site_fract_z
  _atom_site_thermal_displace_type
  _atom_site_B_iso_or_equiv
  _atom_site_type_symbol
  Cu1      1.0000 0.53892  0.28746  0.02719  Biso   1.000  Cu
  Cu2      1.0000 0.46108  0.71254  0.97281  Biso   1.000  Cu
  Cl1      1.0000 0.04723  0.22886  0.59830  Biso   1.000  Cl
  Cl2      1.0000 0.95277  0.77114  0.40170  Biso   1.000  Cl
  S1       1.0000 0.54159  0.13818  0.16410  Biso   1.000  S
  S2       1.0000 0.45841  0.86182  0.83590  Biso   1.000  S
  S3       1.0000 0.71510  0.94828  0.11360  Biso   1.000  S
  S4       1.0000 0.28490  0.05172  0.88640  Biso   1.000  S
  O1       1.0000 0.02450  0.17900  0.70660  Biso   1.000  O
  O2       1.0000 0.97550  0.82100  0.29340  Biso   1.000  O
  O3       1.0000 0.06120  0.15240  0.48620  Biso   1.000  O
  O4       1.0000 0.93880  0.84760  0.51380  Biso   1.000  O
  O5       1.0000 0.93310  0.30090  0.54080  Biso   1.000  O
  O6       1.0000 0.06690  0.69910  0.45920  Biso   1.000  O
  O7       1.0000 0.16920  0.28280  0.66140  Biso   1.000  O
  O8       1.0000 0.83080  0.71720  0.33860  Biso   1.000  O
  N1       1.0000 0.72570  0.33840  0.12850  Biso   1.000  N
  N2       1.0000 0.27430  0.66160  0.87150  Biso   1.000  N
  N3       1.0000 0.53800  0.29620  0.46400  Biso   1.000  N
  N4       1.0000 0.46200  0.70380  0.53600  Biso   1.000  N
  N5       1.0000 0.63000  0.62890  0.97470  Biso   1.000  N
  N6       1.0000 0.37000  0.37110  0.02530  Biso   1.000  N
  N7       1.0000 0.53360  0.21040  0.83870  Biso   1.000  N
  N8       1.0000 0.46640  0.78960  0.16130  Biso   1.000  N
  C1       1.0000 0.84250  0.33920  0.17810  Biso   1.000  C
  C2       1.0000 0.15750  0.66080  0.82190  Biso   1.000  C
  C3       1.0000 0.99140  0.33280  0.23610  Biso   1.000  C
  C4       1.0000 0.00860  0.66720  0.76390  Biso   1.000  C
  C5       1.0000 0.06260  0.24830  0.18100  Biso   1.000  C
  C6       1.0000 0.93740  0.75170  0.81900  Biso   1.000  C
  C7       1.0000 0.20440  0.24240  0.24210  Biso   1.000  C
  C8       1.0000 0.79560  0.75760  0.75790  Biso   1.000  C
  C9       1.0000 0.27240  0.31680  0.35470  Biso   1.000  C
  C10      1.0000 0.72760  0.68320  0.64530  Biso   1.000  C
  C11      1.0000 0.20130  0.40110  0.40990  Biso   1.000  C
  C12      1.0000 0.79870  0.59890  0.59010  Biso   1.000  C
  C13      1.0000 0.05980  0.40830  0.34660  Biso   1.000  C
  C14      1.0000 0.94020  0.59170  0.65340  Biso   1.000  C
  C15      1.0000 0.42110  0.30580  0.41670  Biso   1.000  C
  C16      1.0000 0.57890  0.69420  0.58330  Biso   1.000  C
  C17      1.0000 0.98720  0.16650  0.06160  Biso   1.000  C
  C18      1.0000 0.01280  0.83350  0.93840  Biso   1.000  C
  C19      1.0000 0.27470  0.47710  0.53590  Biso   1.000  C
  C20      1.0000 0.72530  0.52290  0.46410  Biso   1.000  C
  C21      1.0000 0.55390  0.01800  0.05640  Biso   1.000  C
  C22      1.0000 0.44610  0.98200  0.94360  Biso   1.000  C
  C23      1.0000 0.78710  0.03970  0.26190  Biso   1.000  C
  C24      1.0000 0.21290  0.96030  0.73810  Biso   1.000  C
  C25      1.0000 0.71060  0.12430  0.28560  Biso   1.000  C
  C26      1.0000 0.28940  0.87570  0.71440  Biso   1.000  C
  C27      1.0000 0.52490  0.15080  0.74010  Biso   1.000  C
  C28      1.0000 0.47510  0.84920  0.25990  Biso   1.000  C
  C29      1.0000 0.51350  0.07290  0.61690  Biso   1.000  C
  C30      1.0000 0.48650  0.92710  0.38310  Biso   1.000  C
  C31      1.0000 0.63320  0.02180  0.59930  Biso   1.000  C
  C32      1.0000 0.36680  0.97820  0.40070  Biso   1.000  C
  C33      1.0000 0.38290  0.05270  0.51980  Biso   1.000  C
  C34      1.0000 0.61710  0.94730  0.48020  Biso   1.000  C
  C35      1.0000 0.77420  0.04600  0.70570  Biso   1.000  C
  C36      1.0000 0.22580  0.95400  0.29430  Biso   1.000  C
  C37      1.0000 0.73590  0.59080  0.98180  Biso   1.000  C
  C38      1.0000 0.26410  0.40920  0.01820  Biso   1.000  C
  C39      1.0000 0.87120  0.54320  0.98930  Biso   1.000  C
  C40      1.0000 0.12880  0.45680  0.01070  Biso   1.000  C
  C41      1.0000 0.88100  0.45020  0.90010  Biso   1.000  C
  C42      1.0000 0.11900  0.54980  0.09990  Biso   1.000  C
  C43      1.0000 0.01350  0.40800  0.91310  Biso   1.000  C
  C44      1.0000 0.98650  0.59200  0.08690  Biso   1.000  C
  C45      1.0000 0.75640  0.39780  0.79420  Biso   1.000  C
  C46      1.0000 0.24360  0.60220  0.20580  Biso   1.000  C
  H1       1.0000 0.25440  0.17900  0.20460  Biso   1.000  H
  H2       1.0000 0.74560  0.82100  0.79540  Biso   1.000  H
  H3       1.0000 0.00080  0.47530  0.36890  Biso   1.000  H
  H4       1.0000 0.99920  0.52470  0.63110  Biso   1.000  H
  H5       1.0000 0.88990  0.18240  0.03200  Biso   1.000  H
  H6       1.0000 0.11010  0.81760  0.96800  Biso   1.000  H
  H7       1.0000 0.01560  0.16400  0.98010  Biso   1.000  H
  H8       1.0000 0.98440  0.83600  0.01990  Biso   1.000  H
  H9       1.0000 0.00620  0.09710  0.09390  Biso   1.000  H
  H10      1.0000 0.99380  0.90290  0.90610  Biso   1.000  H
  H11      1.0000 0.37290  0.45990  0.56650  Biso   1.000  H
  H12      1.0000 0.62710  0.54010  0.43350  Biso   1.000  H
  H13      1.0000 0.25830  0.54800  0.51170  Biso   1.000  H
  H14      1.0000 0.74170  0.45200  0.48830  Biso   1.000  H
  H15      1.0000 0.24550  0.47350  0.61570  Biso   1.000  H
  H16      1.0000 0.75450  0.52650  0.38430  Biso   1.000  H
  H17      1.0000 0.87800  0.02430  0.31380  Biso   1.000  H
  H18      1.0000 0.12200  0.97570  0.68620  Biso   1.000  H
  H19      1.0000 0.73440  0.18820  0.35930  Biso   1.000  H
  H20      1.0000 0.26560  0.81180  0.64070  Biso   1.000  H
  H21      1.0000 0.29690  0.09300  0.54080  Biso   1.000  H
  H22      1.0000 0.70310  0.90700  0.45920  Biso   1.000  H
  H23      1.0000 0.84440  0.00380  0.67730  Biso   1.000  H
  H24      1.0000 0.15560  0.99620  0.32270  Biso   1.000  H
  H25      1.0000 0.78290  0.03060  0.79980  Biso   1.000  H
  H26      1.0000 0.21710  0.96940  0.20020  Biso   1.000  H
  H27      1.0000 0.79010  0.11890  0.71140  Biso   1.000  H
  H28      1.0000 0.20990  0.88110  0.28860  Biso   1.000  H
  H29      1.0000 0.03210  0.33580  0.86000  Biso   1.000  H
  H30      1.0000 0.96790  0.66420  0.14000  Biso   1.000  H
  H31      1.0000 0.70220  0.44450  0.72590  Biso   1.000  H
  H32      1.0000 0.29780  0.55550  0.27410  Biso   1.000  H
  H33      1.0000 0.69940  0.37810  0.84320  Biso   1.000  H
  H34      1.0000 0.30060  0.62190  0.15680  Biso   1.000  H
  H35      1.0000 0.78280  0.33470  0.74300  Biso   1.000  H
  H36      1.0000 0.21720  0.66530  0.25700  Biso   1.000  H
