data_image0
_cell_length_a       11.124
_cell_length_b       15.709
_cell_length_c       11.337
_cell_angle_alpha    90
_cell_angle_beta     106.48
_cell_angle_gamma    90

_symmetry_space_group_name_H-M    "P 1"
_symmetry_int_tables_number       1

loop_
  _symmetry_equiv_pos_as_xyz
  'x, y, z'

loop_
  _atom_site_label
  _atom_site_occupancy
  _atom_site_fract_x
  _atom_site_fract_y
  _atom_site_fract_z
  _atom_site_thermal_displace_type
  _atom_site_B_iso_or_equiv
  _atom_site_type_symbol
  Cu1      1.0000 0.76105  0.12696  0.03342  Biso   1.000  Cu
  Cu2      1.0000 0.23895  0.62696  0.46658  Biso   1.000  Cu
  Cu3      1.0000 0.23895  0.87304  0.96658  Biso   1.000  Cu
  Cu4      1.0000 0.76105  0.37304  0.53342  Biso   1.000  Cu
  S1       1.0000 0.28990  0.22243  0.60633  Biso   1.000  S
  S2       1.0000 0.71010  0.72243  0.89367  Biso   1.000  S
  S3       1.0000 0.71010  0.77757  0.39367  Biso   1.000  S
  S4       1.0000 0.28990  0.27757  0.10633  Biso   1.000  S
  O1       1.0000 0.33620  0.22587  0.74000  Biso   1.000  O
  O2       1.0000 0.66380  0.72587  0.76000  Biso   1.000  O
  O3       1.0000 0.66380  0.77413  0.26000  Biso   1.000  O
  O4       1.0000 0.33620  0.27413  0.24000  Biso   1.000  O
  O5       1.0000 0.37440  0.26158  0.54750  Biso   1.000  O
  O6       1.0000 0.62560  0.76158  0.95250  Biso   1.000  O
  O7       1.0000 0.62560  0.73842  0.45250  Biso   1.000  O
  O8       1.0000 0.37440  0.23842  0.04750  Biso   1.000  O
  O9       1.0000 0.16220  0.25185  0.56070  Biso   1.000  O
  O10      1.0000 0.83780  0.75185  0.93930  Biso   1.000  O
  O11      1.0000 0.83780  0.74815  0.43930  Biso   1.000  O
  O12      1.0000 0.16220  0.24815  0.06070  Biso   1.000  O
  O13      1.0000 0.97600  0.99983  0.31740  Biso   1.000  O
  O14      1.0000 0.02400  0.49983  0.18260  Biso   1.000  O
  O15      1.0000 0.02400  0.00017  0.68260  Biso   1.000  O
  O16      1.0000 0.97600  0.50017  0.81740  Biso   1.000  O
  O17      1.0000 0.07890  0.87715  0.33290  Biso   1.000  O
  O18      1.0000 0.92110  0.37715  0.16710  Biso   1.000  O
  O19      1.0000 0.92110  0.12285  0.66710  Biso   1.000  O
  O20      1.0000 0.07890  0.62285  0.83290  Biso   1.000  O
  H1       1.0000 0.01360  0.86150  0.28320  Biso   1.000  H
  H2       1.0000 0.98640  0.36150  0.21680  Biso   1.000  H
  H3       1.0000 0.98640  0.13850  0.71680  Biso   1.000  H
  H4       1.0000 0.01360  0.63850  0.78320  Biso   1.000  H
  O21      1.0000 0.59100  0.95330  0.73560  Biso   1.000  O
  O22      1.0000 0.40900  0.45330  0.76440  Biso   1.000  O
  O23      1.0000 0.40900  0.04670  0.26440  Biso   1.000  O
  O24      1.0000 0.59100  0.54670  0.23560  Biso   1.000  O
  O25      1.0000 0.49120  0.84242  0.62770  Biso   1.000  O
  O26      1.0000 0.50880  0.34242  0.87230  Biso   1.000  O
  O27      1.0000 0.50880  0.15758  0.37230  Biso   1.000  O
  O28      1.0000 0.49120  0.65758  0.12770  Biso   1.000  O
  H5       1.0000 0.54800  0.81530  0.67450  Biso   1.000  H
  H6       1.0000 0.45200  0.31530  0.82550  Biso   1.000  H
  H7       1.0000 0.45200  0.18470  0.32550  Biso   1.000  H
  H8       1.0000 0.54800  0.68470  0.17450  Biso   1.000  H
  N1       1.0000 0.75970  0.20714  0.89000  Biso   1.000  N
  N2       1.0000 0.24030  0.70714  0.61000  Biso   1.000  N
  N3       1.0000 0.24030  0.79286  0.11000  Biso   1.000  N
  N4       1.0000 0.75970  0.29286  0.39000  Biso   1.000  N
  N5       1.0000 0.76540  0.30509  0.68550  Biso   1.000  N
  N6       1.0000 0.23460  0.80509  0.81450  Biso   1.000  N
  N7       1.0000 0.23460  0.69491  0.31450  Biso   1.000  N
  N8       1.0000 0.76540  0.19491  0.18550  Biso   1.000  N
  N9       1.0000 0.90300  0.04938  0.02040  Biso   1.000  N
  N10      1.0000 0.09700  0.54938  0.47960  Biso   1.000  N
  N11      1.0000 0.09700  0.95062  0.97960  Biso   1.000  N
  N12      1.0000 0.90300  0.45062  0.52040  Biso   1.000  N
  N13      1.0000 0.60420  0.05176  0.00940  Biso   1.000  N
  N14      1.0000 0.39580  0.55176  0.49060  Biso   1.000  N
  N15      1.0000 0.39580  0.94824  0.99060  Biso   1.000  N
  N16      1.0000 0.60420  0.44824  0.50940  Biso   1.000  N
  C1       1.0000 0.28620  0.11220  0.56840  Biso   1.000  C
  C2       1.0000 0.71380  0.61220  0.93160  Biso   1.000  C
  C3       1.0000 0.71380  0.88780  0.43160  Biso   1.000  C
  C4       1.0000 0.28620  0.38780  0.06840  Biso   1.000  C
  C5       1.0000 0.18390  0.07790  0.48280  Biso   1.000  C
  C6       1.0000 0.81610  0.57790  0.01720  Biso   1.000  C
  C7       1.0000 0.81610  0.92210  0.51720  Biso   1.000  C
  C8       1.0000 0.18390  0.42210  0.98280  Biso   1.000  C
  H9       1.0000 0.11520  0.11200  0.44600  Biso   1.000  H
  H10      1.0000 0.88480  0.61200  0.05400  Biso   1.000  H
  H11      1.0000 0.88480  0.88800  0.55400  Biso   1.000  H
  H12      1.0000 0.11520  0.38800  0.94600  Biso   1.000  H
  C9       1.0000 0.18320  0.99230  0.45120  Biso   1.000  C
  C10      1.0000 0.81680  0.49230  0.04880  Biso   1.000  C
  C11      1.0000 0.81680  0.00770  0.54880  Biso   1.000  C
  C12      1.0000 0.18320  0.50770  0.95120  Biso   1.000  C
  C13      1.0000 0.28680  0.94120  0.50700  Biso   1.000  C
  C14      1.0000 0.71320  0.44120  0.99300  Biso   1.000  C
  C15      1.0000 0.71320  0.05880  0.49300  Biso   1.000  C
  C16      1.0000 0.28680  0.55880  0.00700  Biso   1.000  C
  H13      1.0000 0.28710  0.88400  0.48600  Biso   1.000  H
  H14      1.0000 0.71290  0.38400  0.01400  Biso   1.000  H
  H15      1.0000 0.71290  0.11600  0.51400  Biso   1.000  H
  H16      1.0000 0.28710  0.61600  0.98600  Biso   1.000  H
  C17      1.0000 0.38920  0.97600  0.59380  Biso   1.000  C
  C18      1.0000 0.61080  0.47600  0.90620  Biso   1.000  C
  C19      1.0000 0.61080  0.02400  0.40620  Biso   1.000  C
  C20      1.0000 0.38920  0.52400  0.09380  Biso   1.000  C
  C21      1.0000 0.38760  0.06130  0.62370  Biso   1.000  C
  C22      1.0000 0.61240  0.56130  0.87630  Biso   1.000  C
  C23      1.0000 0.61240  0.93870  0.37630  Biso   1.000  C
  C24      1.0000 0.38760  0.43870  0.12370  Biso   1.000  C
  H17      1.0000 0.45600  0.08460  0.68210  Biso   1.000  H
  H18      1.0000 0.54400  0.58460  0.81790  Biso   1.000  H
  H19      1.0000 0.54400  0.91540  0.31790  Biso   1.000  H
  H20      1.0000 0.45600  0.41540  0.18210  Biso   1.000  H
  C25      1.0000 0.06870  0.95750  0.36060  Biso   1.000  C
  C26      1.0000 0.93130  0.45750  0.13940  Biso   1.000  C
  C27      1.0000 0.93130  0.04250  0.63940  Biso   1.000  C
  C28      1.0000 0.06870  0.54250  0.86060  Biso   1.000  C
  C29      1.0000 0.50090  0.92390  0.66040  Biso   1.000  C
  C30      1.0000 0.49910  0.42390  0.83960  Biso   1.000  C
  C31      1.0000 0.49910  0.07610  0.33960  Biso   1.000  C
  C32      1.0000 0.50090  0.57610  0.16040  Biso   1.000  C
  C33      1.0000 0.84850  0.26390  0.89380  Biso   1.000  C
  C34      1.0000 0.15150  0.76390  0.60620  Biso   1.000  C
  C35      1.0000 0.15150  0.73610  0.10620  Biso   1.000  C
  C36      1.0000 0.84850  0.23610  0.39380  Biso   1.000  C
  H21      1.0000 0.91160  0.27130  0.96700  Biso   1.000  H
  H22      1.0000 0.08840  0.77130  0.53300  Biso   1.000  H
  H23      1.0000 0.08840  0.72870  0.03300  Biso   1.000  H
  H24      1.0000 0.91160  0.22870  0.46700  Biso   1.000  H
  C37      1.0000 0.67420  0.20080  0.78110  Biso   1.000  C
  C38      1.0000 0.32580  0.70080  0.71890  Biso   1.000  C
  C39      1.0000 0.32580  0.79920  0.21890  Biso   1.000  C
  C40      1.0000 0.67420  0.29920  0.28110  Biso   1.000  C
  H25      1.0000 0.60960  0.16160  0.77260  Biso   1.000  H
  H26      1.0000 0.39040  0.66160  0.72740  Biso   1.000  H
  H27      1.0000 0.39040  0.83840  0.22740  Biso   1.000  H
  H28      1.0000 0.60960  0.33840  0.27260  Biso   1.000  H
  C41      1.0000 0.85100  0.31220  0.79370  Biso   1.000  C
  C42      1.0000 0.14900  0.81220  0.70630  Biso   1.000  C
  C43      1.0000 0.14900  0.68780  0.20630  Biso   1.000  C
  C44      1.0000 0.85100  0.18780  0.29370  Biso   1.000  C
  H29      1.0000 0.91540  0.35160  0.80200  Biso   1.000  H
  H30      1.0000 0.08460  0.85160  0.69800  Biso   1.000  H
  H31      1.0000 0.08460  0.64840  0.19800  Biso   1.000  H
  H32      1.0000 0.91540  0.14840  0.30200  Biso   1.000  H
  C45      1.0000 0.67650  0.24880  0.68150  Biso   1.000  C
  C46      1.0000 0.32350  0.74880  0.81850  Biso   1.000  C
  C47      1.0000 0.32350  0.75120  0.31850  Biso   1.000  C
  C48      1.0000 0.67650  0.25120  0.18150  Biso   1.000  C
  H33      1.0000 0.61320  0.24160  0.60840  Biso   1.000  H
  H34      1.0000 0.38680  0.74160  0.89160  Biso   1.000  H
  H35      1.0000 0.38680  0.75840  0.39160  Biso   1.000  H
  H36      1.0000 0.61320  0.25840  0.10840  Biso   1.000  H
  C49      1.0000 0.02400  0.06680  0.07460  Biso   1.000  C
  C50      1.0000 0.97600  0.56680  0.42540  Biso   1.000  C
  C51      1.0000 0.97600  0.93320  0.92540  Biso   1.000  C
  C52      1.0000 0.02400  0.43320  0.57460  Biso   1.000  C
  H37      1.0000 0.04420  0.11320  0.12730  Biso   1.000  H
  H38      1.0000 0.95580  0.61320  0.37270  Biso   1.000  H
  H39      1.0000 0.95580  0.88680  0.87270  Biso   1.000  H
  H40      1.0000 0.04420  0.38680  0.62730  Biso   1.000  H
  C53      1.0000 0.88110  0.98160  0.94510  Biso   1.000  C
  C54      1.0000 0.11890  0.48160  0.55490  Biso   1.000  C
  C55      1.0000 0.11890  0.01840  0.05490  Biso   1.000  C
  C56      1.0000 0.88110  0.51840  0.44510  Biso   1.000  C
  H41      1.0000 0.79860  0.96700  0.90490  Biso   1.000  H
  H42      1.0000 0.20140  0.46700  0.59510  Biso   1.000  H
  H43      1.0000 0.20140  0.03300  0.09510  Biso   1.000  H
  H44      1.0000 0.79860  0.53300  0.40490  Biso   1.000  H
  C57      1.0000 0.61460  0.97210  0.05270  Biso   1.000  C
  C58      1.0000 0.38540  0.47210  0.44730  Biso   1.000  C
  C59      1.0000 0.38540  0.02790  0.94730  Biso   1.000  C
  C60      1.0000 0.61460  0.52790  0.55270  Biso   1.000  C
  H45      1.0000 0.69410  0.95050  0.09060  Biso   1.000  H
  H46      1.0000 0.30590  0.45050  0.40940  Biso   1.000  H
  H47      1.0000 0.30590  0.04950  0.90940  Biso   1.000  H
  H48      1.0000 0.69410  0.54950  0.59060  Biso   1.000  H
  C61      1.0000 0.48770  0.07880  0.95700  Biso   1.000  C
  C62      1.0000 0.51230  0.57880  0.54300  Biso   1.000  C
  C63      1.0000 0.51230  0.92120  0.04300  Biso   1.000  C
  C64      1.0000 0.48770  0.42120  0.45700  Biso   1.000  C
  H49      1.0000 0.47550  0.13390  0.92600  Biso   1.000  H
  H50      1.0000 0.52450  0.63390  0.57400  Biso   1.000  H
  H51      1.0000 0.52450  0.86610  0.07400  Biso   1.000  H
  H52      1.0000 0.47550  0.36610  0.42600  Biso   1.000  H
  O29      1.0000 0.88370  0.81180  0.17970  Biso   1.000  O
  O30      1.0000 0.11630  0.31180  0.32030  Biso   1.000  O
  O31      1.0000 0.11630  0.18820  0.82030  Biso   1.000  O
  O32      1.0000 0.88370  0.68820  0.67970  Biso   1.000  O
  H53      1.0000 0.87100  0.79500  0.10800  Biso   1.000  H
  H54      1.0000 0.12900  0.29500  0.39200  Biso   1.000  H
  H55      1.0000 0.12900  0.20500  0.89200  Biso   1.000  H
  H56      1.0000 0.87100  0.70500  0.60800  Biso   1.000  H
  H57      1.0000 0.83400  0.79200  0.21500  Biso   1.000  H
  H58      1.0000 0.16600  0.29200  0.28500  Biso   1.000  H
  H59      1.0000 0.16600  0.20800  0.78500  Biso   1.000  H
  H60      1.0000 0.83400  0.70800  0.71500  Biso   1.000  H
