data_image0
_cell_length_a       8.6585
_cell_length_b       9.4173
_cell_length_c       10.8453
_cell_angle_alpha    102.214
_cell_angle_beta     95.596
_cell_angle_gamma    115.843

_symmetry_space_group_name_H-M    "P 1"
_symmetry_int_tables_number       1

loop_
  _symmetry_equiv_pos_as_xyz
  'x, y, z'

loop_
  _atom_site_label
  _atom_site_occupancy
  _atom_site_fract_x
  _atom_site_fract_y
  _atom_site_fract_z
  _atom_site_thermal_displace_type
  _atom_site_B_iso_or_equiv
  _atom_site_type_symbol
  Cu1      1.0000 0.18412  0.15263  0.86986  Biso   1.000  Cu
  Cu2      1.0000 0.81588  0.84737  0.13014  Biso   1.000  Cu
  Cu3      1.0000 0.58357  0.60455  0.24124  Biso   1.000  Cu
  Cu4      1.0000 0.41643  0.39545  0.75876  Biso   1.000  Cu
  Cu5      1.0000 0.26457  0.82922  0.50107  Biso   1.000  Cu
  Cu6      1.0000 0.73543  0.17078  0.49893  Biso   1.000  Cu
  Cu7      1.0000 0.00000  0.50000  0.50000  Biso   1.000  Cu
  C1       1.0000 0.52310  0.52870  0.05490  Biso   1.000  C
  C2       1.0000 0.47690  0.47130  0.94510  Biso   1.000  C
  C3       1.0000 0.35480  0.72460  0.39090  Biso   1.000  C
  C4       1.0000 0.64520  0.27540  0.60910  Biso   1.000  C
  C5       1.0000 0.20550  0.03810  0.71740  Biso   1.000  C
  C6       1.0000 0.79450  0.96190  0.28260  Biso   1.000  C
  C7       1.0000 0.85300  0.55160  0.40870  Biso   1.000  C
  C8       1.0000 0.14700  0.44840  0.59130  Biso   1.000  C
  C9       1.0000 0.36490  0.11510  0.10970  Biso   1.000  C
  C10      1.0000 0.63510  0.88490  0.89030  Biso   1.000  C
  H1       1.0000 0.41850  0.07040  0.05480  Biso   1.000  H
  H2       1.0000 0.58150  0.92960  0.94520  Biso   1.000  H
  C11      1.0000 0.40960  0.13700  0.23920  Biso   1.000  C
  C12      1.0000 0.59040  0.86300  0.76080  Biso   1.000  C
  H3       1.0000 0.49130  0.10750  0.27140  Biso   1.000  H
  H4       1.0000 0.50870  0.89250  0.72860  Biso   1.000  H
  C13      1.0000 0.33160  0.20330  0.32070  Biso   1.000  C
  C14      1.0000 0.66840  0.79670  0.67930  Biso   1.000  C
  H5       1.0000 0.36080  0.22040  0.40930  Biso   1.000  H
  H6       1.0000 0.63920  0.77960  0.59070  Biso   1.000  H
  C15      1.0000 0.21060  0.24420  0.27080  Biso   1.000  C
  C16      1.0000 0.78940  0.75580  0.72920  Biso   1.000  C
  H7       1.0000 0.15630  0.28900  0.32490  Biso   1.000  H
  H8       1.0000 0.84370  0.71100  0.67510  Biso   1.000  H
  C17      1.0000 0.16970  0.21800  0.13800  Biso   1.000  C
  C18      1.0000 0.83030  0.78200  0.86200  Biso   1.000  C
  C19      1.0000 0.04040  0.25770  0.07460  Biso   1.000  C
  C20      1.0000 0.95960  0.74230  0.92540  Biso   1.000  C
  C21      1.0000 0.93240  0.30580  0.13880  Biso   1.000  C
  C22      1.0000 0.06760  0.69420  0.86120  Biso   1.000  C
  H9       1.0000 0.94130  0.31750  0.22690  Biso   1.000  H
  H10      1.0000 0.05870  0.68250  0.77310  Biso   1.000  H
  C23      1.0000 0.81250  0.33610  0.07190  Biso   1.000  C
  C24      1.0000 0.18750  0.66390  0.92810  Biso   1.000  C
  H11      1.0000 0.74080  0.36980  0.11450  Biso   1.000  H
  H12      1.0000 0.25920  0.63020  0.88550  Biso   1.000  H
  C25      1.0000 0.79960  0.31630  0.94190  Biso   1.000  C
  C26      1.0000 0.20040  0.68370  0.05810  Biso   1.000  C
  H13      1.0000 0.71760  0.33400  0.89430  Biso   1.000  H
  H14      1.0000 0.28240  0.66600  0.10570  Biso   1.000  H
  C27      1.0000 0.91080  0.26960  0.88330  Biso   1.000  C
  C28      1.0000 0.08920  0.73040  0.11670  Biso   1.000  C
  H15      1.0000 0.90380  0.25860  0.79540  Biso   1.000  H
  H16      1.0000 0.09620  0.74140  0.20460  Biso   1.000  H
  N1       1.0000 0.42660  0.66750  0.33130  Biso   1.000  N
  N2       1.0000 0.57340  0.33250  0.66870  Biso   1.000  N
  N3       1.0000 0.21450  0.95460  0.62830  Biso   1.000  N
  N4       1.0000 0.78550  0.04540  0.37170  Biso   1.000  N
  N5       1.0000 0.75740  0.57790  0.34920  Biso   1.000  N
  N6       1.0000 0.24260  0.42210  0.65080  Biso   1.000  N
  N7       1.0000 0.24760  0.15500  0.05780  Biso   1.000  N
  N8       1.0000 0.75240  0.84500  0.94220  Biso   1.000  N
  N9       1.0000 0.02850  0.23930  0.94670  Biso   1.000  N
  N10      1.0000 0.97150  0.76070  0.05330  Biso   1.000  N
