data_image0
_cell_length_a       14.5861
_cell_length_b       27.3532
_cell_length_c       16.4118
_cell_angle_alpha    90
_cell_angle_beta     90.35
_cell_angle_gamma    90

_symmetry_space_group_name_H-M    "P 1"
_symmetry_int_tables_number       1

loop_
  _symmetry_equiv_pos_as_xyz
  'x, y, z'

loop_
  _atom_site_label
  _atom_site_occupancy
  _atom_site_fract_x
  _atom_site_fract_y
  _atom_site_fract_z
  _atom_site_thermal_displace_type
  _atom_site_B_iso_or_equiv
  _atom_site_type_symbol
  Si1      1.0000 0.76100  0.12670  0.79390  Biso   1.000  Si
  Si2      1.0000 0.73900  0.62670  0.70610  Biso   1.000  Si
  Si3      1.0000 0.23900  0.87330  0.20610  Biso   1.000  Si
  Si4      1.0000 0.26100  0.37330  0.29390  Biso   1.000  Si
  W1       1.0000 0.88490  0.05422  0.65570  Biso   1.000  W
  W2       1.0000 0.61510  0.55422  0.84430  Biso   1.000  W
  W3       1.0000 0.11510  0.94578  0.34430  Biso   1.000  W
  W4       1.0000 0.38490  0.44578  0.15570  Biso   1.000  W
  W5       1.0000 0.00096  0.13862  0.76829  Biso   1.000  W
  W6       1.0000 0.49904  0.63862  0.73171  Biso   1.000  W
  W7       1.0000 0.99904  0.86138  0.23171  Biso   1.000  W
  W8       1.0000 0.50096  0.36138  0.26829  Biso   1.000  W
  W9       1.0000 0.85909  0.17562  0.61540  Biso   1.000  W
  W10      1.0000 0.64091  0.67562  0.88460  Biso   1.000  W
  W11      1.0000 0.14091  0.82438  0.38460  Biso   1.000  W
  W12      1.0000 0.35909  0.32438  0.11540  Biso   1.000  W
  W13      1.0000 0.90462  0.08708  0.95445  Biso   1.000  W
  W14      1.0000 0.59538  0.58708  0.54555  Biso   1.000  W
  W15      1.0000 0.09538  0.91292  0.04555  Biso   1.000  W
  W16      1.0000 0.40462  0.41292  0.45445  Biso   1.000  W
  W17      1.0000 0.52142  0.11352  0.80837  Biso   1.000  W
  W18      1.0000 0.97858  0.61352  0.69163  Biso   1.000  W
  W19      1.0000 0.47858  0.88648  0.19163  Biso   1.000  W
  W20      1.0000 0.02142  0.38648  0.30837  Biso   1.000  W
  W21      1.0000 0.67653  0.07514  0.97622  Biso   1.000  W
  W22      1.0000 0.82347  0.57514  0.52378  Biso   1.000  W
  W23      1.0000 0.32347  0.92486  0.02378  Biso   1.000  W
  W24      1.0000 0.17653  0.42486  0.47622  Biso   1.000  W
  W25      1.0000 0.63703  0.03993  0.67759  Biso   1.000  W
  W26      1.0000 0.86297  0.53993  0.82241  Biso   1.000  W
  W27      1.0000 0.36297  0.96007  0.32241  Biso   1.000  W
  W28      1.0000 0.13703  0.46007  0.17759  Biso   1.000  W
  W29      1.0000 0.87361  0.21675  0.90886  Biso   1.000  W
  W30      1.0000 0.62639  0.71675  0.59114  Biso   1.000  W
  W31      1.0000 0.12639  0.78325  0.09114  Biso   1.000  W
  W32      1.0000 0.37361  0.28325  0.40886  Biso   1.000  W
  W33      1.0000 0.73150  0.25350  0.75716  Biso   1.000  W
  W34      1.0000 0.76850  0.75350  0.74284  Biso   1.000  W
  W35      1.0000 0.26850  0.74650  0.24284  Biso   1.000  W
  W36      1.0000 0.23150  0.24650  0.25716  Biso   1.000  W
  W37      1.0000 0.61174  0.16030  0.63593  Biso   1.000  W
  W38      1.0000 0.88826  0.66030  0.86407  Biso   1.000  W
  W39      1.0000 0.38826  0.83970  0.36407  Biso   1.000  W
  W40      1.0000 0.11174  0.33970  0.13593  Biso   1.000  W
  W41      1.0000 0.64418  0.20527  0.93055  Biso   1.000  W
  W42      1.0000 0.85582  0.70527  0.56945  Biso   1.000  W
  W43      1.0000 0.35582  0.79473  0.06945  Biso   1.000  W
  W44      1.0000 0.14418  0.29473  0.43055  Biso   1.000  W
  W45      1.0000 0.79163  0.00237  0.84462  Biso   1.000  W
  W46      1.0000 0.70837  0.50237  0.65538  Biso   1.000  W
  W47      1.0000 0.20837  0.99763  0.15538  Biso   1.000  W
  W48      1.0000 0.29163  0.49763  0.34462  Biso   1.000  W
  O1       1.0000 0.77960  0.08790  0.86920  Biso   1.000  O
  O2       1.0000 0.72040  0.58790  0.63080  Biso   1.000  O
  O3       1.0000 0.22040  0.91210  0.13080  Biso   1.000  O
  O4       1.0000 0.27960  0.41210  0.36920  Biso   1.000  O
  O5       1.0000 0.66670  0.11430  0.74780  Biso   1.000  O
  O6       1.0000 0.83330  0.61430  0.75220  Biso   1.000  O
  O7       1.0000 0.33330  0.88570  0.25220  Biso   1.000  O
  O8       1.0000 0.16670  0.38570  0.24780  Biso   1.000  O
  O9       1.0000 0.84550  0.12440  0.73190  Biso   1.000  O
  O10      1.0000 0.65450  0.62440  0.76810  Biso   1.000  O
  O11      1.0000 0.15450  0.87560  0.26810  Biso   1.000  O
  O12      1.0000 0.34550  0.37560  0.23190  Biso   1.000  O
  O13      1.0000 0.75480  0.18150  0.83380  Biso   1.000  O
  O14      1.0000 0.74520  0.68150  0.66620  Biso   1.000  O
  O15      1.0000 0.24520  0.81850  0.16620  Biso   1.000  O
  O16      1.0000 0.25480  0.31850  0.33380  Biso   1.000  O
  O17      1.0000 0.58230  0.07900  0.89510  Biso   1.000  O
  O18      1.0000 0.91770  0.57900  0.60490  Biso   1.000  O
  O19      1.0000 0.41770  0.92100  0.10490  Biso   1.000  O
  O20      1.0000 0.08230  0.42100  0.39510  Biso   1.000  O
  O21      1.0000 0.99180  0.07980  0.02380  Biso   1.000  O
  O22      1.0000 0.50820  0.57980  0.47620  Biso   1.000  O
  O23      1.0000 0.00820  0.92020  0.97620  Biso   1.000  O
  O24      1.0000 0.49180  0.42020  0.52380  Biso   1.000  O
  O25      1.0000 0.64860  0.25620  0.84900  Biso   1.000  O
  O26      1.0000 0.85140  0.75620  0.65100  Biso   1.000  O
  O27      1.0000 0.35140  0.74380  0.15100  Biso   1.000  O
  O28      1.0000 0.14860  0.24380  0.34900  Biso   1.000  O
  O29      1.0000 0.53250  0.05550  0.74410  Biso   1.000  O
  O30      1.0000 0.96750  0.55550  0.75590  Biso   1.000  O
  O31      1.0000 0.46750  0.94450  0.25590  Biso   1.000  O
  O32      1.0000 0.03250  0.44450  0.24410  Biso   1.000  O
  O33      1.0000 0.69140  0.01000  0.77260  Biso   1.000  O
  O34      1.0000 0.80860  0.51000  0.72740  Biso   1.000  O
  O35      1.0000 0.30860  0.99000  0.22740  Biso   1.000  O
  O36      1.0000 0.19140  0.49000  0.27260  Biso   1.000  O
  O37      1.0000 0.55290  0.18500  0.55640  Biso   1.000  O
  O38      1.0000 0.94710  0.68500  0.94360  Biso   1.000  O
  O39      1.0000 0.44710  0.81500  0.44360  Biso   1.000  O
  O40      1.0000 0.05290  0.31500  0.05640  Biso   1.000  O
  O41      1.0000 0.71500  0.31060  0.72000  Biso   1.000  O
  O42      1.0000 0.78500  0.81060  0.78000  Biso   1.000  O
  O43      1.0000 0.28500  0.68940  0.28000  Biso   1.000  O
  O44      1.0000 0.21500  0.18940  0.22000  Biso   1.000  O
  O45      1.0000 0.95390  0.19290  0.82860  Biso   1.000  O
  O46      1.0000 0.54610  0.69290  0.67140  Biso   1.000  O
  O47      1.0000 0.04610  0.80710  0.17140  Biso   1.000  O
  O48      1.0000 0.45390  0.30710  0.32860  Biso   1.000  O
  O49      1.0000 0.11560  0.14690  0.77630  Biso   1.000  O
  O50      1.0000 0.38440  0.64690  0.72370  Biso   1.000  O
  O51      1.0000 0.88440  0.85310  0.22370  Biso   1.000  O
  O52      1.0000 0.61560  0.35310  0.27630  Biso   1.000  O
  O53      1.0000 0.94350  0.25140  0.96630  Biso   1.000  O
  O54      1.0000 0.55650  0.75140  0.53370  Biso   1.000  O
  O55      1.0000 0.05650  0.74860  0.03370  Biso   1.000  O
  O56      1.0000 0.44350  0.24860  0.46630  Biso   1.000  O
  O57      1.0000 0.81750  0.22700  0.68500  Biso   1.000  O
  O58      1.0000 0.68250  0.72700  0.81500  Biso   1.000  O
  O59      1.0000 0.18250  0.77300  0.31500  Biso   1.000  O
  O60      1.0000 0.31750  0.27300  0.18500  Biso   1.000  O
  O61      1.0000 0.83090  0.26640  0.83240  Biso   1.000  O
  O62      1.0000 0.66910  0.76640  0.66760  Biso   1.000  O
  O63      1.0000 0.16910  0.73360  0.16760  Biso   1.000  O
  O64      1.0000 0.33090  0.23360  0.33240  Biso   1.000  O
  O65      1.0000 0.75850  0.04620  0.63860  Biso   1.000  O
  O66      1.0000 0.74150  0.54620  0.86140  Biso   1.000  O
  O67      1.0000 0.24150  0.95380  0.36140  Biso   1.000  O
  O68      1.0000 0.25850  0.45380  0.13860  Biso   1.000  O
  O69      1.0000 0.41170  0.11050  0.83930  Biso   1.000  O
  O70      1.0000 0.08830  0.61050  0.66070  Biso   1.000  O
  O71      1.0000 0.58830  0.88950  0.16070  Biso   1.000  O
  O72      1.0000 0.91170  0.38950  0.33930  Biso   1.000  O
  O73      1.0000 0.89010  0.02170  0.91750  Biso   1.000  O
  O74      1.0000 0.60990  0.52170  0.58250  Biso   1.000  O
  O75      1.0000 0.10990  0.97830  0.08250  Biso   1.000  O
  O76      1.0000 0.39010  0.47830  0.41750  Biso   1.000  O
  O77      1.0000 0.66880  0.14430  0.98150  Biso   1.000  O
  O78      1.0000 0.83120  0.64430  0.51850  Biso   1.000  O
  O79      1.0000 0.33120  0.85570  0.01850  Biso   1.000  O
  O80      1.0000 0.16880  0.35570  0.48150  Biso   1.000  O
  O81      1.0000 0.60320  0.09290  0.60820  Biso   1.000  O
  O82      1.0000 0.89680  0.59290  0.89180  Biso   1.000  O
  O83      1.0000 0.39680  0.90710  0.39180  Biso   1.000  O
  O84      1.0000 0.10320  0.40710  0.10820  Biso   1.000  O
  O85      1.0000 0.93470  0.01180  0.59620  Biso   1.000  O
  O86      1.0000 0.56530  0.51180  0.90380  Biso   1.000  O
  O87      1.0000 0.06530  0.98820  0.40380  Biso   1.000  O
  O88      1.0000 0.43470  0.48820  0.09620  Biso   1.000  O
  O89      1.0000 0.88330  0.10960  0.58320  Biso   1.000  O
  O90      1.0000 0.61670  0.60960  0.91680  Biso   1.000  O
  O91      1.0000 0.11670  0.89040  0.41680  Biso   1.000  O
  O92      1.0000 0.38330  0.39040  0.08320  Biso   1.000  O
  O93      1.0000 0.88710  0.15530  0.96270  Biso   1.000  O
  O94      1.0000 0.61290  0.65530  0.53730  Biso   1.000  O
  O95      1.0000 0.11290  0.84470  0.03730  Biso   1.000  O
  O96      1.0000 0.38710  0.34470  0.46270  Biso   1.000  O
  O97      1.0000 0.99480  0.08140  0.70450  Biso   1.000  O
  O98      1.0000 0.50520  0.58140  0.79550  Biso   1.000  O
  O99      1.0000 0.00520  0.91860  0.29550  Biso   1.000  O
  O100     1.0000 0.49480  0.41860  0.20450  Biso   1.000  O
  O101     1.0000 0.88930  0.20500  0.53120  Biso   1.000  O
  O102     1.0000 0.61070  0.70500  0.96880  Biso   1.000  O
  O103     1.0000 0.11070  0.79500  0.46880  Biso   1.000  O
  O104     1.0000 0.38930  0.29500  0.03120  Biso   1.000  O
  O105     1.0000 0.51280  0.15090  0.71210  Biso   1.000  O
  O106     1.0000 0.98720  0.65090  0.78790  Biso   1.000  O
  O107     1.0000 0.48720  0.84910  0.28790  Biso   1.000  O
  O108     1.0000 0.01280  0.34910  0.21210  Biso   1.000  O
  O109     1.0000 0.61990  0.05940  0.06100  Biso   1.000  O
  O110     1.0000 0.88010  0.55940  0.43900  Biso   1.000  O
  O111     1.0000 0.38010  0.94060  0.93900  Biso   1.000  O
  O112     1.0000 0.11990  0.44060  0.56100  Biso   1.000  O
  O113     1.0000 0.76200  0.22850  0.96850  Biso   1.000  O
  O114     1.0000 0.73800  0.72850  0.53150  Biso   1.000  O
  O115     1.0000 0.23800  0.77150  0.03150  Biso   1.000  O
  O116     1.0000 0.26200  0.27150  0.46850  Biso   1.000  O
  O117     1.0000 0.64270  0.21630  0.69950  Biso   1.000  O
  O118     1.0000 0.85730  0.71630  0.80050  Biso   1.000  O
  O119     1.0000 0.35730  0.78370  0.30050  Biso   1.000  O
  O120     1.0000 0.14270  0.28370  0.19950  Biso   1.000  O
  O121     1.0000 0.57390  0.23250  0.99890  Biso   1.000  O
  O122     1.0000 0.92610  0.73250  0.50110  Biso   1.000  O
  O123     1.0000 0.42610  0.76750  0.00110  Biso   1.000  O
  O124     1.0000 0.07390  0.26750  0.49890  Biso   1.000  O
  O125     1.0000 0.55960  0.17200  0.86250  Biso   1.000  O
  O126     1.0000 0.94040  0.67200  0.63750  Biso   1.000  O
  O127     1.0000 0.44040  0.82800  0.13750  Biso   1.000  O
  O128     1.0000 0.05960  0.32800  0.36250  Biso   1.000  O
  O129     1.0000 0.80480  0.94120  0.84940  Biso   1.000  O
  O130     1.0000 0.69520  0.44120  0.65060  Biso   1.000  O
  O131     1.0000 0.19520  0.05880  0.15060  Biso   1.000  O
  O132     1.0000 0.30480  0.55880  0.34940  Biso   1.000  O
  O133     1.0000 0.97560  0.10080  0.86190  Biso   1.000  O
  O134     1.0000 0.52440  0.60080  0.63810  Biso   1.000  O
  O135     1.0000 0.02440  0.89920  0.13810  Biso   1.000  O
  O136     1.0000 0.47560  0.39920  0.36190  Biso   1.000  O
  O137     1.0000 0.79910  0.07880  0.02210  Biso   1.000  O
  O138     1.0000 0.70090  0.57880  0.47790  Biso   1.000  O
  O139     1.0000 0.20090  0.92120  0.97790  Biso   1.000  O
  O140     1.0000 0.29910  0.42120  0.52210  Biso   1.000  O
  O141     1.0000 0.86860  0.02110  0.75800  Biso   1.000  O
  O142     1.0000 0.63140  0.52110  0.74200  Biso   1.000  O
  O143     1.0000 0.13140  0.97890  0.24200  Biso   1.000  O
  O144     1.0000 0.36860  0.47890  0.25800  Biso   1.000  O
  O145     1.0000 0.97410  0.17640  0.67090  Biso   1.000  O
  O146     1.0000 0.52590  0.67640  0.82910  Biso   1.000  O
  O147     1.0000 0.02590  0.82360  0.32910  Biso   1.000  O
  O148     1.0000 0.47410  0.32360  0.17090  Biso   1.000  O
  O149     1.0000 0.59340  0.99260  0.62640  Biso   1.000  O
  O150     1.0000 0.90660  0.49260  0.87360  Biso   1.000  O
  O151     1.0000 0.40660  0.00740  0.37360  Biso   1.000  O
  O152     1.0000 0.09340  0.50740  0.12640  Biso   1.000  O
  O153     1.0000 0.70970  0.01100  0.93560  Biso   1.000  O
  O154     1.0000 0.79030  0.51100  0.56440  Biso   1.000  O
  O155     1.0000 0.29030  0.98900  0.06440  Biso   1.000  O
  O156     1.0000 0.20970  0.48900  0.43560  Biso   1.000  O
  O157     1.0000 0.73110  0.16030  0.59850  Biso   1.000  O
  O158     1.0000 0.76890  0.66030  0.90150  Biso   1.000  O
  O159     1.0000 0.26890  0.83970  0.40150  Biso   1.000  O
  O160     1.0000 0.23110  0.33970  0.09850  Biso   1.000  O
  Cu1      1.0000 0.86870  0.86656  0.54363  Biso   1.000  Cu
  Cu2      1.0000 0.63130  0.36656  0.95637  Biso   1.000  Cu
  Cu3      1.0000 0.13130  0.13344  0.45637  Biso   1.000  Cu
  Cu4      1.0000 0.36870  0.63344  0.04363  Biso   1.000  Cu
  Cu5      1.0000 0.77986  0.04550  0.32486  Biso   1.000  Cu
  Cu6      1.0000 0.72014  0.54550  0.17514  Biso   1.000  Cu
  Cu7      1.0000 0.22014  0.95450  0.67514  Biso   1.000  Cu
  Cu8      1.0000 0.27986  0.45450  0.82486  Biso   1.000  Cu
  Cu9      1.0000 0.34490  0.07307  0.96773  Biso   1.000  Cu
  Cu10     1.0000 0.15510  0.57307  0.53227  Biso   1.000  Cu
  Cu11     1.0000 0.65510  0.92693  0.03227  Biso   1.000  Cu
  Cu12     1.0000 0.84490  0.42693  0.46773  Biso   1.000  Cu
  Cu13     1.0000 0.53793  0.29164  0.59240  Biso   1.000  Cu
  Cu14     1.0000 0.96207  0.79164  0.90760  Biso   1.000  Cu
  Cu15     1.0000 0.46207  0.70836  0.40760  Biso   1.000  Cu
  Cu16     1.0000 0.03793  0.20836  0.09240  Biso   1.000  Cu
  N1       1.0000 0.76310  0.93980  0.50790  Biso   1.000  N
  N2       1.0000 0.73690  0.43980  0.99210  Biso   1.000  N
  N3       1.0000 0.23690  0.06020  0.49210  Biso   1.000  N
  N4       1.0000 0.26310  0.56020  0.00790  Biso   1.000  N
  N5       1.0000 0.74830  0.99570  0.40980  Biso   1.000  N
  N6       1.0000 0.75170  0.49570  0.09020  Biso   1.000  N
  N7       1.0000 0.25170  0.00430  0.59020  Biso   1.000  N
  N8       1.0000 0.24830  0.50430  0.90980  Biso   1.000  N
  C1       1.0000 0.60900  0.90610  0.50840  Biso   1.000  C
  C2       1.0000 0.89100  0.40610  0.99160  Biso   1.000  C
  C3       1.0000 0.39100  0.09390  0.49160  Biso   1.000  C
  C4       1.0000 0.10900  0.59390  0.00840  Biso   1.000  C
  H1       1.0000 0.58030  0.92120  0.55530  Biso   1.000  H
  H2       1.0000 0.91970  0.42120  0.94470  Biso   1.000  H
  H3       1.0000 0.41970  0.07880  0.44470  Biso   1.000  H
  H4       1.0000 0.08030  0.57880  0.05530  Biso   1.000  H
  H5       1.0000 0.56210  0.90180  0.46690  Biso   1.000  H
  H6       1.0000 0.93790  0.40180  0.03310  Biso   1.000  H
  H7       1.0000 0.43790  0.09820  0.53310  Biso   1.000  H
  H8       1.0000 0.06210  0.59820  0.96690  Biso   1.000  H
  C5       1.0000 0.64470  0.85660  0.53290  Biso   1.000  C
  C6       1.0000 0.85530  0.35660  0.96710  Biso   1.000  C
  C7       1.0000 0.35530  0.14340  0.46710  Biso   1.000  C
  C8       1.0000 0.14470  0.64340  0.03290  Biso   1.000  C
  H9       1.0000 0.59350  0.83530  0.54560  Biso   1.000  H
  H10      1.0000 0.90650  0.33530  0.95440  Biso   1.000  H
  H11      1.0000 0.40650  0.16470  0.45440  Biso   1.000  H
  H12      1.0000 0.09350  0.66470  0.04560  Biso   1.000  H
  H13      1.0000 0.68200  0.85980  0.58180  Biso   1.000  H
  H14      1.0000 0.81800  0.35980  0.91820  Biso   1.000  H
  H15      1.0000 0.31800  0.14020  0.41820  Biso   1.000  H
  H16      1.0000 0.18200  0.64020  0.08180  Biso   1.000  H
  C9       1.0000 0.67040  0.81190  0.40230  Biso   1.000  C
  C10      1.0000 0.82960  0.31190  0.09770  Biso   1.000  C
  C11      1.0000 0.32960  0.18810  0.59770  Biso   1.000  C
  C12      1.0000 0.17040  0.68810  0.90230  Biso   1.000  C
  H17      1.0000 0.60890  0.80700  0.38970  Biso   1.000  H
  H18      1.0000 0.89110  0.30700  0.11030  Biso   1.000  H
  H19      1.0000 0.39110  0.19300  0.61030  Biso   1.000  H
  H20      1.0000 0.10890  0.69300  0.88970  Biso   1.000  H
  C13      1.0000 0.81380  0.81080  0.39990  Biso   1.000  C
  C14      1.0000 0.68620  0.31080  0.10010  Biso   1.000  C
  C15      1.0000 0.18620  0.18920  0.60010  Biso   1.000  C
  C16      1.0000 0.31380  0.68920  0.89990  Biso   1.000  C
  H21      1.0000 0.87350  0.80480  0.38320  Biso   1.000  H
  H22      1.0000 0.62650  0.30480  0.11680  Biso   1.000  H
  H23      1.0000 0.12650  0.19520  0.61680  Biso   1.000  H
  H24      1.0000 0.37350  0.69520  0.88320  Biso   1.000  H
  C17      1.0000 0.95340  0.89910  0.69390  Biso   1.000  C
  C18      1.0000 0.54660  0.39910  0.80610  Biso   1.000  C
  C19      1.0000 0.04660  0.10090  0.30610  Biso   1.000  C
  C20      1.0000 0.45340  0.60090  0.19390  Biso   1.000  C
  H25      1.0000 0.90140  0.89250  0.72450  Biso   1.000  H
  H26      1.0000 0.59860  0.39250  0.77550  Biso   1.000  H
  H27      1.0000 0.09860  0.10750  0.27550  Biso   1.000  H
  H28      1.0000 0.40140  0.60750  0.22450  Biso   1.000  H
  C21      1.0000 0.04740  0.90660  0.59710  Biso   1.000  C
  C22      1.0000 0.45260  0.40660  0.90290  Biso   1.000  C
  C23      1.0000 0.95260  0.09340  0.40290  Biso   1.000  C
  C24      1.0000 0.54740  0.59340  0.09710  Biso   1.000  C
  H29      1.0000 0.07260  0.90590  0.54520  Biso   1.000  H
  H30      1.0000 0.42740  0.40590  0.95480  Biso   1.000  H
  H31      1.0000 0.92740  0.09410  0.45480  Biso   1.000  H
  H32      1.0000 0.57260  0.59410  0.04520  Biso   1.000  H
  C25      1.0000 0.05020  0.93350  0.80580  Biso   1.000  C
  C26      1.0000 0.44980  0.43350  0.69420  Biso   1.000  C
  C27      1.0000 0.94980  0.06650  0.19420  Biso   1.000  C
  C28      1.0000 0.55020  0.56650  0.30580  Biso   1.000  C
  H33      1.0000 0.00100  0.92270  0.84100  Biso   1.000  H
  H34      1.0000 0.49900  0.42270  0.65900  Biso   1.000  H
  H35      1.0000 0.99900  0.07730  0.15900  Biso   1.000  H
  H36      1.0000 0.50100  0.57730  0.34100  Biso   1.000  H
  H37      1.0000 0.10650  0.91810  0.82420  Biso   1.000  H
  H38      1.0000 0.39350  0.41810  0.67580  Biso   1.000  H
  H39      1.0000 0.89350  0.08190  0.17580  Biso   1.000  H
  H40      1.0000 0.60650  0.58190  0.32420  Biso   1.000  H
  C29      1.0000 0.06020  0.98930  0.81230  Biso   1.000  C
  C30      1.0000 0.43980  0.48930  0.68770  Biso   1.000  C
  C31      1.0000 0.93980  0.01070  0.18770  Biso   1.000  C
  C32      1.0000 0.56020  0.51070  0.31230  Biso   1.000  C
  H41      1.0000 0.01760  0.00160  0.85260  Biso   1.000  H
  H42      1.0000 0.48240  0.50160  0.64740  Biso   1.000  H
  H43      1.0000 0.98240  0.99840  0.14740  Biso   1.000  H
  H44      1.0000 0.51760  0.49840  0.35260  Biso   1.000  H
  H45      1.0000 0.04490  0.00410  0.76030  Biso   1.000  H
  H46      1.0000 0.45510  0.50410  0.73970  Biso   1.000  H
  H47      1.0000 0.95510  0.99590  0.23970  Biso   1.000  H
  H48      1.0000 0.54490  0.49590  0.26030  Biso   1.000  H
  C33      1.0000 0.18110  0.03100  0.89480  Biso   1.000  C
  C34      1.0000 0.31890  0.53100  0.60520  Biso   1.000  C
  C35      1.0000 0.81890  0.96900  0.10520  Biso   1.000  C
  C36      1.0000 0.68110  0.46900  0.39480  Biso   1.000  C
  H49      1.0000 0.14210  0.04400  0.93380  Biso   1.000  H
  H50      1.0000 0.35790  0.54400  0.56620  Biso   1.000  H
  H51      1.0000 0.85790  0.95600  0.06620  Biso   1.000  H
  H52      1.0000 0.64210  0.45600  0.43380  Biso   1.000  H
  C37      1.0000 0.29660  0.01450  0.82450  Biso   1.000  C
  C38      1.0000 0.20340  0.51450  0.67550  Biso   1.000  C
  C39      1.0000 0.70340  0.98550  0.17550  Biso   1.000  C
  C40      1.0000 0.79660  0.48550  0.32450  Biso   1.000  C
  H53      1.0000 0.35680  0.01280  0.80620  Biso   1.000  H
  H54      1.0000 0.14320  0.51280  0.69380  Biso   1.000  H
  H55      1.0000 0.64320  0.98720  0.19380  Biso   1.000  H
  H56      1.0000 0.85680  0.48720  0.30620  Biso   1.000  H
  C41      1.0000 0.58910  0.19840  0.20000  Biso   1.000  C
  C42      1.0000 0.91090  0.69840  0.30000  Biso   1.000  C
  C43      1.0000 0.41090  0.80160  0.80000  Biso   1.000  C
  C44      1.0000 0.08910  0.30160  0.70000  Biso   1.000  C
  H57      1.0000 0.61990  0.19300  0.14860  Biso   1.000  H
  H58      1.0000 0.88010  0.69300  0.35140  Biso   1.000  H
  H59      1.0000 0.38010  0.80700  0.85140  Biso   1.000  H
  H60      1.0000 0.11990  0.30700  0.64860  Biso   1.000  H
  H61      1.0000 0.60520  0.23100  0.21850  Biso   1.000  H
  H62      1.0000 0.89480  0.73100  0.28150  Biso   1.000  H
  H63      1.0000 0.39480  0.76900  0.78150  Biso   1.000  H
  H64      1.0000 0.10520  0.26900  0.71850  Biso   1.000  H
  C45      1.0000 0.48970  0.19680  0.18540  Biso   1.000  C
  C46      1.0000 0.01030  0.69680  0.31460  Biso   1.000  C
  C47      1.0000 0.51030  0.80320  0.81460  Biso   1.000  C
  C48      1.0000 0.98970  0.30320  0.68540  Biso   1.000  C
  H65      1.0000 0.47300  0.22380  0.14980  Biso   1.000  H
  H66      1.0000 0.02700  0.72380  0.35020  Biso   1.000  H
  H67      1.0000 0.52700  0.77620  0.85020  Biso   1.000  H
  H68      1.0000 0.97300  0.27620  0.64980  Biso   1.000  H
  H69      1.0000 0.45860  0.20170  0.23680  Biso   1.000  H
  H70      1.0000 0.04140  0.70170  0.26320  Biso   1.000  H
  H71      1.0000 0.54140  0.79830  0.76320  Biso   1.000  H
  H72      1.0000 0.95860  0.29830  0.73680  Biso   1.000  H
  C49      1.0000 0.42900  0.14630  0.07210  Biso   1.000  C
  C50      1.0000 0.07100  0.64630  0.42790  Biso   1.000  C
  C51      1.0000 0.57100  0.85370  0.92790  Biso   1.000  C
  C52      1.0000 0.92900  0.35370  0.57210  Biso   1.000  C
  H73      1.0000 0.42420  0.17140  0.03400  Biso   1.000  H
  H74      1.0000 0.07580  0.67140  0.46600  Biso   1.000  H
  H75      1.0000 0.57580  0.82860  0.96600  Biso   1.000  H
  H76      1.0000 0.92420  0.32860  0.53400  Biso   1.000  H
  C53      1.0000 0.42710  0.07760  0.13090  Biso   1.000  C
  C54      1.0000 0.07290  0.57760  0.36910  Biso   1.000  C
  C55      1.0000 0.57290  0.92240  0.86910  Biso   1.000  C
  C56      1.0000 0.92710  0.42240  0.63090  Biso   1.000  C
  H77      1.0000 0.41960  0.04430  0.13980  Biso   1.000  H
  H78      1.0000 0.08040  0.54430  0.36020  Biso   1.000  H
  H79      1.0000 0.58040  0.95570  0.86020  Biso   1.000  H
  H80      1.0000 0.91960  0.45570  0.63980  Biso   1.000  H
  C57      1.0000 0.36500  0.31080  0.67220  Biso   1.000  C
  C58      1.0000 0.13500  0.81080  0.82780  Biso   1.000  C
  C59      1.0000 0.63500  0.68920  0.32780  Biso   1.000  C
  C60      1.0000 0.86500  0.18920  0.17220  Biso   1.000  C
  H81      1.0000 0.34390  0.32990  0.62900  Biso   1.000  H
  H82      1.0000 0.15610  0.82990  0.87100  Biso   1.000  H
  H83      1.0000 0.65610  0.67010  0.37100  Biso   1.000  H
  H84      1.0000 0.84390  0.17010  0.12900  Biso   1.000  H
  C61      1.0000 0.45170  0.26400  0.74390  Biso   1.000  C
  C62      1.0000 0.04830  0.76400  0.75610  Biso   1.000  C
  C63      1.0000 0.54830  0.73600  0.25610  Biso   1.000  C
  C64      1.0000 0.95170  0.23600  0.24390  Biso   1.000  C
  H85      1.0000 0.49930  0.24430  0.76250  Biso   1.000  H
  H86      1.0000 0.00070  0.74430  0.73750  Biso   1.000  H
  H87      1.0000 0.50070  0.75570  0.23750  Biso   1.000  H
  H88      1.0000 0.99930  0.25570  0.26250  Biso   1.000  H
  C65      1.0000 0.34250  0.25200  0.85940  Biso   1.000  C
  C66      1.0000 0.15750  0.75200  0.64060  Biso   1.000  C
  C67      1.0000 0.65750  0.74800  0.14060  Biso   1.000  C
  C68      1.0000 0.84250  0.24800  0.35940  Biso   1.000  C
  H89      1.0000 0.39380  0.23730  0.88830  Biso   1.000  H
  H90      1.0000 0.10620  0.73730  0.61170  Biso   1.000  H
  H91      1.0000 0.60620  0.76270  0.11170  Biso   1.000  H
  H92      1.0000 0.89380  0.26270  0.38830  Biso   1.000  H
  H93      1.0000 0.31680  0.27730  0.89390  Biso   1.000  H
  H94      1.0000 0.18320  0.77730  0.60610  Biso   1.000  H
  H95      1.0000 0.68320  0.72270  0.10610  Biso   1.000  H
  H96      1.0000 0.81680  0.22270  0.39390  Biso   1.000  H
  C69      1.0000 0.27080  0.21370  0.84210  Biso   1.000  C
  C70      1.0000 0.22920  0.71370  0.65790  Biso   1.000  C
  C71      1.0000 0.72920  0.78630  0.15790  Biso   1.000  C
  C72      1.0000 0.77080  0.28630  0.34210  Biso   1.000  C
  H97      1.0000 0.29970  0.18520  0.81810  Biso   1.000  H
  H98      1.0000 0.20030  0.68520  0.68190  Biso   1.000  H
  H99      1.0000 0.70030  0.81480  0.18190  Biso   1.000  H
  H100     1.0000 0.79970  0.31480  0.31810  Biso   1.000  H
  H101     1.0000 0.22670  0.22640  0.80310  Biso   1.000  H
  H102     1.0000 0.27330  0.72640  0.69690  Biso   1.000  H
  H103     1.0000 0.77330  0.77360  0.19690  Biso   1.000  H
  H104     1.0000 0.72670  0.27360  0.30310  Biso   1.000  H
  C73      1.0000 0.19900  0.16230  0.02420  Biso   1.000  C
  C74      1.0000 0.30100  0.66230  0.47580  Biso   1.000  C
  C75      1.0000 0.80100  0.83770  0.97580  Biso   1.000  C
  C76      1.0000 0.69900  0.33770  0.52420  Biso   1.000  C
  H105     1.0000 0.20490  0.14140  0.06860  Biso   1.000  H
  H106     1.0000 0.29510  0.64140  0.43140  Biso   1.000  H
  H107     1.0000 0.79510  0.85860  0.93140  Biso   1.000  H
  H108     1.0000 0.70490  0.35860  0.56860  Biso   1.000  H
  C77      1.0000 0.15050  0.21980  0.95030  Biso   1.000  C
  C78      1.0000 0.34950  0.71980  0.54970  Biso   1.000  C
  C79      1.0000 0.84950  0.78020  0.04970  Biso   1.000  C
  C80      1.0000 0.65050  0.28020  0.45030  Biso   1.000  C
  H109     1.0000 0.11850  0.24650  0.92920  Biso   1.000  H
  H110     1.0000 0.38150  0.74650  0.57080  Biso   1.000  H
  H111     1.0000 0.88150  0.75350  0.07080  Biso   1.000  H
  H112     1.0000 0.61850  0.25350  0.42920  Biso   1.000  H
  C81      1.0000 0.80530  0.97280  0.46410  Biso   1.000  C
  C82      1.0000 0.69470  0.47280  0.03590  Biso   1.000  C
  C83      1.0000 0.19470  0.02720  0.53590  Biso   1.000  C
  C84      1.0000 0.30530  0.52720  0.96410  Biso   1.000  C
  H113     1.0000 0.86750  0.97980  0.46940  Biso   1.000  H
  H114     1.0000 0.63250  0.47980  0.03060  Biso   1.000  H
  H115     1.0000 0.13250  0.02020  0.53060  Biso   1.000  H
  H116     1.0000 0.36750  0.52020  0.96940  Biso   1.000  H
  C85      1.0000 0.67000  0.97180  0.41940  Biso   1.000  C
  C86      1.0000 0.83000  0.47180  0.08060  Biso   1.000  C
  C87      1.0000 0.33000  0.02820  0.58060  Biso   1.000  C
  C88      1.0000 0.17000  0.52820  0.91940  Biso   1.000  C
  H117     1.0000 0.61650  0.97730  0.38970  Biso   1.000  H
  H118     1.0000 0.88350  0.47730  0.11030  Biso   1.000  H
  H119     1.0000 0.38350  0.02270  0.61030  Biso   1.000  H
  H120     1.0000 0.11650  0.52270  0.88970  Biso   1.000  H
  N9       1.0000 0.67950  0.93940  0.47700  Biso   1.000  N
  N10      1.0000 0.82050  0.43940  0.02300  Biso   1.000  N
  N11      1.0000 0.32050  0.06060  0.52300  Biso   1.000  N
  N12      1.0000 0.17950  0.56060  0.97700  Biso   1.000  N
  N13      1.0000 0.69960  0.83420  0.46840  Biso   1.000  N
  N14      1.0000 0.80040  0.33420  0.03160  Biso   1.000  N
  N15      1.0000 0.30040  0.16580  0.53160  Biso   1.000  N
  N16      1.0000 0.19960  0.66580  0.96840  Biso   1.000  N
  N17      1.0000 0.73740  0.79750  0.35680  Biso   1.000  N
  N18      1.0000 0.76260  0.29750  0.14320  Biso   1.000  N
  N19      1.0000 0.26260  0.20250  0.64320  Biso   1.000  N
  N20      1.0000 0.23740  0.70250  0.85680  Biso   1.000  N
  N21      1.0000 0.79170  0.83370  0.46970  Biso   1.000  N
  N22      1.0000 0.70830  0.33370  0.03030  Biso   1.000  N
  N23      1.0000 0.20830  0.16630  0.53030  Biso   1.000  N
  N24      1.0000 0.29170  0.66630  0.96970  Biso   1.000  N
  N25      1.0000 0.96240  0.89020  0.61380  Biso   1.000  N
  N26      1.0000 0.53760  0.39020  0.88620  Biso   1.000  N
  N27      1.0000 0.03760  0.10980  0.38620  Biso   1.000  N
  N28      1.0000 0.46240  0.60980  0.11380  Biso   1.000  N
  N29      1.0000 0.09040  0.92340  0.66040  Biso   1.000  N
  N30      1.0000 0.40960  0.42340  0.83960  Biso   1.000  N
  N31      1.0000 0.90960  0.07660  0.33960  Biso   1.000  N
  N32      1.0000 0.59040  0.57660  0.16040  Biso   1.000  N
  N33      1.0000 0.03060  0.91860  0.72240  Biso   1.000  N
  N34      1.0000 0.46940  0.41860  0.77760  Biso   1.000  N
  N35      1.0000 0.96940  0.08140  0.27760  Biso   1.000  N
  N36      1.0000 0.53060  0.58140  0.22240  Biso   1.000  N
  N37      1.0000 0.15490  0.00300  0.83590  Biso   1.000  N
  N38      1.0000 0.34510  0.50300  0.66410  Biso   1.000  N
  N39      1.0000 0.84510  0.99700  0.16410  Biso   1.000  N
  N40      1.0000 0.65490  0.49700  0.33590  Biso   1.000  N
  N41      1.0000 0.22640  0.99310  0.78580  Biso   1.000  N
  N42      1.0000 0.27360  0.49310  0.71420  Biso   1.000  N
  N43      1.0000 0.77360  0.00690  0.21420  Biso   1.000  N
  N44      1.0000 0.72640  0.50690  0.28580  Biso   1.000  N
  N45      1.0000 0.27210  0.03910  0.89290  Biso   1.000  N
  N46      1.0000 0.22790  0.53910  0.60710  Biso   1.000  N
  N47      1.0000 0.72790  0.96090  0.10710  Biso   1.000  N
  N48      1.0000 0.77210  0.46090  0.39290  Biso   1.000  N
  N49      1.0000 0.68810  0.10200  0.31610  Biso   1.000  N
  N50      1.0000 0.81190  0.60200  0.18390  Biso   1.000  N
  N51      1.0000 0.31190  0.89800  0.68390  Biso   1.000  N
  N52      1.0000 0.18810  0.39800  0.81610  Biso   1.000  N
  C89      1.0000 0.66300  0.13300  0.37400  Biso   1.000  C
  C90      1.0000 0.83700  0.63300  0.12600  Biso   1.000  C
  C91      1.0000 0.33700  0.86700  0.62600  Biso   1.000  C
  C92      1.0000 0.16300  0.36700  0.87400  Biso   1.000  C
  H121     1.0000 0.67170  0.12880  0.42970  Biso   1.000  H
  H122     1.0000 0.82830  0.62880  0.07030  Biso   1.000  H
  H123     1.0000 0.32830  0.87120  0.57030  Biso   1.000  H
  H124     1.0000 0.17170  0.37120  0.92970  Biso   1.000  H
  N53      1.0000 0.62310  0.17100  0.33830  Biso   1.000  N
  N54      1.0000 0.87690  0.67100  0.16170  Biso   1.000  N
  N55      1.0000 0.37690  0.82900  0.66170  Biso   1.000  N
  N56      1.0000 0.12310  0.32900  0.83830  Biso   1.000  N
  N57      1.0000 0.62360  0.16350  0.25850  Biso   1.000  N
  N58      1.0000 0.87640  0.66350  0.24150  Biso   1.000  N
  N59      1.0000 0.37640  0.83650  0.74150  Biso   1.000  N
  N60      1.0000 0.12360  0.33650  0.75850  Biso   1.000  N
  C93      1.0000 0.66380  0.12090  0.24480  Biso   1.000  C
  C94      1.0000 0.83620  0.62090  0.25520  Biso   1.000  C
  C95      1.0000 0.33620  0.87910  0.75520  Biso   1.000  C
  C96      1.0000 0.16380  0.37910  0.74480  Biso   1.000  C
  H125     1.0000 0.67330  0.10670  0.19400  Biso   1.000  H
  H126     1.0000 0.82670  0.60670  0.30600  Biso   1.000  H
  H127     1.0000 0.32670  0.89330  0.80600  Biso   1.000  H
  H128     1.0000 0.17330  0.39330  0.69400  Biso   1.000  H
  N61      1.0000 0.45660  0.15090  0.14850  Biso   1.000  N
  N62      1.0000 0.04340  0.65090  0.35150  Biso   1.000  N
  N63      1.0000 0.54340  0.84910  0.85150  Biso   1.000  N
  N64      1.0000 0.95660  0.34910  0.64850  Biso   1.000  N
  N65      1.0000 0.45680  0.10800  0.18800  Biso   1.000  N
  N66      1.0000 0.04320  0.60800  0.31200  Biso   1.000  N
  N67      1.0000 0.54320  0.89200  0.81200  Biso   1.000  N
  N68      1.0000 0.95680  0.39200  0.68800  Biso   1.000  N
  N69      1.0000 0.40890  0.09880  0.05960  Biso   1.000  N
  N70      1.0000 0.09110  0.59880  0.44040  Biso   1.000  N
  N71      1.0000 0.59110  0.90120  0.94040  Biso   1.000  N
  N72      1.0000 0.90890  0.40120  0.55960  Biso   1.000  N
  N73      1.0000 0.44840  0.28780  0.67230  Biso   1.000  N
  N74      1.0000 0.05160  0.78780  0.82770  Biso   1.000  N
  N75      1.0000 0.55160  0.71220  0.32770  Biso   1.000  N
  N76      1.0000 0.94840  0.21220  0.17230  Biso   1.000  N
  N77      1.0000 0.31740  0.30340  0.73960  Biso   1.000  N
  N78      1.0000 0.18260  0.80340  0.76040  Biso   1.000  N
  N79      1.0000 0.68260  0.69660  0.26040  Biso   1.000  N
  N80      1.0000 0.81740  0.19660  0.23960  Biso   1.000  N
  N81      1.0000 0.37490  0.27390  0.78300  Biso   1.000  N
  N82      1.0000 0.12510  0.77390  0.71700  Biso   1.000  N
  N83      1.0000 0.62510  0.72610  0.21700  Biso   1.000  N
  N84      1.0000 0.87490  0.22610  0.28300  Biso   1.000  N
  N85      1.0000 0.22300  0.19920  0.91720  Biso   1.000  N
  N86      1.0000 0.27700  0.69920  0.58280  Biso   1.000  N
  N87      1.0000 0.77700  0.80080  0.08280  Biso   1.000  N
  N88      1.0000 0.72300  0.30080  0.41720  Biso   1.000  N
  N89      1.0000 0.25490  0.16130  0.96290  Biso   1.000  N
  N90      1.0000 0.24510  0.66130  0.53710  Biso   1.000  N
  N91      1.0000 0.74510  0.83870  0.03710  Biso   1.000  N
  N92      1.0000 0.75490  0.33870  0.46290  Biso   1.000  N
  N93      1.0000 0.13090  0.19640  0.01840  Biso   1.000  N
  N94      1.0000 0.36910  0.69640  0.48160  Biso   1.000  N
  N95      1.0000 0.86910  0.80360  0.98160  Biso   1.000  N
  N96      1.0000 0.63090  0.30360  0.51840  Biso   1.000  N
