data_image0
_cell_length_a       11.487
_cell_length_b       11.5977
_cell_length_c       11.6541
_cell_angle_alpha    98.908
_cell_angle_beta     107.6
_cell_angle_gamma    109.728

_symmetry_space_group_name_H-M    "P 1"
_symmetry_int_tables_number       1

loop_
  _symmetry_equiv_pos_as_xyz
  'x, y, z'

loop_
  _atom_site_label
  _atom_site_occupancy
  _atom_site_fract_x
  _atom_site_fract_y
  _atom_site_fract_z
  _atom_site_thermal_displace_type
  _atom_site_B_iso_or_equiv
  _atom_site_type_symbol
  Si1      1.0000 0.50000  0.50000  0.50000  Biso   1.000  Si
  W1       1.0000 0.77209  0.80228  0.59586  Biso   1.000  W
  W2       1.0000 0.22791  0.19772  0.40414  Biso   1.000  W
  W3       1.0000 0.74224  0.54611  0.36417  Biso   1.000  W
  W4       1.0000 0.25776  0.45389  0.63583  Biso   1.000  W
  W5       1.0000 0.58039  0.48479  0.81312  Biso   1.000  W
  W6       1.0000 0.41961  0.51521  0.18688  Biso   1.000  W
  W7       1.0000 0.55700  0.23693  0.57750  Biso   1.000  W
  W8       1.0000 0.44300  0.76307  0.42250  Biso   1.000  W
  W9       1.0000 0.82513  0.53882  0.68108  Biso   1.000  W
  W10      1.0000 0.17487  0.46118  0.31892  Biso   1.000  W
  W11      1.0000 0.53367  0.75348  0.73630  Biso   1.000  W
  W12      1.0000 0.46633  0.24652  0.26370  Biso   1.000  W
  O1       1.0000 0.31300  0.72600  0.95200  Biso   1.000  O
  O2       1.0000 0.68700  0.27400  0.04800  Biso   1.000  O
  O3       1.0000 0.54700  0.31400  0.72500  Biso   1.000  O
  O4       1.0000 0.45300  0.68600  0.27500  Biso   1.000  O
  O5       1.0000 0.69900  0.82100  0.72000  Biso   1.000  O
  O6       1.0000 0.30100  0.17900  0.28000  Biso   1.000  O
  O7       1.0000 0.54100  0.19900  0.40100  Biso   1.000  O
  O8       1.0000 0.45900  0.80100  0.59900  Biso   1.000  O
  O9       1.0000 0.82800  0.52100  0.51600  Biso   1.000  O
  O10      1.0000 0.17200  0.47900  0.48400  Biso   1.000  O
  O11      1.0000 0.78400  0.71800  0.46100  Biso   1.000  O
  O12      1.0000 0.21600  0.28200  0.53900  Biso   1.000  O
  O13      1.0000 0.85300  0.57000  0.29600  Biso   1.000  O
  O14      1.0000 0.14700  0.43000  0.70400  Biso   1.000  O
  O15      1.0000 0.77500  0.54300  0.83300  Biso   1.000  O
  O16      1.0000 0.22500  0.45700  0.16700  Biso   1.000  O
  O17      1.0000 0.63400  0.83400  0.48900  Biso   1.000  O
  O18      1.0000 0.36600  0.16600  0.51100  Biso   1.000  O
  O19      1.0000 0.84500  0.71100  0.69100  Biso   1.000  O
  O20      1.0000 0.15500  0.28900  0.30900  Biso   1.000  O
  O21      1.0000 0.73100  0.35700  0.62900  Biso   1.000  O
  O22      1.0000 0.26900  0.64300  0.37100  Biso   1.000  O
  O23      1.0000 0.60900  0.56900  0.24500  Biso   1.000  O
  O24      1.0000 0.39100  0.43100  0.75500  Biso   1.000  O
  O25      1.0000 0.54900  0.87400  0.84900  Biso   1.000  O
  O26      1.0000 0.45100  0.12600  0.15100  Biso   1.000  O
  O27      1.0000 0.60100  0.65800  0.83400  Biso   1.000  O
  O28      1.0000 0.39900  0.34200  0.16600  Biso   1.000  O
  O29      1.0000 0.63800  0.37000  0.29500  Biso   1.000  O
  O30      1.0000 0.36200  0.63000  0.70500  Biso   1.000  O
  O31      1.0000 0.98000  0.56000  0.76600  Biso   1.000  O
  O32      1.0000 0.02000  0.44000  0.23400  Biso   1.000  O
  O33      1.0000 0.61900  0.47500  0.96100  Biso   1.000  O
  O34      1.0000 0.38100  0.52500  0.03900  Biso   1.000  O
  O35      1.0000 0.89600  0.94400  0.63700  Biso   1.000  O
  O36      1.0000 0.10400  0.05600  0.36300  Biso   1.000  O
  O37      1.0000 0.58300  0.11400  0.61600  Biso   1.000  O
  O38      1.0000 0.41700  0.88600  0.38400  Biso   1.000  O
  Cu1      1.0000 0.88870  0.22130  0.64590  Biso   1.000  Cu
  Cu2      1.0000 0.11130  0.77870  0.35410  Biso   1.000  Cu
  Cu3      1.0000 0.15430  0.79100  0.87120  Biso   1.000  Cu
  Cu4      1.0000 0.84570  0.20900  0.12880  Biso   1.000  Cu
  C1       1.0000 0.86800  0.23200  0.38600  Biso   1.000  C
  C2       1.0000 0.13200  0.76800  0.61400  Biso   1.000  C
  H1       1.0000 0.94150  0.31050  0.41200  Biso   1.000  H
  H2       1.0000 0.05850  0.68950  0.58800  Biso   1.000  H
  C3       1.0000 0.72700  0.07400  0.39400  Biso   1.000  C
  C4       1.0000 0.27300  0.92600  0.60600  Biso   1.000  C
  H3       1.0000 0.67150  0.01360  0.42000  Biso   1.000  H
  H4       1.0000 0.32850  0.98640  0.58000  Biso   1.000  H
  C5       1.0000 0.62300  0.95900  0.16100  Biso   1.000  C
  C6       1.0000 0.37700  0.04100  0.83900  Biso   1.000  C
  H5       1.0000 0.62220  0.98810  0.08740  Biso   1.000  H
  H6       1.0000 0.37780  0.01190  0.91260  Biso   1.000  H
  H7       1.0000 0.53350  0.92950  0.16080  Biso   1.000  H
  H8       1.0000 0.46650  0.07050  0.83920  Biso   1.000  H
  C7       1.0000 0.66700  0.85000  0.15700  Biso   1.000  C
  C8       1.0000 0.33300  0.15000  0.84300  Biso   1.000  C
  H9       1.0000 0.59780  0.77530  0.09110  Biso   1.000  H
  H10      1.0000 0.40220  0.22470  0.90890  Biso   1.000  H
  H11      1.0000 0.68100  0.82980  0.23650  Biso   1.000  H
  H12      1.0000 0.31900  0.17020  0.76350  Biso   1.000  H
  C9       1.0000 0.80100  0.88700  0.13300  Biso   1.000  C
  C10      1.0000 0.19900  0.11300  0.86700  Biso   1.000  C
  H13      1.0000 0.78590  0.89630  0.04870  Biso   1.000  H
  H14      1.0000 0.21410  0.10370  0.95130  Biso   1.000  H
  H15      1.0000 0.86880  0.96760  0.19270  Biso   1.000  H
  H16      1.0000 0.13120  0.03240  0.80730  Biso   1.000  H
  C11      1.0000 0.84800  0.77700  0.14800  Biso   1.000  C
  C12      1.0000 0.15200  0.22300  0.85200  Biso   1.000  C
  H17      1.0000 0.87150  0.77480  0.23470  Biso   1.000  H
  H18      1.0000 0.12850  0.22520  0.76530  Biso   1.000  H
  H19      1.0000 0.77490  0.69590  0.09560  Biso   1.000  H
  H20      1.0000 0.22510  0.30410  0.90440  Biso   1.000  H
  N1       1.0000 0.82800  0.18300  0.47000  Biso   1.000  N
  N2       1.0000 0.17200  0.81700  0.53000  Biso   1.000  N
  N3       1.0000 0.71700  0.06400  0.27600  Biso   1.000  N
  N4       1.0000 0.28300  0.93600  0.72400  Biso   1.000  N
  N5       1.0000 0.80700  0.17400  0.27200  Biso   1.000  N
  N6       1.0000 0.19300  0.82600  0.72800  Biso   1.000  N
  N7       1.0000 0.96300  0.79400  0.11300  Biso   1.000  N
  N8       1.0000 0.03700  0.20600  0.88700  Biso   1.000  N
  N9       1.0000 0.07400  0.78600  0.18200  Biso   1.000  N
  N10      1.0000 0.92600  0.21400  0.81800  Biso   1.000  N
  C13      1.0000 0.14900  0.79000  0.11400  Biso   1.000  C
  C14      1.0000 0.85100  0.21000  0.88600  Biso   1.000  C
  H21      1.0000 0.23210  0.78600  0.13990  Biso   1.000  H
  H22      1.0000 0.76790  0.21400  0.86010  Biso   1.000  H
  N11      1.0000 0.08400  0.80000  0.00300  Biso   1.000  N
  N12      1.0000 0.91600  0.20000  0.99700  Biso   1.000  N
  C15      1.0000 0.96900  0.80200  0.00300  Biso   1.000  C
  C16      1.0000 0.03100  0.19800  0.99700  Biso   1.000  C
  H23      1.0000 0.90420  0.80840  0.93620  Biso   1.000  H
  H24      1.0000 0.09580  0.19160  0.06380  Biso   1.000  H
  O39      1.0000 0.55500  0.65300  0.56100  Biso   1.000  O
  O40      1.0000 0.44500  0.34700  0.43900  Biso   1.000  O
  O41      1.0000 0.53700  0.46600  0.38800  Biso   1.000  O
  O42      1.0000 0.46300  0.53400  0.61200  Biso   1.000  O
  O43      1.0000 0.35600  0.42900  0.48900  Biso   1.000  O
  O44      1.0000 0.64400  0.57100  0.51100  Biso   1.000  O
  O45      1.0000 0.59400  0.45900  0.61500  Biso   1.000  O
  O46      1.0000 0.40600  0.54100  0.38500  Biso   1.000  O
