data_image0
_cell_length_a       9.277
_cell_length_b       10.504
_cell_length_c       31.801
_cell_angle_alpha    92.849
_cell_angle_beta     90.401
_cell_angle_gamma    114.547

_symmetry_space_group_name_H-M    "P 1"
_symmetry_int_tables_number       1

loop_
  _symmetry_equiv_pos_as_xyz
  'x, y, z'

loop_
  _atom_site_label
  _atom_site_occupancy
  _atom_site_fract_x
  _atom_site_fract_y
  _atom_site_fract_z
  _atom_site_thermal_displace_type
  _atom_site_B_iso_or_equiv
  _atom_site_type_symbol
  Cu1      1.0000 0.54700  0.03719  0.46194  Biso   1.000  Cu
  Cu2      1.0000 0.45300  0.96281  0.53806  Biso   1.000  Cu
  S1       1.0000 0.30829  0.85187  0.46006  Biso   1.000  S
  S2       1.0000 0.69171  0.14813  0.53994  Biso   1.000  S
  P1       1.0000 0.36438  0.70274  0.48274  Biso   1.000  P
  P2       1.0000 0.63562  0.29726  0.51726  Biso   1.000  P
  O1       1.0000 0.20550  0.56420  0.47646  Biso   1.000  O
  O2       1.0000 0.79450  0.43580  0.52354  Biso   1.000  O
  N1       1.0000 0.73670  0.01700  0.43722  Biso   1.000  N
  N2       1.0000 0.26330  0.98300  0.56278  Biso   1.000  N
  C1       1.0000 0.20090  0.43100  0.49183  Biso   1.000  C
  C2       1.0000 0.79910  0.56900  0.50817  Biso   1.000  C
  H1       1.0000 0.30890  0.43380  0.49200  Biso   1.000  H
  H2       1.0000 0.69110  0.56620  0.50800  Biso   1.000  H
  H3       1.0000 0.16260  0.41940  0.52100  Biso   1.000  H
  H4       1.0000 0.83740  0.58060  0.47900  Biso   1.000  H
  Cu3      1.0000 0.81636  0.11470  0.25435  Biso   1.000  Cu
  Cu4      1.0000 0.18364  0.88530  0.74565  Biso   1.000  Cu
  S3       1.0000 0.45085  0.73872  0.54128  Biso   1.000  S
  S4       1.0000 0.54915  0.26128  0.45872  Biso   1.000  S
  P3       1.0000 0.09965  0.45773  0.28558  Biso   1.000  P
  P4       1.0000 0.90035  0.54227  0.71442  Biso   1.000  P
  O3       1.0000 0.48990  0.67420  0.45480  Biso   1.000  O
  O4       1.0000 0.51010  0.32580  0.54520  Biso   1.000  O
  N3       1.0000 0.64370  0.09640  0.29512  Biso   1.000  N
  N4       1.0000 0.35630  0.90360  0.70488  Biso   1.000  N
  C3       1.0000 0.09770  0.31570  0.46490  Biso   1.000  C
  C4       1.0000 0.90230  0.68430  0.53510  Biso   1.000  C
  H5       1.0000 0.99740  0.32400  0.46030  Biso   1.000  H
  H6       1.0000 0.00260  0.67600  0.53970  Biso   1.000  H
  H7       1.0000 0.07700  0.22770  0.47810  Biso   1.000  H
  H8       1.0000 0.92300  0.77230  0.52190  Biso   1.000  H
  H9       1.0000 0.14770  0.31630  0.43780  Biso   1.000  H
  H10      1.0000 0.85230  0.68370  0.56220  Biso   1.000  H
  Cu5      1.0000 0.12723  0.21181  0.25369  Biso   1.000  Cu
  Cu6      1.0000 0.87277  0.78819  0.74631  Biso   1.000  Cu
  S5       1.0000 0.99101  0.98215  0.26833  Biso   1.000  S
  S6       1.0000 0.00899  0.01785  0.73167  Biso   1.000  S
  P5       1.0000 0.87939  0.88662  0.21393  Biso   1.000  P
  P6       1.0000 0.12061  0.11338  0.78607  Biso   1.000  P
  O5       1.0000 0.79780  0.72210  0.21923  Biso   1.000  O
  O6       1.0000 0.20220  0.27790  0.78077  Biso   1.000  O
  N5       1.0000 0.30650  0.24580  0.21358  Biso   1.000  N
  N6       1.0000 0.69350  0.75420  0.78642  Biso   1.000  N
  C5       1.0000 0.45760  0.64230  0.40988  Biso   1.000  C
  C6       1.0000 0.54240  0.35770  0.59012  Biso   1.000  C
  H11      1.0000 0.35280  0.56260  0.40480  Biso   1.000  H
  H12      1.0000 0.64720  0.43740  0.59520  Biso   1.000  H
  H13      1.0000 0.45560  0.72450  0.39630  Biso   1.000  H
  H14      1.0000 0.54440  0.27550  0.60370  Biso   1.000  H
  Cu7      1.0000 0.43086  0.46027  0.03607  Biso   1.000  Cu
  Cu8      1.0000 0.56914  0.53973  0.96393  Biso   1.000  Cu
  S7       1.0000 0.72524  0.95633  0.19331  Biso   1.000  S
  S8       1.0000 0.27476  0.04367  0.80669  Biso   1.000  S
  P7       1.0000 0.38283  0.21004  0.98180  Biso   1.000  P
  P8       1.0000 0.61717  0.78996  0.01820  Biso   1.000  P
  O7       1.0000 0.00980  0.89600  0.18100  Biso   1.000  O
  O8       1.0000 0.99020  0.10400  0.81900  Biso   1.000  O
  N7       1.0000 0.23280  0.45840  0.06258  Biso   1.000  N
  N8       1.0000 0.76720  0.54160  0.93742  Biso   1.000  N
  C7       1.0000 0.57960  0.60720  0.39210  Biso   1.000  C
  C8       1.0000 0.42040  0.39280  0.60790  Biso   1.000  C
  H15      1.0000 0.68190  0.68880  0.39550  Biso   1.000  H
  H16      1.0000 0.31810  0.31120  0.60450  Biso   1.000  H
  H17      1.0000 0.55520  0.57970  0.36210  Biso   1.000  H
  H18      1.0000 0.44480  0.42030  0.63790  Biso   1.000  H
  H19      1.0000 0.58480  0.52920  0.40680  Biso   1.000  H
  H20      1.0000 0.41520  0.47080  0.59320  Biso   1.000  H
  S9       1.0000 0.96707  0.34396  0.23552  Biso   1.000  S
  S10      1.0000 0.03293  0.65604  0.76448  Biso   1.000  S
  O9       1.0000 0.98000  0.48720  0.31597  Biso   1.000  O
  O10      1.0000 0.02000  0.51280  0.68403  Biso   1.000  O
  C9       1.0000 0.66200  0.66490  0.24678  Biso   1.000  C
  C10      1.0000 0.33800  0.33510  0.75322  Biso   1.000  C
  H21      1.0000 0.56180  0.63790  0.23020  Biso   1.000  H
  H22      1.0000 0.43820  0.36210  0.76980  Biso   1.000  H
  H23      1.0000 0.66830  0.73640  0.26910  Biso   1.000  H
  H24      1.0000 0.33170  0.26360  0.73090  Biso   1.000  H
  S11      1.0000 0.22634  0.37531  0.31423  Biso   1.000  S
  S12      1.0000 0.77366  0.62469  0.68577  Biso   1.000  S
  O11      1.0000 0.21840  0.60800  0.27177  Biso   1.000  O
  O12      1.0000 0.78160  0.39200  0.72823  Biso   1.000  O
  C11      1.0000 0.66570  0.53950  0.26610  Biso   1.000  C
  C12      1.0000 0.33430  0.46050  0.73390  Biso   1.000  C
  H25      1.0000 0.67450  0.47520  0.24390  Biso   1.000  H
  H26      1.0000 0.32550  0.52480  0.75610  Biso   1.000  H
  H27      1.0000 0.56790  0.49170  0.28130  Biso   1.000  H
  H28      1.0000 0.43210  0.50830  0.71870  Biso   1.000  H
  H29      1.0000 0.75710  0.56930  0.28580  Biso   1.000  H
  H30      1.0000 0.24290  0.43070  0.71420  Biso   1.000  H
  S13      1.0000 0.45412  0.24337  0.04165  Biso   1.000  S
  S14      1.0000 0.54588  0.75663  0.95835  Biso   1.000  S
  O13      1.0000 0.22950  0.06820  0.97313  Biso   1.000  O
  O14      1.0000 0.77050  0.93180  0.02687  Biso   1.000  O
  C13      1.0000 0.97220  0.86670  0.13612  Biso   1.000  C
  C14      1.0000 0.02780  0.13330  0.86388  Biso   1.000  C
  H31      1.0000 0.85570  0.82460  0.13120  Biso   1.000  H
  H32      1.0000 0.14430  0.17540  0.86880  Biso   1.000  H
  H33      1.0000 0.01320  0.79900  0.12490  Biso   1.000  H
  H34      1.0000 0.98680  0.20100  0.87510  Biso   1.000  H
  S15      1.0000 0.32674  0.35754  0.95782  Biso   1.000  S
  S16      1.0000 0.67326  0.64246  0.04218  Biso   1.000  S
  O15      1.0000 0.51870  0.18840  0.95623  Biso   1.000  O
  O16      1.0000 0.48130  0.81160  0.04377  Biso   1.000  O
  C15      1.0000 0.04570  0.00010  0.11393  Biso   1.000  C
  C16      1.0000 0.95430  0.99990  0.88607  Biso   1.000  C
  H35      1.0000 0.99640  0.06290  0.12300  Biso   1.000  H
  H36      1.0000 0.00360  0.93710  0.87700  Biso   1.000  H
  H37      1.0000 0.02920  0.97940  0.08340  Biso   1.000  H
  H38      1.0000 0.97080  0.02060  0.91660  Biso   1.000  H
  H39      1.0000 0.15960  0.04550  0.12080  Biso   1.000  H
  H40      1.0000 0.84040  0.95450  0.87920  Biso   1.000  H
  C17      1.0000 0.03690  0.55610  0.35777  Biso   1.000  C
  C18      1.0000 0.96310  0.44390  0.64223  Biso   1.000  C
  H41      1.0000 0.12040  0.52900  0.36820  Biso   1.000  H
  H42      1.0000 0.87960  0.47100  0.63180  Biso   1.000  H
  H43      1.0000 0.08550  0.65900  0.35530  Biso   1.000  H
  H44      1.0000 0.91450  0.34100  0.64470  Biso   1.000  H
  C19      1.0000 0.92230  0.52370  0.38600  Biso   1.000  C
  C20      1.0000 0.07770  0.47630  0.61400  Biso   1.000  C
  H45      1.0000 0.84570  0.56050  0.37760  Biso   1.000  H
  H46      1.0000 0.15430  0.43950  0.62240  Biso   1.000  H
  H47      1.0000 0.96900  0.56520  0.41380  Biso   1.000  H
  H48      1.0000 0.03100  0.43480  0.58620  Biso   1.000  H
  H49      1.0000 0.86840  0.42150  0.38710  Biso   1.000  H
  H50      1.0000 0.13160  0.57850  0.61290  Biso   1.000  H
  C21      1.0000 0.15890  0.69260  0.24774  Biso   1.000  C
  C22      1.0000 0.84110  0.30740  0.75226  Biso   1.000  C
  H51      1.0000 0.17310  0.77900  0.26470  Biso   1.000  H
  H52      1.0000 0.82690  0.22100  0.73530  Biso   1.000  H
  H53      1.0000 0.04440  0.63890  0.24090  Biso   1.000  H
  H54      1.0000 0.95560  0.36110  0.75910  Biso   1.000  H
  C23      1.0000 0.24800  0.72970  0.20841  Biso   1.000  C
  C24      1.0000 0.75200  0.27030  0.79159  Biso   1.000  C
  H55      1.0000 0.36180  0.77800  0.21540  Biso   1.000  H
  H56      1.0000 0.63820  0.22200  0.78460  Biso   1.000  H
  H57      1.0000 0.21400  0.79140  0.19300  Biso   1.000  H
  H58      1.0000 0.78600  0.20860  0.80700  Biso   1.000  H
  H59      1.0000 0.22720  0.64410  0.19090  Biso   1.000  H
  H60      1.0000 0.77280  0.35590  0.80910  Biso   1.000  H
  C25      1.0000 0.23510  0.93590  0.98500  Biso   1.000  C
  C26      1.0000 0.76490  0.06410  0.01500  Biso   1.000  C
  H61      1.0000 0.29030  0.90400  0.96320  Biso   1.000  H
  H62      1.0000 0.70970  0.09600  0.03680  Biso   1.000  H
  H63      1.0000 0.29550  0.95200  0.01200  Biso   1.000  H
  H64      1.0000 0.70450  0.04800  0.98800  Biso   1.000  H
  C27      1.0000 0.08260  0.83290  0.98900  Biso   1.000  C
  C28      1.0000 0.91740  0.16710  0.01100  Biso   1.000  C
  H65      1.0000 0.04520  0.84320  0.01720  Biso   1.000  H
  H66      1.0000 0.95480  0.15680  0.98280  Biso   1.000  H
  H67      1.0000 0.08350  0.74020  0.98500  Biso   1.000  H
  H68      1.0000 0.91650  0.25980  0.01500  Biso   1.000  H
  H69      1.0000 0.01160  0.84290  0.96780  Biso   1.000  H
  H70      1.0000 0.98840  0.15710  0.03220  Biso   1.000  H
  C29      1.0000 0.50060  0.16330  0.91068  Biso   1.000  C
  C30      1.0000 0.49940  0.83670  0.08932  Biso   1.000  C
  H71      1.0000 0.52060  0.25170  0.89710  Biso   1.000  H
  H72      1.0000 0.47940  0.74830  0.10290  Biso   1.000  H
  H73      1.0000 0.39150  0.09460  0.90280  Biso   1.000  H
  H74      1.0000 0.60850  0.90540  0.09720  Biso   1.000  H
  C31      1.0000 0.61740  0.10780  0.89652  Biso   1.000  C
  C32      1.0000 0.38260  0.89220  0.10348  Biso   1.000  C
  H75      1.0000 0.72470  0.17530  0.90520  Biso   1.000  H
  H76      1.0000 0.27530  0.82470  0.09480  Biso   1.000  H
  H77      1.0000 0.61010  0.09290  0.86580  Biso   1.000  H
  H78      1.0000 0.38990  0.90710  0.13420  Biso   1.000  H
  H79      1.0000 0.59410  0.01850  0.90930  Biso   1.000  H
  H80      1.0000 0.40590  0.98150  0.09070  Biso   1.000  H
  C33      1.0000 0.81300  0.95000  0.45568  Biso   1.000  C
  C34      1.0000 0.18700  0.05000  0.54432  Biso   1.000  C
  H81      1.0000 0.78270  0.91740  0.48300  Biso   1.000  H
  H82      1.0000 0.21730  0.08260  0.51700  Biso   1.000  H
  C35      1.0000 0.78400  0.06490  0.39895  Biso   1.000  C
  C36      1.0000 0.21600  0.93510  0.60105  Biso   1.000  C
  H83      1.0000 0.73300  0.11490  0.38570  Biso   1.000  H
  H84      1.0000 0.26700  0.88510  0.61430  Biso   1.000  H
  C37      1.0000 0.90390  0.04450  0.37815  Biso   1.000  C
  C38      1.0000 0.09610  0.95550  0.62185  Biso   1.000  C
  H85      1.0000 0.93290  0.07940  0.35100  Biso   1.000  H
  H86      1.0000 0.06710  0.92060  0.64900  Biso   1.000  H
  C39      1.0000 0.93500  0.92600  0.43661  Biso   1.000  C
  C40      1.0000 0.06500  0.07400  0.56339  Biso   1.000  C
  H87      1.0000 0.98580  0.87760  0.45080  Biso   1.000  H
  H88      1.0000 0.01420  0.12240  0.54920  Biso   1.000  H
  C41      1.0000 0.98210  0.97280  0.39689  Biso   1.000  C
  C42      1.0000 0.01790  0.02720  0.60311  Biso   1.000  C
  C43      1.0000 0.11360  0.95070  0.37471  Biso   1.000  C
  C44      1.0000 0.88640  0.04930  0.62529  Biso   1.000  C
  H89      1.0000 0.07780  0.91180  0.34560  Biso   1.000  H
  H90      1.0000 0.92220  0.08820  0.65440  Biso   1.000  H
  H91      1.0000 0.14010  0.88220  0.38960  Biso   1.000  H
  H92      1.0000 0.85990  0.11780  0.61040  Biso   1.000  H
  C45      1.0000 0.26020  0.08810  0.37352  Biso   1.000  C
  C46      1.0000 0.73980  0.91190  0.62648  Biso   1.000  C
  H93      1.0000 0.22740  0.15980  0.36330  Biso   1.000  H
  H94      1.0000 0.77260  0.84020  0.63670  Biso   1.000  H
  H95      1.0000 0.30280  0.11840  0.40270  Biso   1.000  H
  H96      1.0000 0.69720  0.88160  0.59730  Biso   1.000  H
  C47      1.0000 0.51000  0.21300  0.33481  Biso   1.000  C
  C48      1.0000 0.49000  0.78700  0.66519  Biso   1.000  C
  H97      1.0000 0.50640  0.29880  0.34420  Biso   1.000  H
  H98      1.0000 0.49360  0.70120  0.65580  Biso   1.000  H
  C49      1.0000 0.39280  0.08590  0.34656  Biso   1.000  C
  C50      1.0000 0.60720  0.91410  0.65344  Biso   1.000  C
  C51      1.0000 0.40630  0.96540  0.33185  Biso   1.000  C
  C52      1.0000 0.59370  0.03460  0.66815  Biso   1.000  C
  H99      1.0000 0.32980  0.87620  0.33890  Biso   1.000  H
  H100     1.0000 0.67020  0.12380  0.66110  Biso   1.000  H
  C53      1.0000 0.63090  0.21410  0.30960  Biso   1.000  C
  C54      1.0000 0.36910  0.78590  0.69040  Biso   1.000  C
  H101     1.0000 0.70880  0.30200  0.30210  Biso   1.000  H
  H102     1.0000 0.29120  0.69800  0.69790  Biso   1.000  H
  C55      1.0000 0.53220  0.97490  0.30667  Biso   1.000  C
  C56      1.0000 0.46780  0.02510  0.69333  Biso   1.000  C
  H103     1.0000 0.53920  0.89050  0.29720  Biso   1.000  H
  H104     1.0000 0.46080  0.10950  0.70280  Biso   1.000  H
  C57      1.0000 0.37960  0.15880  0.21364  Biso   1.000  C
  C58      1.0000 0.62040  0.84120  0.78636  Biso   1.000  C
  H105     1.0000 0.34080  0.08160  0.23120  Biso   1.000  H
  H106     1.0000 0.65920  0.91840  0.76880  Biso   1.000  H
  C59      1.0000 0.36400  0.35260  0.18855  Biso   1.000  C
  C60      1.0000 0.63600  0.64740  0.81145  Biso   1.000  C
  H107     1.0000 0.31510  0.41600  0.18830  Biso   1.000  H
  H108     1.0000 0.68490  0.58400  0.81170  Biso   1.000  H
  C61      1.0000 0.50840  0.17710  0.18931  Biso   1.000  C
  C62      1.0000 0.49160  0.82290  0.81069  Biso   1.000  C
  H109     1.0000 0.55710  0.11370  0.19080  Biso   1.000  H
  H110     1.0000 0.44290  0.88630  0.80920  Biso   1.000  H
  C63      1.0000 0.49210  0.37610  0.16270  Biso   1.000  C
  C64      1.0000 0.50790  0.62390  0.83730  Biso   1.000  C
  H111     1.0000 0.52760  0.45310  0.14510  Biso   1.000  H
  H112     1.0000 0.47240  0.54690  0.85490  Biso   1.000  H
  C65      1.0000 0.56770  0.28640  0.16270  Biso   1.000  C
  C66      1.0000 0.43230  0.71360  0.83730  Biso   1.000  C
  C67      1.0000 0.70600  0.30150  0.13541  Biso   1.000  C
  C68      1.0000 0.29400  0.69850  0.86459  Biso   1.000  C
  H113     1.0000 0.66400  0.25870  0.10700  Biso   1.000  H
  H114     1.0000 0.33600  0.74130  0.89300  Biso   1.000  H
  H115     1.0000 0.76050  0.24730  0.14730  Biso   1.000  H
  H116     1.0000 0.23950  0.75270  0.85270  Biso   1.000  H
  C69      1.0000 0.82810  0.45160  0.13087  Biso   1.000  C
  C70      1.0000 0.17190  0.54840  0.86913  Biso   1.000  C
  H117     1.0000 0.77800  0.50420  0.11600  Biso   1.000  H
  H118     1.0000 0.22200  0.49580  0.88400  Biso   1.000  H
  H119     1.0000 0.86460  0.49840  0.15920  Biso   1.000  H
  H120     1.0000 0.13540  0.50160  0.84080  Biso   1.000  H
  C71      1.0000 0.96900  0.45470  0.10662  Biso   1.000  C
  C72      1.0000 0.03100  0.54530  0.89338  Biso   1.000  C
  C73      1.0000 0.05520  0.38100  0.11954  Biso   1.000  C
  C74      1.0000 0.94480  0.61900  0.88046  Biso   1.000  C
  H121     1.0000 0.02630  0.32860  0.14400  Biso   1.000  H
  H122     1.0000 0.97370  0.67140  0.85600  Biso   1.000  H
  C75      1.0000 0.01910  0.52840  0.07060  Biso   1.000  C
  C76      1.0000 0.98090  0.47160  0.92940  Biso   1.000  C
  H123     1.0000 0.96290  0.57830  0.06000  Biso   1.000  H
  H124     1.0000 0.03710  0.42170  0.94000  Biso   1.000  H
  C77      1.0000 0.18200  0.38450  0.09672  Biso   1.000  C
  C78      1.0000 0.81800  0.61550  0.90328  Biso   1.000  C
  H125     1.0000 0.23680  0.33140  0.10570  Biso   1.000  H
  H126     1.0000 0.76320  0.66860  0.89430  Biso   1.000  H
  C79      1.0000 0.15110  0.52970  0.04994  Biso   1.000  C
  C80      1.0000 0.84890  0.47030  0.95006  Biso   1.000  C
  H127     1.0000 0.18480  0.58340  0.02580  Biso   1.000  H
  H128     1.0000 0.81520  0.41660  0.97420  Biso   1.000  H
