data_image0
_cell_length_a       16.812
_cell_length_b       17.65
_cell_length_c       17.666
_cell_angle_alpha    115.91
_cell_angle_beta     93.08
_cell_angle_gamma    101.93

_symmetry_space_group_name_H-M    "P 1"
_symmetry_int_tables_number       1

loop_
  _symmetry_equiv_pos_as_xyz
  'x, y, z'

loop_
  _atom_site_label
  _atom_site_occupancy
  _atom_site_fract_x
  _atom_site_fract_y
  _atom_site_fract_z
  _atom_site_thermal_displace_type
  _atom_site_B_iso_or_equiv
  _atom_site_type_symbol
  Cu1      1.0000 0.00000  0.50000  0.50000  Biso   1.000  Cu
  Cu2      1.0000 0.47704  0.92319  0.05191  Biso   1.000  Cu
  Cu3      1.0000 0.52296  0.07681  0.94809  Biso   1.000  Cu
  Cu4      1.0000 0.00649  0.67010  0.42860  Biso   1.000  Cu
  Cu5      1.0000 0.99351  0.32990  0.57140  Biso   1.000  Cu
  Cu6      1.0000 0.58200  0.20670  0.84920  Biso   1.000  Cu
  Cu7      1.0000 0.41800  0.79330  0.15080  Biso   1.000  Cu
  K1       1.0000 0.03940  0.89800  0.16680  Biso   1.000  K
  K2       1.0000 0.96060  0.10200  0.83320  Biso   1.000  K
  P1       1.0000 0.74160  0.62820  0.83400  Biso   1.000  P
  P2       1.0000 0.25840  0.37180  0.16600  Biso   1.000  P
  P3       1.0000 0.73900  0.78900  0.73200  Biso   1.000  P
  P4       1.0000 0.26100  0.21100  0.26800  Biso   1.000  P
  W1       1.0000 0.51840  0.71207  0.68427  Biso   1.000  W
  W2       1.0000 0.48160  0.28793  0.31573  Biso   1.000  W
  W3       1.0000 0.83711  0.96330  0.93149  Biso   1.000  W
  W4       1.0000 0.16289  0.03670  0.06851  Biso   1.000  W
  W5       1.0000 0.52296  0.56277  0.78271  Biso   1.000  W
  W6       1.0000 0.47704  0.43723  0.21729  Biso   1.000  W
  W7       1.0000 0.64685  0.60085  0.53219  Biso   1.000  W
  W8       1.0000 0.35315  0.39915  0.46781  Biso   1.000  W
  W9       1.0000 0.61251  0.72907  0.97491  Biso   1.000  W
  W10      1.0000 0.38749  0.27093  0.02509  Biso   1.000  W
  W11      1.0000 0.95460  0.86206  0.79220  Biso   1.000  W
  W12      1.0000 0.04540  0.13794  0.20780  Biso   1.000  W
  W13      1.0000 0.83773  0.81216  0.02738  Biso   1.000  W
  W14      1.0000 0.16227  0.18784  0.97262  Biso   1.000  W
  W15      1.0000 0.85731  0.52436  0.68155  Biso   1.000  W
  W16      1.0000 0.14269  0.47564  0.31845  Biso   1.000  W
  W17      1.0000 0.95620  0.71073  0.88854  Biso   1.000  W
  W18      1.0000 0.04380  0.28927  0.11146  Biso   1.000  W
  W19      1.0000 0.85326  0.67619  0.58539  Biso   1.000  W
  W20      1.0000 0.14674  0.32381  0.41461  Biso   1.000  W
  W21      1.0000 0.61023  0.87886  0.87563  Biso   1.000  W
  W22      1.0000 0.38977  0.12114  0.12437  Biso   1.000  W
  W23      1.0000 0.65086  0.45023  0.62933  Biso   1.000  W
  W24      1.0000 0.34914  0.54977  0.37067  Biso   1.000  W
  W25      1.0000 0.72304  0.99522  0.76701  Biso   1.000  W
  W26      1.0000 0.27696  0.00478  0.23299  Biso   1.000  W
  W27      1.0000 0.64391  0.43029  0.82933  Biso   1.000  W
  W28      1.0000 0.35609  0.56971  0.17067  Biso   1.000  W
  W29      1.0000 0.84382  0.89691  0.62655  Biso   1.000  W
  W30      1.0000 0.15618  0.10309  0.37345  Biso   1.000  W
  W31      1.0000 0.73751  0.60083  0.02092  Biso   1.000  W
  W32      1.0000 0.26249  0.39917  0.97908  Biso   1.000  W
  W33      1.0000 0.63506  0.82354  0.57477  Biso   1.000  W
  W34      1.0000 0.36494  0.17646  0.42523  Biso   1.000  W
  W35      1.0000 0.85240  0.49921  0.87899  Biso   1.000  W
  W36      1.0000 0.14760  0.50079  0.12101  Biso   1.000  W
  O1       1.0000 0.96040  0.80140  0.85630  Biso   1.000  O
  O2       1.0000 0.03960  0.19860  0.14370  Biso   1.000  O
  O3       1.0000 0.66170  0.51780  0.56960  Biso   1.000  O
  O4       1.0000 0.33830  0.48220  0.43040  Biso   1.000  O
  O5       1.0000 0.52000  0.64060  0.89790  Biso   1.000  O
  O6       1.0000 0.48000  0.35940  0.10210  Biso   1.000  O
  O7       1.0000 0.56790  0.62970  0.60510  Biso   1.000  O
  O8       1.0000 0.43210  0.37030  0.39490  Biso   1.000  O
  O9       1.0000 0.85050  0.47900  0.76160  Biso   1.000  O
  O10      1.0000 0.14950  0.52100  0.23840  Biso   1.000  O
  O11      1.0000 0.84690  0.58470  0.61550  Biso   1.000  O
  O12      1.0000 0.15310  0.41530  0.38450  Biso   1.000  O
  O13      1.0000 0.75910  0.43760  0.61490  Biso   1.000  O
  O14      1.0000 0.24090  0.56240  0.38510  Biso   1.000  O
  O15      1.0000 0.51730  0.81030  0.78950  Biso   1.000  O
  O16      1.0000 0.48270  0.18970  0.21050  Biso   1.000  O
  O17      1.0000 0.72330  0.80100  0.01050  Biso   1.000  O
  O18      1.0000 0.27670  0.19900  0.98950  Biso   1.000  O
  O19      1.0000 0.05830  0.71940  0.90650  Biso   1.000  O
  O20      1.0000 0.94170  0.28060  0.09350  Biso   1.000  O
  O21      1.0000 0.66100  0.65340  0.84590  Biso   1.000  O
  O22      1.0000 0.33900  0.34660  0.15410  Biso   1.000  O
  O23      1.0000 0.75400  0.60860  0.50440  Biso   1.000  O
  O24      1.0000 0.24600  0.39140  0.49560  Biso   1.000  O
  O25      1.0000 0.65990  0.41450  0.71790  Biso   1.000  O
  O26      1.0000 0.34010  0.58550  0.28210  Biso   1.000  O
  O27      1.0000 0.74690  0.70270  0.66150  Biso   1.000  O
  O28      1.0000 0.25310  0.29730  0.33850  Biso   1.000  O
  O29      1.0000 0.64960  0.70920  0.52700  Biso   1.000  O
  O30      1.0000 0.35040  0.29080  0.47300  Biso   1.000  O
  O31      1.0000 0.74300  0.56440  0.87370  Biso   1.000  O
  O32      1.0000 0.25700  0.43560  0.12630  Biso   1.000  O
  O33      1.0000 0.91860  0.61350  0.91090  Biso   1.000  O
  O34      1.0000 0.08140  0.38650  0.08910  Biso   1.000  O
  O35      1.0000 0.92470  0.62990  0.77020  Biso   1.000  O
  O36      1.0000 0.07530  0.37010  0.22980  Biso   1.000  O
  O37      1.0000 0.74810  0.57700  0.74010  Biso   1.000  O
  O38      1.0000 0.25190  0.42300  0.25990  Biso   1.000  O
  O39      1.0000 0.86450  0.06050  0.02010  Biso   1.000  O
  O40      1.0000 0.13550  0.93950  0.97990  Biso   1.000  O
  O41      1.0000 0.65010  0.94100  0.66060  Biso   1.000  O
  O42      1.0000 0.34990  0.05900  0.33940  Biso   1.000  O
  O43      1.0000 0.94310  0.78740  0.00030  Biso   1.000  O
  O44      1.0000 0.05690  0.21260  0.99970  Biso   1.000  O
  O45      1.0000 0.56310  0.95240  0.94530  Biso   1.000  O
  O46      1.0000 0.43690  0.04760  0.05470  Biso   1.000  O
  O47      1.0000 0.41720  0.68080  0.63880  Biso   1.000  O
  O48      1.0000 0.58280  0.31920  0.36120  Biso   1.000  O
  O49      1.0000 0.92060  0.75160  0.69050  Biso   1.000  O
  O50      1.0000 0.07940  0.24840  0.30950  Biso   1.000  O
  O51      1.0000 0.65880  0.77760  0.76570  Biso   1.000  O
  O52      1.0000 0.34120  0.22240  0.23430  Biso   1.000  O
  O53      1.0000 0.56630  0.77640  0.06190  Biso   1.000  O
  O54      1.0000 0.43370  0.22360  0.93810  Biso   1.000  O
  O55      1.0000 0.73710  0.85090  0.69020  Biso   1.000  O
  O56      1.0000 0.26290  0.14910  0.30980  Biso   1.000  O
  O57      1.0000 0.74180  0.86410  0.54950  Biso   1.000  O
  O58      1.0000 0.25820  0.13590  0.45050  Biso   1.000  O
  O59      1.0000 0.86610  0.88370  0.13130  Biso   1.000  O
  O60      1.0000 0.13390  0.11630  0.86870  Biso   1.000  O
  O61      1.0000 0.84370  0.77640  0.57450  Biso   1.000  O
  O62      1.0000 0.15630  0.22360  0.42550  Biso   1.000  O
  O63      1.0000 0.59610  0.35500  0.55260  Biso   1.000  O
  O64      1.0000 0.40390  0.64500  0.44740  Biso   1.000  O
  O65      1.0000 0.06310  0.04030  0.11160  Biso   1.000  O
  O66      1.0000 0.93690  0.95970  0.88840  Biso   1.000  O
  O67      1.0000 0.65090  0.65180  0.00400  Biso   1.000  O
  O68      1.0000 0.34910  0.34820  0.99600  Biso   1.000  O
  O69      1.0000 0.59070  0.53320  0.43650  Biso   1.000  O
  O70      1.0000 0.40930  0.46680  0.56350  Biso   1.000  O
  O71      1.0000 0.64320  0.94580  0.81460  Biso   1.000  O
  O72      1.0000 0.35680  0.05420  0.18540  Biso   1.000  O
  O73      1.0000 0.56660  0.49150  0.82690  Biso   1.000  O
  O74      1.0000 0.43340  0.50850  0.17310  Biso   1.000  O
  O75      1.0000 0.55720  0.78750  0.63580  Biso   1.000  O
  O76      1.0000 0.44280  0.21250  0.36420  Biso   1.000  O
  O77      1.0000 0.57040  0.82230  0.49370  Biso   1.000  O
  O78      1.0000 0.42960  0.17770  0.50630  Biso   1.000  O
  O79      1.0000 0.81400  0.70810  0.88270  Biso   1.000  O
  O80      1.0000 0.18600  0.29190  0.11730  Biso   1.000  O
  O81      1.0000 0.81170  0.99830  0.70170  Biso   1.000  O
  O82      1.0000 0.18830  0.00170  0.29830  Biso   1.000  O
  O83      1.0000 0.90960  0.93730  0.57640  Biso   1.000  O
  O84      1.0000 0.09040  0.06270  0.42360  Biso   1.000  O
  O85      1.0000 0.51220  0.64860  0.74840  Biso   1.000  O
  O86      1.0000 0.48780  0.35140  0.25160  Biso   1.000  O
  O87      1.0000 0.72150  0.92640  0.93030  Biso   1.000  O
  O88      1.0000 0.27850  0.07360  0.06970  Biso   1.000  O
  O89      1.0000 0.82470  0.54570  0.99000  Biso   1.000  O
  O90      1.0000 0.17530  0.45430  0.01000  Biso   1.000  O
  O91      1.0000 0.05620  0.89430  0.79050  Biso   1.000  O
  O92      1.0000 0.94380  0.10570  0.20950  Biso   1.000  O
  O93      1.0000 0.91430  0.91140  0.72130  Biso   1.000  O
  O94      1.0000 0.08570  0.08860  0.27870  Biso   1.000  O
  O95      1.0000 0.80400  0.00520  0.85270  Biso   1.000  O
  O96      1.0000 0.19600  0.99480  0.14730  Biso   1.000  O
  O97      1.0000 0.80800  0.70740  0.04190  Biso   1.000  O
  O98      1.0000 0.19200  0.29260  0.95810  Biso   1.000  O
  O99      1.0000 0.75310  0.41210  0.84250  Biso   1.000  O
  O100     1.0000 0.24690  0.58790  0.15750  Biso   1.000  O
  O101     1.0000 0.59330  0.79910  0.91960  Biso   1.000  O
  O102     1.0000 0.40670  0.20090  0.08040  Biso   1.000  O
  O103     1.0000 0.92740  0.47120  0.62920  Biso   1.000  O
  O104     1.0000 0.07260  0.52880  0.37080  Biso   1.000  O
  O105     1.0000 0.81270  0.83040  0.80270  Biso   1.000  O
  O106     1.0000 0.18730  0.16960  0.19730  Biso   1.000  O
  O107     1.0000 0.42310  0.50180  0.75440  Biso   1.000  O
  O108     1.0000 0.57690  0.49820  0.24560  Biso   1.000  O
  O109     1.0000 0.85760  0.88990  0.97940  Biso   1.000  O
  O110     1.0000 0.14240  0.11010  0.02060  Biso   1.000  O
  O111     1.0000 0.92310  0.44640  0.88980  Biso   1.000  O
  O112     1.0000 0.07690  0.55360  0.11020  Biso   1.000  O
  O113     1.0000 0.92440  0.64980  0.51940  Biso   1.000  O
  O114     1.0000 0.07560  0.35020  0.48060  Biso   1.000  O
  O115     1.0000 0.58360  0.33070  0.81070  Biso   1.000  O
  O116     1.0000 0.41640  0.66930  0.18930  Biso   1.000  O
  O117     1.0000 0.57140  0.50560  0.68370  Biso   1.000  O
  O118     1.0000 0.42860  0.49440  0.31630  Biso   1.000  O
  O119     1.0000 0.71270  0.09820  0.80290  Biso   1.000  O
  O120     1.0000 0.28730  0.90180  0.19710  Biso   1.000  O
  O121     1.0000 0.73050  0.61230  0.11930  Biso   1.000  O
  O122     1.0000 0.26950  0.38770  0.88070  Biso   1.000  O
  O123     1.0000 0.66000  0.49410  0.95490  Biso   1.000  O
  O124     1.0000 0.34000  0.50590  0.04510  Biso   1.000  O
  C1       1.0000 0.22540  0.62020  0.66540  Biso   1.000  C
  C2       1.0000 0.77460  0.37980  0.33460  Biso   1.000  C
  H1       1.0000 0.27730  0.60950  0.66570  Biso   1.000  H
  H2       1.0000 0.72270  0.39050  0.33430  Biso   1.000  H
  C3       1.0000 0.16720  0.57160  0.59690  Biso   1.000  C
  C4       1.0000 0.83280  0.42840  0.40310  Biso   1.000  C
  H3       1.0000 0.18230  0.52990  0.54970  Biso   1.000  H
  H4       1.0000 0.81770  0.47010  0.45030  Biso   1.000  H
  C5       1.0000 0.07090  0.64390  0.65640  Biso   1.000  C
  C6       1.0000 0.92910  0.35610  0.34360  Biso   1.000  C
  H5       1.0000 0.01870  0.65370  0.65510  Biso   1.000  H
  H6       1.0000 0.98130  0.34630  0.34490  Biso   1.000  H
  C7       1.0000 0.13130  0.69920  0.72890  Biso   1.000  C
  C8       1.0000 0.86870  0.30080  0.27110  Biso   1.000  C
  H7       1.0000 0.11850  0.74580  0.77330  Biso   1.000  H
  H8       1.0000 0.88150  0.25420  0.22670  Biso   1.000  H
  C9       1.0000 0.20820  0.68620  0.73580  Biso   1.000  C
  C10      1.0000 0.79180  0.31380  0.26420  Biso   1.000  C
  C11      1.0000 0.26910  0.74010  0.81230  Biso   1.000  C
  C12      1.0000 0.73090  0.25990  0.18770  Biso   1.000  C
  C13      1.0000 0.34280  0.71970  0.82600  Biso   1.000  C
  C14      1.0000 0.65720  0.28030  0.17400  Biso   1.000  C
  H9       1.0000 0.35410  0.66930  0.78570  Biso   1.000  H
  H10      1.0000 0.64590  0.33070  0.21430  Biso   1.000  H
  C15      1.0000 0.39830  0.77460  0.89930  Biso   1.000  C
  C16      1.0000 0.60170  0.22540  0.10070  Biso   1.000  C
  H11      1.0000 0.44740  0.76030  0.90640  Biso   1.000  H
  H12      1.0000 0.55260  0.23970  0.09360  Biso   1.000  H
  C17      1.0000 0.31430  0.86500  0.95310  Biso   1.000  C
  C18      1.0000 0.68570  0.13500  0.04690  Biso   1.000  C
  H13      1.0000 0.30230  0.91100  0.99890  Biso   1.000  H
  H14      1.0000 0.69770  0.08900  0.00110  Biso   1.000  H
  C19      1.0000 0.25580  0.81710  0.87810  Biso   1.000  C
  C20      1.0000 0.74420  0.18290  0.12190  Biso   1.000  C
  H15      1.0000 0.20900  0.83550  0.87160  Biso   1.000  H
  H16      1.0000 0.79100  0.16450  0.12840  Biso   1.000  H
  C21      1.0000 0.71010  0.03010  0.20220  Biso   1.000  C
  C22      1.0000 0.28990  0.96990  0.79780  Biso   1.000  C
  H17      1.0000 0.76210  0.01990  0.19630  Biso   1.000  H
  H18      1.0000 0.23790  0.98010  0.80370  Biso   1.000  H
  C23      1.0000 0.64760  0.98050  0.13380  Biso   1.000  C
  C24      1.0000 0.35240  0.01950  0.86620  Biso   1.000  C
  H19      1.0000 0.65910  0.94220  0.08190  Biso   1.000  H
  H20      1.0000 0.34090  0.05780  0.91810  Biso   1.000  H
  C25      1.0000 0.55620  0.04690  0.21930  Biso   1.000  C
  C26      1.0000 0.44380  0.95310  0.78070  Biso   1.000  C
  H21      1.0000 0.50290  0.05120  0.22790  Biso   1.000  H
  H22      1.0000 0.49710  0.94880  0.77210  Biso   1.000  H
  C27      1.0000 0.62020  0.10080  0.28510  Biso   1.000  C
  C28      1.0000 0.37980  0.89920  0.71490  Biso   1.000  C
  H23      1.0000 0.60920  0.14300  0.33500  Biso   1.000  H
  H24      1.0000 0.39080  0.85700  0.66500  Biso   1.000  H
  C29      1.0000 0.70050  0.09410  0.27920  Biso   1.000  C
  C30      1.0000 0.29950  0.90590  0.72080  Biso   1.000  C
  C31      1.0000 0.77040  0.15010  0.35190  Biso   1.000  C
  C32      1.0000 0.22960  0.84990  0.64810  Biso   1.000  C
  C33      1.0000 0.83790  0.12110  0.35550  Biso   1.000  C
  C34      1.0000 0.16210  0.87890  0.64450  Biso   1.000  C
  H25      1.0000 0.84130  0.06670  0.31500  Biso   1.000  H
  H26      1.0000 0.15870  0.93330  0.68500  Biso   1.000  H
  C35      1.0000 0.90470  0.17770  0.42440  Biso   1.000  C
  C36      1.0000 0.09530  0.82230  0.57560  Biso   1.000  C
  H27      1.0000 0.95280  0.15970  0.42540  Biso   1.000  H
  H28      1.0000 0.04720  0.84030  0.57460  Biso   1.000  H
  C37      1.0000 0.83230  0.27880  0.48570  Biso   1.000  C
  C38      1.0000 0.16770  0.72120  0.51430  Biso   1.000  C
  H29      1.0000 0.82750  0.32980  0.53110  Biso   1.000  H
  H30      1.0000 0.17250  0.67020  0.46890  Biso   1.000  H
  C39      1.0000 0.76530  0.22750  0.41530  Biso   1.000  C
  C40      1.0000 0.23470  0.77250  0.58470  Biso   1.000  C
  H31      1.0000 0.71860  0.24750  0.41310  Biso   1.000  H
  H32      1.0000 0.28140  0.75250  0.58690  Biso   1.000  H
  C41      1.0000 0.79320  0.52760  0.25160  Biso   1.000  C
  C42      1.0000 0.20680  0.47240  0.74840  Biso   1.000  C
  H33      1.0000 0.73690  0.52040  0.25230  Biso   1.000  H
  H34      1.0000 0.26310  0.47960  0.74770  Biso   1.000  H
  C43      1.0000 0.84390  0.58080  0.32220  Biso   1.000  C
  C44      1.0000 0.15610  0.41920  0.67780  Biso   1.000  C
  H35      1.0000 0.82200  0.60550  0.37200  Biso   1.000  H
  H36      1.0000 0.17800  0.39450  0.62800  Biso   1.000  H
  C45      1.0000 0.95450  0.55600  0.25500  Biso   1.000  C
  C46      1.0000 0.04550  0.44400  0.74500  Biso   1.000  C
  H37      1.0000 0.01100  0.56320  0.25580  Biso   1.000  H
  H38      1.0000 0.98900  0.43680  0.74420  Biso   1.000  H
  C47      1.0000 0.90260  0.49760  0.17900  Biso   1.000  C
  C48      1.0000 0.09740  0.50240  0.82100  Biso   1.000  C
  H39      1.0000 0.92400  0.46920  0.12980  Biso   1.000  H
  H40      1.0000 0.07600  0.53080  0.87020  Biso   1.000  H
  C49      1.0000 0.81860  0.48250  0.17740  Biso   1.000  C
  C50      1.0000 0.18140  0.51750  0.82260  Biso   1.000  C
  C51      1.0000 0.76220  0.41810  0.09800  Biso   1.000  C
  C52      1.0000 0.23780  0.58190  0.90200  Biso   1.000  C
  C53      1.0000 0.67850  0.41520  0.08030  Biso   1.000  C
  C54      1.0000 0.32150  0.58480  0.91970  Biso   1.000  C
  H41      1.0000 0.65630  0.45640  0.12060  Biso   1.000  H
  H42      1.0000 0.34370  0.54360  0.87940  Biso   1.000  H
  C55      1.0000 0.63070  0.35520  0.00750  Biso   1.000  C
  C56      1.0000 0.36930  0.64480  0.99250  Biso   1.000  C
  H43      1.0000 0.57710  0.35880  0.99700  Biso   1.000  H
  H44      1.0000 0.42290  0.64120  0.00300  Biso   1.000  H
  C57      1.0000 0.73340  0.28680  0.96420  Biso   1.000  C
  C58      1.0000 0.26660  0.71320  0.03580  Biso   1.000  C
  H45      1.0000 0.75290  0.24250  0.92420  Biso   1.000  H
  H46      1.0000 0.24710  0.75750  0.07580  Biso   1.000  H
  C59      1.0000 0.78460  0.34640  0.03650  Biso   1.000  C
  C60      1.0000 0.21540  0.65360  0.96350  Biso   1.000  C
  H47      1.0000 0.83710  0.33980  0.04600  Biso   1.000  H
  H48      1.0000 0.16290  0.66020  0.95400  Biso   1.000  H
  C61      1.0000 0.37910  0.06510  0.65530  Biso   1.000  C
  C62      1.0000 0.62090  0.93490  0.34470  Biso   1.000  C
  H49      1.0000 0.32410  0.06530  0.64630  Biso   1.000  H
  H50      1.0000 0.67590  0.93470  0.35370  Biso   1.000  H
  C63      1.0000 0.43510  0.12750  0.73640  Biso   1.000  C
  C64      1.0000 0.56490  0.87250  0.26360  Biso   1.000  C
  H51      1.0000 0.41490  0.16740  0.78040  Biso   1.000  H
  H52      1.0000 0.58510  0.83260  0.21960  Biso   1.000  H
  C65      1.0000 0.54190  0.06700  0.68210  Biso   1.000  C
  C66      1.0000 0.45810  0.93300  0.31790  Biso   1.000  C
  H53      1.0000 0.59720  0.06750  0.68930  Biso   1.000  H
  H54      1.0000 0.40280  0.93250  0.31070  Biso   1.000  H
  C67      1.0000 0.49300  0.00680  0.60820  Biso   1.000  C
  C68      1.0000 0.50700  0.99320  0.39180  Biso   1.000  C
  H55      1.0000 0.51430  0.96530  0.56710  Biso   1.000  H
  H56      1.0000 0.48570  0.03470  0.43290  Biso   1.000  H
  C69      1.0000 0.41350  0.00660  0.59370  Biso   1.000  C
  C70      1.0000 0.58650  0.99340  0.40630  Biso   1.000  C
  C71      1.0000 0.35900  0.94340  0.50990  Biso   1.000  C
  C72      1.0000 0.64100  0.05660  0.49010  Biso   1.000  C
  C73      1.0000 0.29860  0.96270  0.48030  Biso   1.000  C
  C74      1.0000 0.70140  0.03730  0.51970  Biso   1.000  C
  H57      1.0000 0.29090  0.01820  0.51070  Biso   1.000  H
  H58      1.0000 0.70910  0.98180  0.48930  Biso   1.000  H
  C75      1.0000 0.24500  0.90520  0.40600  Biso   1.000  C
  C76      1.0000 0.75500  0.09480  0.59400  Biso   1.000  C
  H59      1.0000 0.20340  0.92320  0.38630  Biso   1.000  H
  H60      1.0000 0.79660  0.07680  0.61370  Biso   1.000  H
  C77      1.0000 0.31630  0.80290  0.39230  Biso   1.000  C
  C78      1.0000 0.68370  0.19710  0.60770  Biso   1.000  C
  H61      1.0000 0.32580  0.74850  0.36050  Biso   1.000  H
  H62      1.0000 0.67420  0.25150  0.63950  Biso   1.000  H
  C79      1.0000 0.36780  0.85750  0.46690  Biso   1.000  C
  C80      1.0000 0.63220  0.14250  0.53310  Biso   1.000  C
  H63      1.0000 0.40720  0.83910  0.48890  Biso   1.000  H
  H64      1.0000 0.59280  0.16090  0.51110  Biso   1.000  H
  C81      1.0000 0.19600  0.76200  0.26600  Biso   1.000  C
  C82      1.0000 0.80400  0.23800  0.73400  Biso   1.000  C
  H65      1.0000 0.21860  0.71640  0.22690  Biso   1.000  H
  H66      1.0000 0.78140  0.28360  0.77310  Biso   1.000  H
  H67      1.0000 0.17980  0.79570  0.23890  Biso   1.000  H
  H68      1.0000 0.82020  0.20430  0.76110  Biso   1.000  H
  C83      1.0000 0.13900  0.73500  0.30200  Biso   1.000  C
  C84      1.0000 0.86100  0.26500  0.69800  Biso   1.000  C
  H69      1.0000 0.11760  0.78350  0.33820  Biso   1.000  H
  H70      1.0000 0.88240  0.21650  0.66180  Biso   1.000  H
  H71      1.0000 0.09460  0.69040  0.25970  Biso   1.000  H
  H72      1.0000 0.90540  0.30960  0.74030  Biso   1.000  H
  H73      1.0000 0.16180  0.71300  0.33660  Biso   1.000  H
  H74      1.0000 0.83820  0.28700  0.66340  Biso   1.000  H
  N1       1.0000 0.08680  0.57720  0.58910  Biso   1.000  N
  N2       1.0000 0.91320  0.42280  0.41090  Biso   1.000  N
  N3       1.0000 0.38630  0.84680  0.96070  Biso   1.000  N
  N4       1.0000 0.61370  0.15320  0.03930  Biso   1.000  N
  N5       1.0000 0.56720  0.98730  0.14190  Biso   1.000  N
  N6       1.0000 0.43280  0.01270  0.85810  Biso   1.000  N
  N7       1.0000 0.90200  0.25180  0.48490  Biso   1.000  N
  N8       1.0000 0.09800  0.74820  0.51510  Biso   1.000  N
  N9       1.0000 0.92860  0.60240  0.32710  Biso   1.000  N
  N10      1.0000 0.07140  0.39760  0.67290  Biso   1.000  N
  N11      1.0000 0.65610  0.28920  0.94800  Biso   1.000  N
  N12      1.0000 0.34390  0.71080  0.05200  Biso   1.000  N
  N13      1.0000 0.51370  0.12710  0.74680  Biso   1.000  N
  N14      1.0000 0.48630  0.87290  0.25320  Biso   1.000  N
  N15      1.0000 0.25200  0.82160  0.36050  Biso   1.000  N
  N16      1.0000 0.74800  0.17840  0.63950  Biso   1.000  N
  O125     1.0000 0.98800  0.68400  0.10300  Biso   1.000  O
  O126     1.0000 0.01200  0.31600  0.89700  Biso   1.000  O
  O127     1.0000 0.56760  0.66180  0.35310  Biso   1.000  O
  O128     1.0000 0.43240  0.33820  0.64690  Biso   1.000  O
  O129     1.0000 0.41250  0.34640  0.81600  Biso   1.000  O
  O130     1.0000 0.58750  0.65360  0.18400  Biso   1.000  O
  O131     1.0000 0.50000  0.50000  0.00000  Biso   1.000  O
