data_image0
_cell_length_a       16.096
_cell_length_b       6.518
_cell_length_c       18.01
_cell_angle_alpha    90
_cell_angle_beta     90
_cell_angle_gamma    90

_symmetry_space_group_name_H-M    "P 1"
_symmetry_int_tables_number       1

loop_
  _symmetry_equiv_pos_as_xyz
  'x, y, z'

loop_
  _atom_site_label
  _atom_site_occupancy
  _atom_site_fract_x
  _atom_site_fract_y
  _atom_site_fract_z
  _atom_site_thermal_displace_type
  _atom_site_B_iso_or_equiv
  _atom_site_type_symbol
  Br1      1.0000 0.10151  0.13231  0.38326  Biso   1.000  Br
  Br2      1.0000 0.60151  0.13231  0.11674  Biso   1.000  Br
  Br3      1.0000 0.10151  0.36769  0.88326  Biso   1.000  Br
  Br4      1.0000 0.39849  0.63231  0.38326  Biso   1.000  Br
  Br5      1.0000 0.89849  0.86769  0.61674  Biso   1.000  Br
  Br6      1.0000 0.39849  0.86769  0.88326  Biso   1.000  Br
  Br7      1.0000 0.89849  0.63231  0.11674  Biso   1.000  Br
  Br8      1.0000 0.60151  0.36769  0.61674  Biso   1.000  Br
  Br9      1.0000 0.17753  0.64671  0.50551  Biso   1.000  Br
  Br10     1.0000 0.67753  0.64671  0.99449  Biso   1.000  Br
  Br11     1.0000 0.17753  0.85329  0.00551  Biso   1.000  Br
  Br12     1.0000 0.32247  0.14671  0.50551  Biso   1.000  Br
  Br13     1.0000 0.82247  0.35329  0.49449  Biso   1.000  Br
  Br14     1.0000 0.32247  0.35329  0.00551  Biso   1.000  Br
  Br15     1.0000 0.82247  0.14671  0.99449  Biso   1.000  Br
  Br16     1.0000 0.67753  0.85329  0.49449  Biso   1.000  Br
  Br17     1.0000 0.16961  0.63287  0.27057  Biso   1.000  Br
  Br18     1.0000 0.66961  0.63287  0.22943  Biso   1.000  Br
  Br19     1.0000 0.16961  0.86713  0.77057  Biso   1.000  Br
  Br20     1.0000 0.33039  0.13287  0.27057  Biso   1.000  Br
  Br21     1.0000 0.83039  0.36713  0.72943  Biso   1.000  Br
  Br22     1.0000 0.33039  0.36713  0.77057  Biso   1.000  Br
  Br23     1.0000 0.83039  0.13287  0.22943  Biso   1.000  Br
  Br24     1.0000 0.66961  0.86713  0.72943  Biso   1.000  Br
  Cu1      1.0000 0.11794  0.50943  0.39256  Biso   1.000  Cu
  Cu2      1.0000 0.61794  0.50943  0.10744  Biso   1.000  Cu
  Cu3      1.0000 0.11794  0.99057  0.89256  Biso   1.000  Cu
  Cu4      1.0000 0.38206  0.00943  0.39256  Biso   1.000  Cu
  Cu5      1.0000 0.88206  0.49057  0.60744  Biso   1.000  Cu
  Cu6      1.0000 0.38206  0.49057  0.89256  Biso   1.000  Cu
  Cu7      1.0000 0.88206  0.00943  0.10744  Biso   1.000  Cu
  Cu8      1.0000 0.61794  0.99057  0.60744  Biso   1.000  Cu
  Cu9      1.0000 0.18893  0.01088  0.28046  Biso   1.000  Cu
  Cu10     1.0000 0.68893  0.01088  0.21954  Biso   1.000  Cu
  Cu11     1.0000 0.18893  0.48912  0.78046  Biso   1.000  Cu
  Cu12     1.0000 0.31107  0.51088  0.28046  Biso   1.000  Cu
  Cu13     1.0000 0.81107  0.98912  0.71954  Biso   1.000  Cu
  Cu14     1.0000 0.31107  0.98912  0.78046  Biso   1.000  Cu
  Cu15     1.0000 0.81107  0.51088  0.21954  Biso   1.000  Cu
  Cu16     1.0000 0.68893  0.48912  0.71954  Biso   1.000  Cu
  Cu17     1.0000 0.17711  0.01853  0.49534  Biso   1.000  Cu
  Cu18     1.0000 0.67711  0.01853  0.00466  Biso   1.000  Cu
  Cu19     1.0000 0.17711  0.48147  0.99534  Biso   1.000  Cu
  Cu20     1.0000 0.32289  0.51853  0.49534  Biso   1.000  Cu
  Cu21     1.0000 0.82289  0.98147  0.50466  Biso   1.000  Cu
  Cu22     1.0000 0.32289  0.98147  0.99534  Biso   1.000  Cu
  Cu23     1.0000 0.82289  0.51853  0.00466  Biso   1.000  Cu
  Cu24     1.0000 0.67711  0.48147  0.50466  Biso   1.000  Cu
  N1       1.0000 0.99500  0.61080  0.38540  Biso   1.000  N
  N2       1.0000 0.49500  0.61080  0.11460  Biso   1.000  N
  N3       1.0000 0.99500  0.88920  0.88540  Biso   1.000  N
  N4       1.0000 0.50500  0.11080  0.38540  Biso   1.000  N
  N5       1.0000 0.00500  0.38920  0.61460  Biso   1.000  N
  N6       1.0000 0.50500  0.38920  0.88540  Biso   1.000  N
  N7       1.0000 0.00500  0.11080  0.11460  Biso   1.000  N
  N8       1.0000 0.49500  0.88920  0.61460  Biso   1.000  N
  C1       1.0000 0.94900  0.54780  0.32880  Biso   1.000  C
  C2       1.0000 0.44900  0.54780  0.17120  Biso   1.000  C
  C3       1.0000 0.94900  0.95220  0.82880  Biso   1.000  C
  C4       1.0000 0.55100  0.04780  0.32880  Biso   1.000  C
  C5       1.0000 0.05100  0.45220  0.67120  Biso   1.000  C
  C6       1.0000 0.55100  0.45220  0.82880  Biso   1.000  C
  C7       1.0000 0.05100  0.04780  0.17120  Biso   1.000  C
  C8       1.0000 0.44900  0.95220  0.67120  Biso   1.000  C
  H1       1.0000 0.97210  0.44720  0.29670  Biso   1.000  H
  H2       1.0000 0.47210  0.44720  0.20330  Biso   1.000  H
  H3       1.0000 0.97210  0.05280  0.79670  Biso   1.000  H
  H4       1.0000 0.52790  0.94720  0.29670  Biso   1.000  H
  H5       1.0000 0.02790  0.55280  0.70330  Biso   1.000  H
  H6       1.0000 0.52790  0.55280  0.79670  Biso   1.000  H
  H7       1.0000 0.02790  0.94720  0.20330  Biso   1.000  H
  H8       1.0000 0.47210  0.05280  0.70330  Biso   1.000  H
  N9       1.0000 0.87240  0.61530  0.31360  Biso   1.000  N
  N10      1.0000 0.37240  0.61530  0.18640  Biso   1.000  N
  N11      1.0000 0.87240  0.88470  0.81360  Biso   1.000  N
  N12      1.0000 0.62760  0.11530  0.31360  Biso   1.000  N
  N13      1.0000 0.12760  0.38470  0.68640  Biso   1.000  N
  N14      1.0000 0.62760  0.38470  0.81360  Biso   1.000  N
  N15      1.0000 0.12760  0.11530  0.18640  Biso   1.000  N
  N16      1.0000 0.37240  0.88470  0.68640  Biso   1.000  N
  C9       1.0000 0.84200  0.75120  0.36230  Biso   1.000  C
  C10      1.0000 0.34200  0.75120  0.13770  Biso   1.000  C
  C11      1.0000 0.84200  0.74880  0.86230  Biso   1.000  C
  C12      1.0000 0.65800  0.25120  0.36230  Biso   1.000  C
  C13      1.0000 0.15800  0.24880  0.63770  Biso   1.000  C
  C14      1.0000 0.65800  0.24880  0.86230  Biso   1.000  C
  C15      1.0000 0.15800  0.25120  0.13770  Biso   1.000  C
  C16      1.0000 0.34200  0.74880  0.63770  Biso   1.000  C
  H9       1.0000 0.78730  0.80090  0.35410  Biso   1.000  H
  H10      1.0000 0.28730  0.80090  0.14590  Biso   1.000  H
  H11      1.0000 0.78730  0.69910  0.85410  Biso   1.000  H
  H12      1.0000 0.71270  0.30090  0.35410  Biso   1.000  H
  H13      1.0000 0.21270  0.19910  0.64590  Biso   1.000  H
  H14      1.0000 0.71270  0.19910  0.85410  Biso   1.000  H
  H15      1.0000 0.21270  0.30090  0.14590  Biso   1.000  H
  H16      1.0000 0.28730  0.69910  0.64590  Biso   1.000  H
  N17      1.0000 0.88300  0.82250  0.42180  Biso   1.000  N
  N18      1.0000 0.38300  0.82250  0.07820  Biso   1.000  N
  N19      1.0000 0.88300  0.67750  0.92180  Biso   1.000  N
  N20      1.0000 0.61700  0.32250  0.42180  Biso   1.000  N
  N21      1.0000 0.11700  0.17750  0.57820  Biso   1.000  N
  N22      1.0000 0.61700  0.17750  0.92180  Biso   1.000  N
  N23      1.0000 0.11700  0.32250  0.07820  Biso   1.000  N
  N24      1.0000 0.38300  0.67750  0.57820  Biso   1.000  N
  C17      1.0000 0.95970  0.74790  0.43040  Biso   1.000  C
  C18      1.0000 0.45970  0.74790  0.06960  Biso   1.000  C
  C19      1.0000 0.95970  0.75210  0.93040  Biso   1.000  C
  C20      1.0000 0.54030  0.24790  0.43040  Biso   1.000  C
  C21      1.0000 0.04030  0.25210  0.56960  Biso   1.000  C
  C22      1.0000 0.54030  0.25210  0.93040  Biso   1.000  C
  C23      1.0000 0.04030  0.24790  0.06960  Biso   1.000  C
  C24      1.0000 0.45970  0.75210  0.56960  Biso   1.000  C
  H17      1.0000 0.99130  0.79580  0.47150  Biso   1.000  H
  H18      1.0000 0.49130  0.79580  0.02850  Biso   1.000  H
  H19      1.0000 0.99130  0.70420  0.97150  Biso   1.000  H
  H20      1.0000 0.50870  0.29580  0.47150  Biso   1.000  H
  H21      1.0000 0.00870  0.20420  0.52850  Biso   1.000  H
  H22      1.0000 0.50870  0.20420  0.97150  Biso   1.000  H
  H23      1.0000 0.00870  0.29580  0.02850  Biso   1.000  H
  H24      1.0000 0.49130  0.70420  0.52850  Biso   1.000  H
