data_image0
_cell_length_a       14.247
_cell_length_b       14.247
_cell_length_c       6.415
_cell_angle_alpha    90
_cell_angle_beta     90
_cell_angle_gamma    120

_symmetry_space_group_name_H-M    "P 1"
_symmetry_int_tables_number       1

loop_
  _symmetry_equiv_pos_as_xyz
  'x, y, z'

loop_
  _atom_site_label
  _atom_site_occupancy
  _atom_site_fract_x
  _atom_site_fract_y
  _atom_site_fract_z
  _atom_site_thermal_displace_type
  _atom_site_B_iso_or_equiv
  _atom_site_type_symbol
  N1       1.0000 0.54850  0.85550  0.23880  Biso   1.000  N
  N2       1.0000 0.14450  0.69300  0.23880  Biso   1.000  N
  N3       1.0000 0.30700  0.45150  0.23880  Biso   1.000  N
  N4       1.0000 0.45150  0.14450  0.73880  Biso   1.000  N
  N5       1.0000 0.85550  0.30700  0.73880  Biso   1.000  N
  N6       1.0000 0.69300  0.54850  0.73880  Biso   1.000  N
  N7       1.0000 0.14450  0.45150  0.23880  Biso   1.000  N
  N8       1.0000 0.30700  0.85550  0.23880  Biso   1.000  N
  N9       1.0000 0.54850  0.69300  0.23880  Biso   1.000  N
  N10      1.0000 0.85550  0.54850  0.73880  Biso   1.000  N
  N11      1.0000 0.69300  0.14450  0.73880  Biso   1.000  N
  N12      1.0000 0.45150  0.30700  0.73880  Biso   1.000  N
  N13      1.0000 0.66630  0.83310  0.45500  Biso   1.000  N
  N14      1.0000 0.16690  0.83320  0.45500  Biso   1.000  N
  N15      1.0000 0.16680  0.33370  0.45500  Biso   1.000  N
  N16      1.0000 0.33370  0.16690  0.95500  Biso   1.000  N
  N17      1.0000 0.83310  0.16680  0.95500  Biso   1.000  N
  N18      1.0000 0.83320  0.66630  0.95500  Biso   1.000  N
  C1       1.0000 0.62370  0.89250  0.39060  Biso   1.000  C
  C2       1.0000 0.10750  0.73120  0.39060  Biso   1.000  C
  C3       1.0000 0.26880  0.37630  0.39060  Biso   1.000  C
  C4       1.0000 0.37630  0.10750  0.89060  Biso   1.000  C
  C5       1.0000 0.89250  0.26880  0.89060  Biso   1.000  C
  C6       1.0000 0.73120  0.62370  0.89060  Biso   1.000  C
  C7       1.0000 0.10750  0.37630  0.39060  Biso   1.000  C
  C8       1.0000 0.26880  0.89250  0.39060  Biso   1.000  C
  C9       1.0000 0.62370  0.73120  0.39060  Biso   1.000  C
  C10      1.0000 0.89250  0.62370  0.89060  Biso   1.000  C
  C11      1.0000 0.73120  0.10750  0.89060  Biso   1.000  C
  C12      1.0000 0.37630  0.26880  0.89060  Biso   1.000  C
  H1       1.0000 0.68510  0.64640  0.95210  Biso   1.000  H
  H2       1.0000 0.35360  0.03870  0.95210  Biso   1.000  H
  H3       1.0000 0.96130  0.31490  0.95210  Biso   1.000  H
  H4       1.0000 0.31490  0.35360  0.45210  Biso   1.000  H
  H5       1.0000 0.64640  0.96130  0.45210  Biso   1.000  H
  H6       1.0000 0.03870  0.68510  0.45210  Biso   1.000  H
  H7       1.0000 0.35360  0.31490  0.95210  Biso   1.000  H
  H8       1.0000 0.96130  0.64640  0.95210  Biso   1.000  H
  H9       1.0000 0.68510  0.03870  0.95210  Biso   1.000  H
  H10      1.0000 0.64640  0.68510  0.45210  Biso   1.000  H
  H11      1.0000 0.03870  0.35360  0.45210  Biso   1.000  H
  H12      1.0000 0.31490  0.96130  0.45210  Biso   1.000  H
  C13      1.0000 0.51690  0.75840  0.15300  Biso   1.000  C
  C14      1.0000 0.24160  0.75850  0.15300  Biso   1.000  C
  C15      1.0000 0.24150  0.48310  0.15300  Biso   1.000  C
  C16      1.0000 0.48310  0.24160  0.65300  Biso   1.000  C
  C17      1.0000 0.75840  0.24150  0.65300  Biso   1.000  C
  C18      1.0000 0.75850  0.51690  0.65300  Biso   1.000  C
  H13      1.0000 0.47230  0.73610  0.03270  Biso   1.000  H
  H14      1.0000 0.26390  0.73620  0.03270  Biso   1.000  H
  H15      1.0000 0.26380  0.52770  0.03270  Biso   1.000  H
  H16      1.0000 0.52770  0.26390  0.53270  Biso   1.000  H
  H17      1.0000 0.73610  0.26380  0.53270  Biso   1.000  H
  H18      1.0000 0.73620  0.47230  0.53270  Biso   1.000  H
  Br1      1.0000 0.80550  0.90275  0.99170  Biso   1.000  Br
  Br2      1.0000 0.09725  0.90275  0.99170  Biso   1.000  Br
  Br3      1.0000 0.09725  0.19450  0.99170  Biso   1.000  Br
  Br4      1.0000 0.19450  0.09725  0.49170  Biso   1.000  Br
  Br5      1.0000 0.90275  0.09725  0.49170  Biso   1.000  Br
  Br6      1.0000 0.90275  0.80550  0.49170  Biso   1.000  Br
  Br7      1.0000 0.44034  0.55966  0.75550  Biso   1.000  Br
  Br8      1.0000 0.44034  0.88068  0.75550  Biso   1.000  Br
  Br9      1.0000 0.11932  0.55966  0.75550  Biso   1.000  Br
  Br10     1.0000 0.55966  0.44034  0.25550  Biso   1.000  Br
  Br11     1.0000 0.55966  0.11932  0.25550  Biso   1.000  Br
  Br12     1.0000 0.88068  0.44034  0.25550  Biso   1.000  Br
  Cu1      1.0000 0.90633  0.81266  0.11430  Biso   1.000  Cu
  Cu2      1.0000 0.18734  0.09367  0.11430  Biso   1.000  Cu
  Cu3      1.0000 0.90633  0.09367  0.11430  Biso   1.000  Cu
  Cu4      1.0000 0.09367  0.18734  0.61430  Biso   1.000  Cu
  Cu5      1.0000 0.81266  0.90633  0.61430  Biso   1.000  Cu
  Cu6      1.0000 0.09367  0.90633  0.61430  Biso   1.000  Cu
  Cu7      1.0000 0.46790  0.53210  0.13420  Biso   1.000  Cu
  Cu8      1.0000 0.46790  0.93580  0.13420  Biso   1.000  Cu
  Cu9      1.0000 0.06420  0.53210  0.13420  Biso   1.000  Cu
  Cu10     1.0000 0.53210  0.46790  0.63420  Biso   1.000  Cu
  Cu11     1.0000 0.53210  0.06420  0.63420  Biso   1.000  Cu
  Cu12     1.0000 0.93580  0.46790  0.63420  Biso   1.000  Cu
