data_image0
_cell_length_a       15.38
_cell_length_b       7.7248
_cell_length_c       6.913
_cell_angle_alpha    90
_cell_angle_beta     90
_cell_angle_gamma    90

_symmetry_space_group_name_H-M    "P 1"
_symmetry_int_tables_number       1

loop_
  _symmetry_equiv_pos_as_xyz
  'x, y, z'

loop_
  _atom_site_label
  _atom_site_occupancy
  _atom_site_fract_x
  _atom_site_fract_y
  _atom_site_fract_z
  _atom_site_thermal_displace_type
  _atom_site_B_iso_or_equiv
  _atom_site_type_symbol
  N1       1.0000 0.07640  0.26820  0.11060  Biso   1.000  N
  N2       1.0000 0.92360  0.73180  0.61060  Biso   1.000  N
  N3       1.0000 0.07640  0.73180  0.61060  Biso   1.000  N
  N4       1.0000 0.92360  0.26820  0.11060  Biso   1.000  N
  N5       1.0000 0.57640  0.76820  0.11060  Biso   1.000  N
  N6       1.0000 0.42360  0.23180  0.61060  Biso   1.000  N
  N7       1.0000 0.57640  0.23180  0.61060  Biso   1.000  N
  N8       1.0000 0.42360  0.76820  0.11060  Biso   1.000  N
  C1       1.0000 0.07360  0.39920  0.98430  Biso   1.000  C
  C2       1.0000 0.92640  0.60080  0.48430  Biso   1.000  C
  C3       1.0000 0.07360  0.60080  0.48430  Biso   1.000  C
  C4       1.0000 0.92640  0.39920  0.98430  Biso   1.000  C
  C5       1.0000 0.57360  0.89920  0.98430  Biso   1.000  C
  C6       1.0000 0.42640  0.10080  0.48430  Biso   1.000  C
  C7       1.0000 0.57360  0.10080  0.48430  Biso   1.000  C
  C8       1.0000 0.42640  0.89920  0.98430  Biso   1.000  C
  H1       1.0000 0.12710  0.44470  0.93820  Biso   1.000  H
  H2       1.0000 0.87290  0.55530  0.43820  Biso   1.000  H
  H3       1.0000 0.12710  0.55530  0.43820  Biso   1.000  H
  H4       1.0000 0.87290  0.44470  0.93820  Biso   1.000  H
  H5       1.0000 0.62710  0.94470  0.93820  Biso   1.000  H
  H6       1.0000 0.37290  0.05530  0.43820  Biso   1.000  H
  H7       1.0000 0.62710  0.05530  0.43820  Biso   1.000  H
  H8       1.0000 0.37290  0.94470  0.93820  Biso   1.000  H
  N9       1.0000 0.00000  0.46980  0.91920  Biso   1.000  N
  N10      1.0000 0.00000  0.53020  0.41920  Biso   1.000  N
  N11      1.0000 0.50000  0.96980  0.91920  Biso   1.000  N
  N12      1.0000 0.50000  0.03020  0.41920  Biso   1.000  N
  C9       1.0000 0.00000  0.21250  0.17160  Biso   1.000  C
  C10      1.0000 0.00000  0.78750  0.67160  Biso   1.000  C
  C11      1.0000 0.50000  0.71250  0.17160  Biso   1.000  C
  C12      1.0000 0.50000  0.28750  0.67160  Biso   1.000  C
  H9       1.0000 0.00000  0.12470  0.26780  Biso   1.000  H
  H10      1.0000 0.00000  0.87530  0.76780  Biso   1.000  H
  H11      1.0000 0.50000  0.62470  0.26780  Biso   1.000  H
  H12      1.0000 0.50000  0.37530  0.76780  Biso   1.000  H
  I1       1.0000 0.82207  0.16204  0.59220  Biso   1.000  I
  I2       1.0000 0.17793  0.83796  0.09220  Biso   1.000  I
  I3       1.0000 0.82207  0.83796  0.09220  Biso   1.000  I
  I4       1.0000 0.17793  0.16204  0.59220  Biso   1.000  I
  I5       1.0000 0.32207  0.66204  0.59220  Biso   1.000  I
  I6       1.0000 0.67793  0.33796  0.09220  Biso   1.000  I
  I7       1.0000 0.32207  0.33796  0.09220  Biso   1.000  I
  I8       1.0000 0.67793  0.66204  0.59220  Biso   1.000  I
  Cu1      1.0000 0.80977  0.16040  0.21295  Biso   1.000  Cu
  Cu2      1.0000 0.19023  0.83960  0.71295  Biso   1.000  Cu
  Cu3      1.0000 0.80977  0.83960  0.71295  Biso   1.000  Cu
  Cu4      1.0000 0.19023  0.16040  0.21295  Biso   1.000  Cu
  Cu5      1.0000 0.30977  0.66040  0.21295  Biso   1.000  Cu
  Cu6      1.0000 0.69023  0.33960  0.71295  Biso   1.000  Cu
  Cu7      1.0000 0.30977  0.33960  0.71295  Biso   1.000  Cu
  Cu8      1.0000 0.69023  0.66040  0.21295  Biso   1.000  Cu
