data_image0
_cell_length_a       6.913
_cell_length_b       9.777
_cell_length_c       15.75
_cell_angle_alpha    90
_cell_angle_beta     90
_cell_angle_gamma    90

_symmetry_space_group_name_H-M    "P 1"
_symmetry_int_tables_number       1

loop_
  _symmetry_equiv_pos_as_xyz
  'x, y, z'

loop_
  _atom_site_label
  _atom_site_occupancy
  _atom_site_fract_x
  _atom_site_fract_y
  _atom_site_fract_z
  _atom_site_thermal_displace_type
  _atom_site_B_iso_or_equiv
  _atom_site_type_symbol
  I1       1.0000 0.84856  0.02439  0.32939  Biso   1.000  I
  I2       1.0000 0.34856  0.02439  0.17061  Biso   1.000  I
  I3       1.0000 0.84856  0.47561  0.32939  Biso   1.000  I
  I4       1.0000 0.65144  0.52439  0.82939  Biso   1.000  I
  I5       1.0000 0.15144  0.97561  0.67061  Biso   1.000  I
  I6       1.0000 0.65144  0.97561  0.82939  Biso   1.000  I
  I7       1.0000 0.15144  0.52439  0.67061  Biso   1.000  I
  I8       1.0000 0.34856  0.47561  0.17061  Biso   1.000  I
  N1       1.0000 0.36930  0.87100  0.38190  Biso   1.000  N
  N2       1.0000 0.86930  0.87100  0.11810  Biso   1.000  N
  N3       1.0000 0.36930  0.62900  0.38190  Biso   1.000  N
  N4       1.0000 0.13070  0.37100  0.88190  Biso   1.000  N
  N5       1.0000 0.63070  0.12900  0.61810  Biso   1.000  N
  N6       1.0000 0.13070  0.12900  0.88190  Biso   1.000  N
  N7       1.0000 0.63070  0.37100  0.61810  Biso   1.000  N
  N8       1.0000 0.86930  0.62900  0.11810  Biso   1.000  N
  C1       1.0000 0.42500  0.75000  0.35050  Biso   1.000  C
  C2       1.0000 0.92500  0.75000  0.14950  Biso   1.000  C
  C3       1.0000 0.07500  0.25000  0.85050  Biso   1.000  C
  C4       1.0000 0.57500  0.25000  0.64950  Biso   1.000  C
  H1       1.0000 0.50930  0.75000  0.30290  Biso   1.000  H
  H2       1.0000 0.00930  0.75000  0.19710  Biso   1.000  H
  H3       1.0000 0.99070  0.25000  0.80290  Biso   1.000  H
  H4       1.0000 0.49070  0.25000  0.69710  Biso   1.000  H
  N9       1.0000 0.18230  0.75000  0.48260  Biso   1.000  N
  N10      1.0000 0.68230  0.75000  0.01740  Biso   1.000  N
  N11      1.0000 0.31770  0.25000  0.98260  Biso   1.000  N
  N12      1.0000 0.81770  0.25000  0.51740  Biso   1.000  N
  C5       1.0000 0.24460  0.86460  0.44750  Biso   1.000  C
  C6       1.0000 0.74460  0.86460  0.05250  Biso   1.000  C
  C7       1.0000 0.24460  0.63540  0.44750  Biso   1.000  C
  C8       1.0000 0.25540  0.36460  0.94750  Biso   1.000  C
  C9       1.0000 0.75540  0.13540  0.55250  Biso   1.000  C
  C10      1.0000 0.25540  0.13540  0.94750  Biso   1.000  C
  C11      1.0000 0.75540  0.36460  0.55250  Biso   1.000  C
  C12      1.0000 0.74460  0.63540  0.05250  Biso   1.000  C
  Cu1      1.0000 0.96723  0.25000  0.40259  Biso   1.000  Cu
  Cu2      1.0000 0.46723  0.25000  0.09741  Biso   1.000  Cu
  Cu3      1.0000 0.53277  0.75000  0.90259  Biso   1.000  Cu
  Cu4      1.0000 0.03277  0.75000  0.59741  Biso   1.000  Cu
  Cu5      1.0000 0.47197  0.05071  0.32705  Biso   1.000  Cu
  Cu6      1.0000 0.97197  0.05071  0.17295  Biso   1.000  Cu
  Cu7      1.0000 0.47197  0.44929  0.32705  Biso   1.000  Cu
  Cu8      1.0000 0.02803  0.55071  0.82705  Biso   1.000  Cu
  Cu9      1.0000 0.52803  0.94929  0.67295  Biso   1.000  Cu
  Cu10     1.0000 0.02803  0.94929  0.82705  Biso   1.000  Cu
  Cu11     1.0000 0.52803  0.55071  0.67295  Biso   1.000  Cu
  Cu12     1.0000 0.97197  0.44929  0.17295  Biso   1.000  Cu
  H5       1.0000 0.19820  0.94840  0.47020  Biso   1.000  H
  H6       1.0000 0.69820  0.94840  0.02980  Biso   1.000  H
  H7       1.0000 0.19820  0.55160  0.47020  Biso   1.000  H
  H8       1.0000 0.30180  0.44840  0.97020  Biso   1.000  H
  H9       1.0000 0.80180  0.05160  0.52980  Biso   1.000  H
  H10      1.0000 0.30180  0.05160  0.97020  Biso   1.000  H
  H11      1.0000 0.80180  0.44840  0.52980  Biso   1.000  H
  H12      1.0000 0.69820  0.55160  0.02980  Biso   1.000  H
  I9       1.0000 0.34036  0.25000  0.41842  Biso   1.000  I
  I10      1.0000 0.84036  0.25000  0.08158  Biso   1.000  I
  I11      1.0000 0.15964  0.75000  0.91842  Biso   1.000  I
  I12      1.0000 0.65964  0.75000  0.58158  Biso   1.000  I
