data_image0
_cell_length_a       19.6899
_cell_length_b       3.6479
_cell_length_c       11.6337
_cell_angle_alpha    90
_cell_angle_beta     102.923
_cell_angle_gamma    90

_symmetry_space_group_name_H-M    "P 1"
_symmetry_int_tables_number       1

loop_
  _symmetry_equiv_pos_as_xyz
  'x, y, z'

loop_
  _atom_site_label
  _atom_site_occupancy
  _atom_site_fract_x
  _atom_site_fract_y
  _atom_site_fract_z
  _atom_site_thermal_displace_type
  _atom_site_B_iso_or_equiv
  _atom_site_type_symbol
  Cu1      1.0000 0.17283  0.98670  0.16168  Biso   1.000  Cu
  Cu2      1.0000 0.17283  0.01330  0.66168  Biso   1.000  Cu
  Cu3      1.0000 0.67283  0.48670  0.16168  Biso   1.000  Cu
  Cu4      1.0000 0.67283  0.51330  0.66168  Biso   1.000  Cu
  Cu5      1.0000 0.07924  0.15040  0.34304  Biso   1.000  Cu
  Cu6      1.0000 0.07924  0.84960  0.84304  Biso   1.000  Cu
  Cu7      1.0000 0.57924  0.65040  0.34304  Biso   1.000  Cu
  Cu8      1.0000 0.57924  0.34960  0.84304  Biso   1.000  Cu
  Cl1      1.0000 0.08796  0.49910  0.16267  Biso   1.000  Cl
  Cl2      1.0000 0.08796  0.50090  0.66267  Biso   1.000  Cl
  Cl3      1.0000 0.58796  0.99910  0.16267  Biso   1.000  Cl
  Cl4      1.0000 0.58796  0.00090  0.66267  Biso   1.000  Cl
  N1       1.0000 0.22070  0.96670  0.33610  Biso   1.000  N
  N2       1.0000 0.22070  0.03330  0.83610  Biso   1.000  N
  N3       1.0000 0.72070  0.46670  0.33610  Biso   1.000  N
  N4       1.0000 0.72070  0.53330  0.83610  Biso   1.000  N
  N5       1.0000 0.17530  0.02940  0.40640  Biso   1.000  N
  N6       1.0000 0.17530  0.97060  0.90640  Biso   1.000  N
  N7       1.0000 0.67530  0.52940  0.40640  Biso   1.000  N
  N8       1.0000 0.67530  0.47060  0.90640  Biso   1.000  N
  N9       1.0000 0.20720  0.96150  0.51710  Biso   1.000  N
  N10      1.0000 0.20720  0.03850  0.01710  Biso   1.000  N
  N11      1.0000 0.70720  0.46150  0.51710  Biso   1.000  N
  N12      1.0000 0.70720  0.53850  0.01710  Biso   1.000  N
  N13      1.0000 0.27230  0.85520  0.52230  Biso   1.000  N
  N14      1.0000 0.27230  0.14480  0.02230  Biso   1.000  N
  N15      1.0000 0.77230  0.35520  0.52230  Biso   1.000  N
  N16      1.0000 0.77230  0.64480  0.02230  Biso   1.000  N
  N17      1.0000 0.48270  0.67420  0.35280  Biso   1.000  N
  N18      1.0000 0.48270  0.32580  0.85280  Biso   1.000  N
  N19      1.0000 0.98270  0.17420  0.35280  Biso   1.000  N
  N20      1.0000 0.98270  0.82580  0.85280  Biso   1.000  N
  C1       1.0000 0.46400  0.56740  0.45140  Biso   1.000  C
  C2       1.0000 0.46400  0.43260  0.95140  Biso   1.000  C
  C3       1.0000 0.96400  0.06740  0.45140  Biso   1.000  C
  C4       1.0000 0.96400  0.93260  0.95140  Biso   1.000  C
  H1       1.0000 0.49710  0.45350  0.51010  Biso   1.000  H
  H2       1.0000 0.49710  0.54650  0.01010  Biso   1.000  H
  H3       1.0000 0.99710  0.95350  0.51010  Biso   1.000  H
  H4       1.0000 0.99710  0.04650  0.01010  Biso   1.000  H
  C5       1.0000 0.39800  0.61840  0.47000  Biso   1.000  C
  C6       1.0000 0.39800  0.38160  0.97000  Biso   1.000  C
  C7       1.0000 0.89800  0.11840  0.47000  Biso   1.000  C
  C8       1.0000 0.89800  0.88160  0.97000  Biso   1.000  C
  H5       1.0000 0.38760  0.54500  0.54070  Biso   1.000  H
  H6       1.0000 0.38760  0.45500  0.04070  Biso   1.000  H
  H7       1.0000 0.88760  0.04500  0.54070  Biso   1.000  H
  H8       1.0000 0.88760  0.95500  0.04070  Biso   1.000  H
  C9       1.0000 0.43260  0.82530  0.26770  Biso   1.000  C
  C10      1.0000 0.43260  0.17470  0.76770  Biso   1.000  C
  C11      1.0000 0.93260  0.32530  0.26770  Biso   1.000  C
  C12      1.0000 0.93260  0.67470  0.76770  Biso   1.000  C
  H9       1.0000 0.44460  0.90030  0.19850  Biso   1.000  H
  H10      1.0000 0.44460  0.09970  0.69850  Biso   1.000  H
  H11      1.0000 0.94460  0.40030  0.19850  Biso   1.000  H
  H12      1.0000 0.94460  0.59970  0.69850  Biso   1.000  H
  C13      1.0000 0.36440  0.87550  0.27710  Biso   1.000  C
  C14      1.0000 0.36440  0.12450  0.77710  Biso   1.000  C
  C15      1.0000 0.86440  0.37550  0.27710  Biso   1.000  C
  C16      1.0000 0.86440  0.62450  0.77710  Biso   1.000  C
  H13      1.0000 0.33120  0.97040  0.21450  Biso   1.000  H
  H14      1.0000 0.33120  0.02960  0.71450  Biso   1.000  H
  H15      1.0000 0.83120  0.47040  0.21450  Biso   1.000  H
  H16      1.0000 0.83120  0.52960  0.71450  Biso   1.000  H
  C17      1.0000 0.34690  0.77980  0.38290  Biso   1.000  C
  C18      1.0000 0.34690  0.22020  0.88290  Biso   1.000  C
  C19      1.0000 0.84690  0.27980  0.38290  Biso   1.000  C
  C20      1.0000 0.84690  0.72020  0.88290  Biso   1.000  C
  C21      1.0000 0.27910  0.86110  0.40910  Biso   1.000  C
  C22      1.0000 0.27910  0.13890  0.90910  Biso   1.000  C
  C23      1.0000 0.77910  0.36110  0.40910  Biso   1.000  C
  C24      1.0000 0.77910  0.63890  0.90910  Biso   1.000  C
