data_image0
_cell_length_a       10.1071
_cell_length_b       19.6311
_cell_length_c       34.4015
_cell_angle_alpha    90
_cell_angle_beta     92.48
_cell_angle_gamma    90

_symmetry_space_group_name_H-M    "P 1"
_symmetry_int_tables_number       1

loop_
  _symmetry_equiv_pos_as_xyz
  'x, y, z'

loop_
  _atom_site_label
  _atom_site_occupancy
  _atom_site_fract_x
  _atom_site_fract_y
  _atom_site_fract_z
  _atom_site_thermal_displace_type
  _atom_site_B_iso_or_equiv
  _atom_site_type_symbol
  La1      1.0000 0.22600  0.48720  0.00680  Biso   1.000  La
  La2      1.0000 0.77400  0.98720  0.49320  Biso   1.000  La
  La3      1.0000 0.77400  0.51280  0.99320  Biso   1.000  La
  La4      1.0000 0.22600  0.01280  0.50680  Biso   1.000  La
  La5      1.0000 0.29679  0.14367  0.97304  Biso   1.000  La
  La6      1.0000 0.70321  0.64367  0.52696  Biso   1.000  La
  La7      1.0000 0.70321  0.85633  0.02696  Biso   1.000  La
  La8      1.0000 0.29679  0.35633  0.47304  Biso   1.000  La
  La9      1.0000 0.75376  0.16813  0.98282  Biso   1.000  La
  La10     1.0000 0.24624  0.66813  0.51718  Biso   1.000  La
  La11     1.0000 0.24624  0.83187  0.01718  Biso   1.000  La
  La12     1.0000 0.75376  0.33187  0.48282  Biso   1.000  La
  Cu1      1.0000 0.38381  0.52109  0.75679  Biso   1.000  Cu
  Cu2      1.0000 0.61619  0.02109  0.74321  Biso   1.000  Cu
  Cu3      1.0000 0.61619  0.47891  0.24321  Biso   1.000  Cu
  Cu4      1.0000 0.38381  0.97891  0.25679  Biso   1.000  Cu
  Cu5      1.0000 0.86480  0.71040  0.21115  Biso   1.000  Cu
  Cu6      1.0000 0.13520  0.21040  0.28885  Biso   1.000  Cu
  Cu7      1.0000 0.13520  0.28960  0.78885  Biso   1.000  Cu
  Cu8      1.0000 0.86480  0.78960  0.71115  Biso   1.000  Cu
  Cu9      1.0000 0.16500  0.65650  0.76477  Biso   1.000  Cu
  Cu10     1.0000 0.83500  0.15650  0.73523  Biso   1.000  Cu
  Cu11     1.0000 0.83500  0.34350  0.23523  Biso   1.000  Cu
  Cu12     1.0000 0.16500  0.84350  0.26477  Biso   1.000  Cu
  Cu13     1.0000 0.36337  0.78675  0.76968  Biso   1.000  Cu
  Cu14     1.0000 0.63663  0.28675  0.73032  Biso   1.000  Cu
  Cu15     1.0000 0.63663  0.21325  0.23032  Biso   1.000  Cu
  Cu16     1.0000 0.36337  0.71325  0.26968  Biso   1.000  Cu
  Cu17     1.0000 0.61139  0.41101  0.76683  Biso   1.000  Cu
  Cu18     1.0000 0.38861  0.91101  0.73317  Biso   1.000  Cu
  Cu19     1.0000 0.38861  0.58899  0.23317  Biso   1.000  Cu
  Cu20     1.0000 0.61139  0.08899  0.26683  Biso   1.000  Cu
  Cu21     1.0000 0.11205  0.93063  0.77424  Biso   1.000  Cu
  Cu22     1.0000 0.88795  0.43063  0.72576  Biso   1.000  Cu
  Cu23     1.0000 0.88795  0.06937  0.22576  Biso   1.000  Cu
  Cu24     1.0000 0.11205  0.56937  0.27424  Biso   1.000  Cu
  Cu25     1.0000 0.78264  0.65925  0.28116  Biso   1.000  Cu
  Cu26     1.0000 0.21736  0.15925  0.21884  Biso   1.000  Cu
  Cu27     1.0000 0.21736  0.34075  0.71884  Biso   1.000  Cu
  Cu28     1.0000 0.78264  0.84075  0.78116  Biso   1.000  Cu
  Br1      1.0000 0.78090  0.77587  0.25622  Biso   1.000  Br
  Br2      1.0000 0.21910  0.27587  0.24378  Biso   1.000  Br
  Br3      1.0000 0.21910  0.22413  0.74378  Biso   1.000  Br
  Br4      1.0000 0.78090  0.72413  0.75622  Biso   1.000  Br
  Br5      1.0000 0.42130  0.67237  0.76488  Biso   1.000  Br
  Br6      1.0000 0.57870  0.17237  0.73512  Biso   1.000  Br
  Br7      1.0000 0.57870  0.32763  0.23512  Biso   1.000  Br
  Br8      1.0000 0.42130  0.82763  0.26488  Biso   1.000  Br
  Br9      1.0000 0.14083  0.80796  0.75766  Biso   1.000  Br
  Br10     1.0000 0.85917  0.30796  0.74234  Biso   1.000  Br
  Br11     1.0000 0.85917  0.19204  0.24234  Biso   1.000  Br
  Br12     1.0000 0.14083  0.69204  0.25766  Biso   1.000  Br
  Br13     1.0000 0.52535  0.86921  0.78606  Biso   1.000  Br
  Br14     1.0000 0.47465  0.36921  0.71394  Biso   1.000  Br
  Br15     1.0000 0.47465  0.13079  0.21394  Biso   1.000  Br
  Br16     1.0000 0.52535  0.63079  0.28606  Biso   1.000  Br
  Br17     1.0000 0.76335  0.50127  0.76964  Biso   1.000  Br
  Br18     1.0000 0.23665  0.00127  0.73036  Biso   1.000  Br
  Br19     1.0000 0.23665  0.49873  0.23036  Biso   1.000  Br
  Br20     1.0000 0.76335  0.99873  0.26964  Biso   1.000  Br
  Br21     1.0000 0.86916  0.94473  0.75274  Biso   1.000  Br
  Br22     1.0000 0.13084  0.44473  0.74726  Biso   1.000  Br
  Br23     1.0000 0.13084  0.05527  0.24726  Biso   1.000  Br
  Br24     1.0000 0.86916  0.55527  0.25274  Biso   1.000  Br
  O1       1.0000 0.13800  0.57390  0.95945  Biso   1.000  O
  O2       1.0000 0.86200  0.07390  0.54055  Biso   1.000  O
  O3       1.0000 0.86200  0.42610  0.04055  Biso   1.000  O
  O4       1.0000 0.13800  0.92610  0.45945  Biso   1.000  O
  O5       1.0000 0.92240  0.56480  0.94313  Biso   1.000  O
  O6       1.0000 0.07760  0.06480  0.55687  Biso   1.000  O
  O7       1.0000 0.07760  0.43520  0.05687  Biso   1.000  O
  O8       1.0000 0.92240  0.93520  0.44313  Biso   1.000  O
  O9       1.0000 0.38290  0.47160  0.95541  Biso   1.000  O
  O10      1.0000 0.61710  0.97160  0.54459  Biso   1.000  O
  O11      1.0000 0.61710  0.52840  0.04459  Biso   1.000  O
  O12      1.0000 0.38290  0.02840  0.45541  Biso   1.000  O
  O13      1.0000 0.58020  0.52050  0.94889  Biso   1.000  O
  O14      1.0000 0.41980  0.02050  0.55111  Biso   1.000  O
  O15      1.0000 0.41980  0.47950  0.05111  Biso   1.000  O
  O16      1.0000 0.58020  0.97950  0.44889  Biso   1.000  O
  O17      1.0000 0.15740  0.57390  0.05461  Biso   1.000  O
  O18      1.0000 0.84260  0.07390  0.44539  Biso   1.000  O
  O19      1.0000 0.84260  0.42610  0.94539  Biso   1.000  O
  O20      1.0000 0.15740  0.92610  0.55461  Biso   1.000  O
  O21      1.0000 0.95180  0.56610  0.03153  Biso   1.000  O
  O22      1.0000 0.04820  0.06610  0.46847  Biso   1.000  O
  O23      1.0000 0.04820  0.43390  0.96847  Biso   1.000  O
  O24      1.0000 0.95180  0.93390  0.53153  Biso   1.000  O
  O25      1.0000 0.37720  0.60050  0.00383  Biso   1.000  O
  O26      1.0000 0.62280  0.10050  0.49617  Biso   1.000  O
  O27      1.0000 0.62280  0.39950  0.99617  Biso   1.000  O
  O28      1.0000 0.37720  0.89950  0.50383  Biso   1.000  O
  H1       1.0000 0.41770  0.59170  0.98330  Biso   1.000  H
  H2       1.0000 0.58230  0.09170  0.51670  Biso   1.000  H
  H3       1.0000 0.58230  0.40830  0.01670  Biso   1.000  H
  H4       1.0000 0.41770  0.90830  0.48330  Biso   1.000  H
  H5       1.0000 0.43210  0.59510  0.02310  Biso   1.000  H
  H6       1.0000 0.56790  0.09510  0.47690  Biso   1.000  H
  H7       1.0000 0.56790  0.40490  0.97690  Biso   1.000  H
  H8       1.0000 0.43210  0.90490  0.52310  Biso   1.000  H
  O29      1.0000 0.28090  0.36560  0.00780  Biso   1.000  O
  O30      1.0000 0.71910  0.86560  0.49220  Biso   1.000  O
  O31      1.0000 0.71910  0.63440  0.99220  Biso   1.000  O
  O32      1.0000 0.28090  0.13440  0.50780  Biso   1.000  O
  O33      1.0000 0.25170  0.25730  0.99447  Biso   1.000  O
  O34      1.0000 0.74830  0.75730  0.50553  Biso   1.000  O
  O35      1.0000 0.74830  0.74270  0.00553  Biso   1.000  O
  O36      1.0000 0.25170  0.24270  0.49447  Biso   1.000  O
  O37      1.0000 0.66670  0.23660  0.03800  Biso   1.000  O
  O38      1.0000 0.33330  0.73660  0.46200  Biso   1.000  O
  O39      1.0000 0.33330  0.76340  0.96200  Biso   1.000  O
  O40      1.0000 0.66670  0.26340  0.53800  Biso   1.000  O
  O41      1.0000 0.49730  0.18530  0.00866  Biso   1.000  O
  O42      1.0000 0.50270  0.68530  0.49134  Biso   1.000  O
  O43      1.0000 0.50270  0.81470  0.99134  Biso   1.000  O
  O44      1.0000 0.49730  0.31470  0.50866  Biso   1.000  O
  O45      1.0000 0.63200  0.08930  0.93973  Biso   1.000  O
  O46      1.0000 0.36800  0.58930  0.56027  Biso   1.000  O
  O47      1.0000 0.36800  0.91070  0.06027  Biso   1.000  O
  O48      1.0000 0.63200  0.41070  0.43973  Biso   1.000  O
  O49      1.0000 0.41740  0.06980  0.92968  Biso   1.000  O
  O50      1.0000 0.58260  0.56980  0.57032  Biso   1.000  O
  O51      1.0000 0.58260  0.93020  0.07032  Biso   1.000  O
  O52      1.0000 0.41740  0.43020  0.42968  Biso   1.000  O
  O53      1.0000 0.61710  0.24260  0.94110  Biso   1.000  O
  O54      1.0000 0.38290  0.74260  0.55890  Biso   1.000  O
  O55      1.0000 0.38290  0.75740  0.05890  Biso   1.000  O
  O56      1.0000 0.61710  0.25740  0.44110  Biso   1.000  O
  O57      1.0000 0.41040  0.21490  0.92369  Biso   1.000  O
  O58      1.0000 0.58960  0.71490  0.57631  Biso   1.000  O
  O59      1.0000 0.58960  0.78510  0.07631  Biso   1.000  O
  O60      1.0000 0.41040  0.28510  0.42369  Biso   1.000  O
  O61      1.0000 0.40420  0.05750  0.02259  Biso   1.000  O
  O62      1.0000 0.59580  0.55750  0.47741  Biso   1.000  O
  O63      1.0000 0.59580  0.94250  0.97741  Biso   1.000  O
  O64      1.0000 0.40420  0.44250  0.52259  Biso   1.000  O
  H9       1.0000 0.39780  0.02510  0.03880  Biso   1.000  H
  H10      1.0000 0.60220  0.52510  0.46120  Biso   1.000  H
  H11      1.0000 0.60220  0.97490  0.96120  Biso   1.000  H
  H12      1.0000 0.39780  0.47490  0.53880  Biso   1.000  H
  H13      1.0000 0.48320  0.07340  0.02560  Biso   1.000  H
  H14      1.0000 0.51680  0.57340  0.47440  Biso   1.000  H
  H15      1.0000 0.51680  0.92660  0.97440  Biso   1.000  H
  H16      1.0000 0.48320  0.42660  0.52560  Biso   1.000  H
  O65      1.0000 0.12310  0.12760  0.01773  Biso   1.000  O
  O66      1.0000 0.87690  0.62760  0.48227  Biso   1.000  O
  O67      1.0000 0.87690  0.87240  0.98227  Biso   1.000  O
  O68      1.0000 0.12310  0.37240  0.51773  Biso   1.000  O
  O69      1.0000 0.92670  0.16570  0.03231  Biso   1.000  O
  O70      1.0000 0.07330  0.66570  0.46769  Biso   1.000  O
  O71      1.0000 0.07330  0.83430  0.96769  Biso   1.000  O
  O72      1.0000 0.92670  0.33430  0.53231  Biso   1.000  O
  O73      1.0000 0.12240  0.15800  0.92222  Biso   1.000  O
  O74      1.0000 0.87760  0.65800  0.57778  Biso   1.000  O
  O75      1.0000 0.87760  0.84200  0.07778  Biso   1.000  O
  O76      1.0000 0.12240  0.34200  0.42222  Biso   1.000  O
  O77      1.0000 0.91870  0.18870  0.93457  Biso   1.000  O
  O78      1.0000 0.08130  0.68870  0.56543  Biso   1.000  O
  O79      1.0000 0.08130  0.81130  0.06543  Biso   1.000  O
  O80      1.0000 0.91870  0.31130  0.43457  Biso   1.000  O
  O81      1.0000 0.30990  0.92880  0.97118  Biso   1.000  O
  O82      1.0000 0.69010  0.42880  0.52882  Biso   1.000  O
  O83      1.0000 0.69010  0.07120  0.02882  Biso   1.000  O
  O84      1.0000 0.30990  0.57120  0.47118  Biso   1.000  O
  O85      1.0000 0.18780  0.02340  0.96831  Biso   1.000  O
  O86      1.0000 0.81220  0.52340  0.53169  Biso   1.000  O
  O87      1.0000 0.81220  0.97660  0.03169  Biso   1.000  O
  O88      1.0000 0.18780  0.47660  0.46831  Biso   1.000  O
  O89      1.0000 0.89610  0.05800  0.96832  Biso   1.000  O
  O90      1.0000 0.10390  0.55800  0.53168  Biso   1.000  O
  O91      1.0000 0.10390  0.94200  0.03168  Biso   1.000  O
  O92      1.0000 0.89610  0.44200  0.46832  Biso   1.000  O
  H17      1.0000 0.97460  0.06300  0.97100  Biso   1.000  H
  H18      1.0000 0.02540  0.56300  0.52900  Biso   1.000  H
  H19      1.0000 0.02540  0.93700  0.02900  Biso   1.000  H
  H20      1.0000 0.97460  0.43700  0.47100  Biso   1.000  H
  H21      1.0000 0.87980  0.02040  0.98410  Biso   1.000  H
  H22      1.0000 0.12020  0.52040  0.51590  Biso   1.000  H
  H23      1.0000 0.12020  0.97960  0.01590  Biso   1.000  H
  H24      1.0000 0.87980  0.47960  0.48410  Biso   1.000  H
  O93      1.0000 0.85670  0.28960  0.99020  Biso   1.000  O
  O94      1.0000 0.14330  0.78960  0.50980  Biso   1.000  O
  O95      1.0000 0.14330  0.71040  0.00980  Biso   1.000  O
  O96      1.0000 0.85670  0.21040  0.49020  Biso   1.000  O
  H25      1.0000 0.87930  0.32840  0.99930  Biso   1.000  H
  H26      1.0000 0.12070  0.82840  0.50070  Biso   1.000  H
  H27      1.0000 0.12070  0.67160  0.00070  Biso   1.000  H
  H28      1.0000 0.87930  0.17160  0.49930  Biso   1.000  H
  H29      1.0000 0.90010  0.28270  0.97000  Biso   1.000  H
  H30      1.0000 0.09990  0.78270  0.53000  Biso   1.000  H
  H31      1.0000 0.09990  0.71730  0.03000  Biso   1.000  H
  H32      1.0000 0.90010  0.21730  0.47000  Biso   1.000  H
  C1       1.0000 0.03880  0.57910  0.93650  Biso   1.000  C
  C2       1.0000 0.96120  0.07910  0.56350  Biso   1.000  C
  C3       1.0000 0.96120  0.42090  0.06350  Biso   1.000  C
  C4       1.0000 0.03880  0.92090  0.43650  Biso   1.000  C
  C5       1.0000 0.06670  0.60240  0.89550  Biso   1.000  C
  C6       1.0000 0.93330  0.10240  0.60450  Biso   1.000  C
  C7       1.0000 0.93330  0.39760  0.10450  Biso   1.000  C
  C8       1.0000 0.06670  0.89760  0.39550  Biso   1.000  C
  C9       1.0000 0.97710  0.58990  0.86490  Biso   1.000  C
  C10      1.0000 0.02290  0.08990  0.63510  Biso   1.000  C
  C11      1.0000 0.02290  0.41010  0.13510  Biso   1.000  C
  C12      1.0000 0.97710  0.91010  0.36490  Biso   1.000  C
  H33      1.0000 0.89680  0.56890  0.86950  Biso   1.000  H
  H34      1.0000 0.10320  0.06890  0.63050  Biso   1.000  H
  H35      1.0000 0.10320  0.43110  0.13050  Biso   1.000  H
  H36      1.0000 0.89680  0.93110  0.36950  Biso   1.000  H
  C13      1.0000 0.00660  0.60870  0.82730  Biso   1.000  C
  C14      1.0000 0.99340  0.10870  0.67270  Biso   1.000  C
  C15      1.0000 0.99340  0.39130  0.17270  Biso   1.000  C
  C16      1.0000 0.00660  0.89130  0.32730  Biso   1.000  C
  H37      1.0000 0.94400  0.60050  0.80720  Biso   1.000  H
  H38      1.0000 0.05600  0.10050  0.69280  Biso   1.000  H
  H39      1.0000 0.05600  0.39950  0.19280  Biso   1.000  H
  H40      1.0000 0.94400  0.89950  0.30720  Biso   1.000  H
  C17      1.0000 0.20790  0.65010  0.84830  Biso   1.000  C
  C18      1.0000 0.79210  0.15010  0.65170  Biso   1.000  C
  C19      1.0000 0.79210  0.34990  0.15170  Biso   1.000  C
  C20      1.0000 0.20790  0.84990  0.34830  Biso   1.000  C
  H41      1.0000 0.28820  0.67080  0.84330  Biso   1.000  H
  H42      1.0000 0.71180  0.17080  0.65670  Biso   1.000  H
  H43      1.0000 0.71180  0.32920  0.15670  Biso   1.000  H
  H44      1.0000 0.28820  0.82920  0.34330  Biso   1.000  H
  C21      1.0000 0.18290  0.63330  0.88600  Biso   1.000  C
  C22      1.0000 0.81710  0.13330  0.61400  Biso   1.000  C
  C23      1.0000 0.81710  0.36670  0.11400  Biso   1.000  C
  C24      1.0000 0.18290  0.86670  0.38600  Biso   1.000  C
  H45      1.0000 0.24630  0.64310  0.90560  Biso   1.000  H
  H46      1.0000 0.75370  0.14310  0.59440  Biso   1.000  H
  H47      1.0000 0.75370  0.35690  0.09440  Biso   1.000  H
  H48      1.0000 0.24630  0.85690  0.40560  Biso   1.000  H
  C25      1.0000 0.47030  0.50010  0.93570  Biso   1.000  C
  C26      1.0000 0.52970  0.00010  0.56430  Biso   1.000  C
  C27      1.0000 0.52970  0.49990  0.06430  Biso   1.000  C
  C28      1.0000 0.47030  0.99990  0.43570  Biso   1.000  C
  C29      1.0000 0.44350  0.50660  0.89320  Biso   1.000  C
  C30      1.0000 0.55650  0.00660  0.60680  Biso   1.000  C
  C31      1.0000 0.55650  0.49340  0.10680  Biso   1.000  C
  C32      1.0000 0.44350  0.99340  0.39320  Biso   1.000  C
  C33      1.0000 0.33890  0.47300  0.87440  Biso   1.000  C
  C34      1.0000 0.66110  0.97300  0.62560  Biso   1.000  C
  C35      1.0000 0.66110  0.52700  0.12560  Biso   1.000  C
  C36      1.0000 0.33890  0.02700  0.37440  Biso   1.000  C
  H49      1.0000 0.27990  0.44760  0.88850  Biso   1.000  H
  H50      1.0000 0.72010  0.94760  0.61150  Biso   1.000  H
  H51      1.0000 0.72010  0.55240  0.11150  Biso   1.000  H
  H52      1.0000 0.27990  0.05240  0.38850  Biso   1.000  H
  C37      1.0000 0.32290  0.47760  0.83460  Biso   1.000  C
  C38      1.0000 0.67710  0.97760  0.66540  Biso   1.000  C
  C39      1.0000 0.67710  0.52240  0.16540  Biso   1.000  C
  C40      1.0000 0.32290  0.02240  0.33460  Biso   1.000  C
  H53      1.0000 0.25400  0.45340  0.82230  Biso   1.000  H
  H54      1.0000 0.74600  0.95340  0.67770  Biso   1.000  H
  H55      1.0000 0.74600  0.54660  0.17770  Biso   1.000  H
  H56      1.0000 0.25400  0.04660  0.32230  Biso   1.000  H
  C41      1.0000 0.50030  0.54730  0.83140  Biso   1.000  C
  C42      1.0000 0.49970  0.04730  0.66860  Biso   1.000  C
  C43      1.0000 0.49970  0.45270  0.16860  Biso   1.000  C
  C44      1.0000 0.50030  0.95270  0.33140  Biso   1.000  C
  H57      1.0000 0.55670  0.57330  0.81670  Biso   1.000  H
  H58      1.0000 0.44330  0.07330  0.68330  Biso   1.000  H
  H59      1.0000 0.44330  0.42670  0.18330  Biso   1.000  H
  H60      1.0000 0.55670  0.92670  0.31670  Biso   1.000  H
  C45      1.0000 0.52480  0.54490  0.87080  Biso   1.000  C
  C46      1.0000 0.47520  0.04490  0.62920  Biso   1.000  C
  C47      1.0000 0.47520  0.45510  0.12920  Biso   1.000  C
  C48      1.0000 0.52480  0.95510  0.37080  Biso   1.000  C
  H61      1.0000 0.59550  0.56880  0.88230  Biso   1.000  H
  H62      1.0000 0.40450  0.06880  0.61770  Biso   1.000  H
  H63      1.0000 0.40450  0.43120  0.11770  Biso   1.000  H
  H64      1.0000 0.59550  0.93120  0.38230  Biso   1.000  H
  C49      1.0000 0.03580  0.58240  0.05700  Biso   1.000  C
  C50      1.0000 0.96420  0.08240  0.44300  Biso   1.000  C
  C51      1.0000 0.96420  0.41760  0.94300  Biso   1.000  C
  C52      1.0000 0.03580  0.91760  0.55700  Biso   1.000  C
  C53      1.0000 0.99050  0.61300  0.09430  Biso   1.000  C
  C54      1.0000 0.00950  0.11300  0.40570  Biso   1.000  C
  C55      1.0000 0.00950  0.38700  0.90570  Biso   1.000  C
  C56      1.0000 0.99050  0.88700  0.59430  Biso   1.000  C
  C57      1.0000 0.04940  0.59280  0.12900  Biso   1.000  C
  C58      1.0000 0.95060  0.09280  0.37100  Biso   1.000  C
  C59      1.0000 0.95060  0.40720  0.87100  Biso   1.000  C
  C60      1.0000 0.04940  0.90720  0.62900  Biso   1.000  C
  H65      1.0000 0.11700  0.56060  0.12950  Biso   1.000  H
  H66      1.0000 0.88300  0.06060  0.37050  Biso   1.000  H
  H67      1.0000 0.88300  0.43940  0.87050  Biso   1.000  H
  H68      1.0000 0.11700  0.93940  0.62950  Biso   1.000  H
  C61      1.0000 0.00780  0.62050  0.16290  Biso   1.000  C
  C62      1.0000 0.99220  0.12050  0.33710  Biso   1.000  C
  C63      1.0000 0.99220  0.37950  0.83710  Biso   1.000  C
  C64      1.0000 0.00780  0.87950  0.66290  Biso   1.000  C
  H69      1.0000 0.04630  0.60510  0.18640  Biso   1.000  H
  H70      1.0000 0.95370  0.10510  0.31360  Biso   1.000  H
  H71      1.0000 0.95370  0.39490  0.81360  Biso   1.000  H
  H72      1.0000 0.04630  0.89490  0.68640  Biso   1.000  H
  C65      1.0000 0.86120  0.68920  0.12990  Biso   1.000  C
  C66      1.0000 0.13880  0.18920  0.37010  Biso   1.000  C
  C67      1.0000 0.13880  0.31080  0.87010  Biso   1.000  C
  C68      1.0000 0.86120  0.81080  0.62990  Biso   1.000  C
  H73      1.0000 0.79900  0.72410  0.13010  Biso   1.000  H
  H74      1.0000 0.20100  0.22410  0.36990  Biso   1.000  H
  H75      1.0000 0.20100  0.27590  0.86990  Biso   1.000  H
  H76      1.0000 0.79900  0.77590  0.63010  Biso   1.000  H
  C69      1.0000 0.89270  0.66190  0.09460  Biso   1.000  C
  C70      1.0000 0.10730  0.16190  0.40540  Biso   1.000  C
  C71      1.0000 0.10730  0.33810  0.90540  Biso   1.000  C
  C72      1.0000 0.89270  0.83810  0.59460  Biso   1.000  C
  H77      1.0000 0.84920  0.67600  0.07160  Biso   1.000  H
  H78      1.0000 0.15080  0.17600  0.42840  Biso   1.000  H
  H79      1.0000 0.15080  0.32400  0.92840  Biso   1.000  H
  H80      1.0000 0.84920  0.82400  0.57160  Biso   1.000  H
  C73      1.0000 0.28710  0.30470  0.01650  Biso   1.000  C
  C74      1.0000 0.71290  0.80470  0.48350  Biso   1.000  C
  C75      1.0000 0.71290  0.69530  0.98350  Biso   1.000  C
  C76      1.0000 0.28710  0.19530  0.51650  Biso   1.000  C
  C77      1.0000 0.34170  0.28690  0.05700  Biso   1.000  C
  C78      1.0000 0.65830  0.78690  0.44300  Biso   1.000  C
  C79      1.0000 0.65830  0.71310  0.94300  Biso   1.000  C
  C80      1.0000 0.34170  0.21310  0.55700  Biso   1.000  C
  C81      1.0000 0.26820  0.31080  0.08790  Biso   1.000  C
  C82      1.0000 0.73180  0.81080  0.41210  Biso   1.000  C
  C83      1.0000 0.73180  0.68920  0.91210  Biso   1.000  C
  C84      1.0000 0.26820  0.18920  0.58790  Biso   1.000  C
  H81      1.0000 0.18930  0.33410  0.08270  Biso   1.000  H
  H82      1.0000 0.81070  0.83410  0.41730  Biso   1.000  H
  H83      1.0000 0.81070  0.66590  0.91730  Biso   1.000  H
  H84      1.0000 0.18930  0.16590  0.58270  Biso   1.000  H
  C85      1.0000 0.31150  0.30020  0.12620  Biso   1.000  C
  C86      1.0000 0.68850  0.80020  0.37380  Biso   1.000  C
  C87      1.0000 0.68850  0.69980  0.87380  Biso   1.000  C
  C88      1.0000 0.31150  0.19980  0.62620  Biso   1.000  C
  H85      1.0000 0.26050  0.31510  0.14640  Biso   1.000  H
  H86      1.0000 0.73950  0.81510  0.35360  Biso   1.000  H
  H87      1.0000 0.73950  0.68490  0.85360  Biso   1.000  H
  H88      1.0000 0.26050  0.18490  0.64640  Biso   1.000  H
  C89      1.0000 0.42830  0.26800  0.13420  Biso   1.000  C
  C90      1.0000 0.57170  0.76800  0.36580  Biso   1.000  C
  C91      1.0000 0.57170  0.73200  0.86580  Biso   1.000  C
  C92      1.0000 0.42830  0.23200  0.63420  Biso   1.000  C
  H89      1.0000 0.45740  0.26090  0.15990  Biso   1.000  H
  H90      1.0000 0.54260  0.76090  0.34010  Biso   1.000  H
  H91      1.0000 0.54260  0.73910  0.84010  Biso   1.000  H
  H92      1.0000 0.45740  0.23910  0.65990  Biso   1.000  H
  C93      1.0000 0.50470  0.24540  0.10400  Biso   1.000  C
  C94      1.0000 0.49530  0.74540  0.39600  Biso   1.000  C
  C95      1.0000 0.49530  0.75460  0.89600  Biso   1.000  C
  C96      1.0000 0.50470  0.25460  0.60400  Biso   1.000  C
  H93      1.0000 0.58640  0.22510  0.10980  Biso   1.000  H
  H94      1.0000 0.41360  0.72510  0.39020  Biso   1.000  H
  H95      1.0000 0.41360  0.77490  0.89020  Biso   1.000  H
  H96      1.0000 0.58640  0.27490  0.60980  Biso   1.000  H
  C97      1.0000 0.46020  0.25280  0.06520  Biso   1.000  C
  C98      1.0000 0.53980  0.75280  0.43480  Biso   1.000  C
  C99      1.0000 0.53980  0.74720  0.93480  Biso   1.000  C
  C100     1.0000 0.46020  0.24720  0.56520  Biso   1.000  C
  C101     1.0000 0.54530  0.22480  0.03530  Biso   1.000  C
  C102     1.0000 0.45470  0.72480  0.46470  Biso   1.000  C
  C103     1.0000 0.45470  0.77520  0.96470  Biso   1.000  C
  C104     1.0000 0.54530  0.27520  0.53530  Biso   1.000  C
  C105     1.0000 0.53350  0.07500  0.91840  Biso   1.000  C
  C106     1.0000 0.46650  0.57500  0.58160  Biso   1.000  C
  C107     1.0000 0.46650  0.92500  0.08160  Biso   1.000  C
  C108     1.0000 0.53350  0.42500  0.41840  Biso   1.000  C
  C109     1.0000 0.55470  0.06250  0.87630  Biso   1.000  C
  C110     1.0000 0.44530  0.56250  0.62370  Biso   1.000  C
  C111     1.0000 0.44530  0.93750  0.12370  Biso   1.000  C
  C112     1.0000 0.55470  0.43750  0.37630  Biso   1.000  C
  C113     1.0000 0.67640  0.04410  0.86300  Biso   1.000  C
  C114     1.0000 0.32360  0.54410  0.63700  Biso   1.000  C
  C115     1.0000 0.32360  0.95590  0.13700  Biso   1.000  C
  C116     1.0000 0.67640  0.45590  0.36300  Biso   1.000  C
  H97      1.0000 0.74900  0.03950  0.88040  Biso   1.000  H
  H98      1.0000 0.25100  0.53950  0.61960  Biso   1.000  H
  H99      1.0000 0.25100  0.96050  0.11960  Biso   1.000  H
  H100     1.0000 0.74900  0.46050  0.38040  Biso   1.000  H
  C117     1.0000 0.69030  0.03250  0.82400  Biso   1.000  C
  C118     1.0000 0.30970  0.53250  0.67600  Biso   1.000  C
  C119     1.0000 0.30970  0.96750  0.17600  Biso   1.000  C
  C120     1.0000 0.69030  0.46750  0.32400  Biso   1.000  C
  H101     1.0000 0.77310  0.01920  0.81590  Biso   1.000  H
  H102     1.0000 0.22690  0.51920  0.68410  Biso   1.000  H
  H103     1.0000 0.22690  0.98080  0.18410  Biso   1.000  H
  H104     1.0000 0.77310  0.48080  0.31590  Biso   1.000  H
  C121     1.0000 0.47520  0.05820  0.80990  Biso   1.000  C
  C122     1.0000 0.52480  0.55820  0.69010  Biso   1.000  C
  C123     1.0000 0.52480  0.94180  0.19010  Biso   1.000  C
  C124     1.0000 0.47520  0.44180  0.30990  Biso   1.000  C
  H105     1.0000 0.40600  0.06450  0.79150  Biso   1.000  H
  H106     1.0000 0.59400  0.56450  0.70850  Biso   1.000  H
  H107     1.0000 0.59400  0.93550  0.20850  Biso   1.000  H
  H108     1.0000 0.40600  0.43550  0.29150  Biso   1.000  H
  C125     1.0000 0.45120  0.06900  0.84820  Biso   1.000  C
  C126     1.0000 0.54880  0.56900  0.65180  Biso   1.000  C
  C127     1.0000 0.54880  0.93100  0.15180  Biso   1.000  C
  C128     1.0000 0.45120  0.43100  0.34820  Biso   1.000  C
  H109     1.0000 0.36660  0.08050  0.85560  Biso   1.000  H
  H110     1.0000 0.63340  0.58050  0.64440  Biso   1.000  H
  H111     1.0000 0.63340  0.91950  0.14440  Biso   1.000  H
  H112     1.0000 0.36660  0.41950  0.35560  Biso   1.000  H
  C129     1.0000 0.51630  0.24460  0.91880  Biso   1.000  C
  C130     1.0000 0.48370  0.74460  0.58120  Biso   1.000  C
  C131     1.0000 0.48370  0.75540  0.08120  Biso   1.000  C
  C132     1.0000 0.51630  0.25540  0.41880  Biso   1.000  C
  C133     1.0000 0.53010  0.28660  0.88310  Biso   1.000  C
  C134     1.0000 0.46990  0.78660  0.61690  Biso   1.000  C
  C135     1.0000 0.46990  0.71340  0.11690  Biso   1.000  C
  C136     1.0000 0.53010  0.21340  0.38310  Biso   1.000  C
  C137     1.0000 0.46530  0.26840  0.84850  Biso   1.000  C
  C138     1.0000 0.53470  0.76840  0.65150  Biso   1.000  C
  C139     1.0000 0.53470  0.73160  0.15150  Biso   1.000  C
  C140     1.0000 0.46530  0.23160  0.34850  Biso   1.000  C
  H113     1.0000 0.40740  0.23150  0.84750  Biso   1.000  H
  H114     1.0000 0.59260  0.73150  0.65250  Biso   1.000  H
  H115     1.0000 0.59260  0.76850  0.15250  Biso   1.000  H
  H116     1.0000 0.40740  0.26850  0.34750  Biso   1.000  H
  C141     1.0000 0.48770  0.30590  0.81520  Biso   1.000  C
  C142     1.0000 0.51230  0.80590  0.68480  Biso   1.000  C
  C143     1.0000 0.51230  0.69410  0.18480  Biso   1.000  C
  C144     1.0000 0.48770  0.19410  0.31520  Biso   1.000  C
  H117     1.0000 0.44690  0.29210  0.79170  Biso   1.000  H
  H118     1.0000 0.55310  0.79210  0.70830  Biso   1.000  H
  H119     1.0000 0.55310  0.70790  0.20830  Biso   1.000  H
  H120     1.0000 0.44690  0.20790  0.29170  Biso   1.000  H
  C145     1.0000 0.62260  0.37870  0.84910  Biso   1.000  C
  C146     1.0000 0.37740  0.87870  0.65090  Biso   1.000  C
  C147     1.0000 0.37740  0.62130  0.15090  Biso   1.000  C
  C148     1.0000 0.62260  0.12130  0.34910  Biso   1.000  C
  H121     1.0000 0.67420  0.41790  0.85000  Biso   1.000  H
  H122     1.0000 0.32580  0.91790  0.65000  Biso   1.000  H
  H123     1.0000 0.32580  0.58210  0.15000  Biso   1.000  H
  H124     1.0000 0.67420  0.08210  0.35000  Biso   1.000  H
  C149     1.0000 0.61050  0.34240  0.88340  Biso   1.000  C
  C150     1.0000 0.38950  0.84240  0.61660  Biso   1.000  C
  C151     1.0000 0.38950  0.65760  0.11660  Biso   1.000  C
  C152     1.0000 0.61050  0.15760  0.38340  Biso   1.000  C
  H125     1.0000 0.65630  0.35590  0.90610  Biso   1.000  H
  H126     1.0000 0.34370  0.85590  0.59390  Biso   1.000  H
  H127     1.0000 0.34370  0.64410  0.09390  Biso   1.000  H
  H128     1.0000 0.65630  0.14410  0.40610  Biso   1.000  H
  C153     1.0000 0.04420  0.15050  0.04120  Biso   1.000  C
  C154     1.0000 0.95580  0.65050  0.45880  Biso   1.000  C
  C155     1.0000 0.95580  0.84950  0.95880  Biso   1.000  C
  C156     1.0000 0.04420  0.34950  0.54120  Biso   1.000  C
  C157     1.0000 0.08870  0.15650  0.08300  Biso   1.000  C
  C158     1.0000 0.91130  0.65650  0.41700  Biso   1.000  C
  C159     1.0000 0.91130  0.84350  0.91700  Biso   1.000  C
  C160     1.0000 0.08870  0.34350  0.58300  Biso   1.000  C
  C161     1.0000 0.01090  0.18990  0.10900  Biso   1.000  C
  C162     1.0000 0.98910  0.68990  0.39100  Biso   1.000  C
  C163     1.0000 0.98910  0.81010  0.89100  Biso   1.000  C
  C164     1.0000 0.01090  0.31010  0.60900  Biso   1.000  C
  H129     1.0000 0.93200  0.21060  0.10060  Biso   1.000  H
  H130     1.0000 0.06800  0.71060  0.39940  Biso   1.000  H
  H131     1.0000 0.06800  0.78940  0.89940  Biso   1.000  H
  H132     1.0000 0.93200  0.28940  0.60060  Biso   1.000  H
  C165     1.0000 0.05310  0.19190  0.14800  Biso   1.000  C
  C166     1.0000 0.94690  0.69190  0.35200  Biso   1.000  C
  C167     1.0000 0.94690  0.80810  0.85200  Biso   1.000  C
  C168     1.0000 0.05310  0.30810  0.64800  Biso   1.000  C
  H133     1.0000 0.00190  0.21500  0.16560  Biso   1.000  H
  H134     1.0000 0.99810  0.71500  0.33440  Biso   1.000  H
  H135     1.0000 0.99810  0.78500  0.83440  Biso   1.000  H
  H136     1.0000 0.00190  0.28500  0.66560  Biso   1.000  H
  C169     1.0000 0.23890  0.13160  0.13470  Biso   1.000  C
  C170     1.0000 0.76110  0.63160  0.36530  Biso   1.000  C
  C171     1.0000 0.76110  0.86840  0.86530  Biso   1.000  C
  C172     1.0000 0.23890  0.36840  0.63470  Biso   1.000  C
  H137     1.0000 0.31880  0.11230  0.14340  Biso   1.000  H
  H138     1.0000 0.68120  0.61230  0.35660  Biso   1.000  H
  H139     1.0000 0.68120  0.88770  0.85660  Biso   1.000  H
  H140     1.0000 0.31880  0.38770  0.64340  Biso   1.000  H
  C173     1.0000 0.20620  0.12700  0.09620  Biso   1.000  C
  C174     1.0000 0.79380  0.62700  0.40380  Biso   1.000  C
  C175     1.0000 0.79380  0.87300  0.90380  Biso   1.000  C
  C176     1.0000 0.20620  0.37300  0.59620  Biso   1.000  C
  H141     1.0000 0.26090  0.10480  0.07920  Biso   1.000  H
  H142     1.0000 0.73910  0.60480  0.42080  Biso   1.000  H
  H143     1.0000 0.73910  0.89520  0.92080  Biso   1.000  H
  H144     1.0000 0.26090  0.39520  0.57920  Biso   1.000  H
  C177     1.0000 0.00640  0.17150  0.91240  Biso   1.000  C
  C178     1.0000 0.99360  0.67150  0.58760  Biso   1.000  C
  C179     1.0000 0.99360  0.82850  0.08760  Biso   1.000  C
  C180     1.0000 0.00640  0.32850  0.41240  Biso   1.000  C
  C181     1.0000 0.96770  0.16830  0.86960  Biso   1.000  C
  C182     1.0000 0.03230  0.66830  0.63040  Biso   1.000  C
  C183     1.0000 0.03230  0.83170  0.13040  Biso   1.000  C
  C184     1.0000 0.96770  0.33170  0.36960  Biso   1.000  C
  C185     1.0000 0.84630  0.19230  0.85550  Biso   1.000  C
  C186     1.0000 0.15370  0.69230  0.64450  Biso   1.000  C
  C187     1.0000 0.15370  0.80770  0.14450  Biso   1.000  C
  C188     1.0000 0.84630  0.30770  0.35550  Biso   1.000  C
  H145     1.0000 0.78670  0.21140  0.87230  Biso   1.000  H
  H146     1.0000 0.21330  0.71140  0.62770  Biso   1.000  H
  H147     1.0000 0.21330  0.78860  0.12770  Biso   1.000  H
  H148     1.0000 0.78670  0.28860  0.37230  Biso   1.000  H
  C189     1.0000 0.81520  0.18750  0.81630  Biso   1.000  C
  C190     1.0000 0.18480  0.68750  0.68370  Biso   1.000  C
  C191     1.0000 0.18480  0.81250  0.18370  Biso   1.000  C
  C192     1.0000 0.81520  0.31250  0.31630  Biso   1.000  C
  H149     1.0000 0.73610  0.20700  0.80700  Biso   1.000  H
  H150     1.0000 0.26390  0.70700  0.69300  Biso   1.000  H
  H151     1.0000 0.26390  0.79300  0.19300  Biso   1.000  H
  H152     1.0000 0.73610  0.29300  0.30700  Biso   1.000  H
  C193     1.0000 0.00580  0.13370  0.80470  Biso   1.000  C
  C194     1.0000 0.99420  0.63370  0.69530  Biso   1.000  C
  C195     1.0000 0.99420  0.86630  0.19530  Biso   1.000  C
  C196     1.0000 0.00580  0.36630  0.30470  Biso   1.000  C
  H153     1.0000 0.06080  0.11260  0.78740  Biso   1.000  H
  H154     1.0000 0.93920  0.61260  0.71260  Biso   1.000  H
  H155     1.0000 0.93920  0.88740  0.21260  Biso   1.000  H
  H156     1.0000 0.06080  0.38740  0.28740  Biso   1.000  H
  C197     1.0000 0.04970  0.13860  0.84310  Biso   1.000  C
  C198     1.0000 0.95030  0.63860  0.65690  Biso   1.000  C
  C199     1.0000 0.95030  0.86140  0.15690  Biso   1.000  C
  C200     1.0000 0.04970  0.36140  0.34310  Biso   1.000  C
  H157     1.0000 0.13300  0.12240  0.85110  Biso   1.000  H
  H158     1.0000 0.86700  0.62240  0.64890  Biso   1.000  H
  H159     1.0000 0.86700  0.87760  0.14890  Biso   1.000  H
  H160     1.0000 0.13300  0.37760  0.35110  Biso   1.000  H
  C201     1.0000 0.23640  0.97130  0.95350  Biso   1.000  C
  C202     1.0000 0.76360  0.47130  0.54650  Biso   1.000  C
  C203     1.0000 0.76360  0.02870  0.04650  Biso   1.000  C
  C204     1.0000 0.23640  0.52870  0.45350  Biso   1.000  C
  C205     1.0000 0.20470  0.95770  0.91140  Biso   1.000  C
  C206     1.0000 0.79530  0.45770  0.58860  Biso   1.000  C
  C207     1.0000 0.79530  0.04230  0.08860  Biso   1.000  C
  C208     1.0000 0.20470  0.54230  0.41140  Biso   1.000  C
  C209     1.0000 0.28630  0.92020  0.88820  Biso   1.000  C
  C210     1.0000 0.71370  0.42020  0.61180  Biso   1.000  C
  C211     1.0000 0.71370  0.07980  0.11180  Biso   1.000  C
  C212     1.0000 0.28630  0.57980  0.38820  Biso   1.000  C
  H161     1.0000 0.36200  0.89990  0.89930  Biso   1.000  H
  H162     1.0000 0.63800  0.39990  0.60070  Biso   1.000  H
  H163     1.0000 0.63800  0.10010  0.10070  Biso   1.000  H
  H164     1.0000 0.36200  0.60010  0.39930  Biso   1.000  H
  C213     1.0000 0.25750  0.91250  0.84910  Biso   1.000  C
  C214     1.0000 0.74250  0.41250  0.65090  Biso   1.000  C
  C215     1.0000 0.74250  0.08750  0.15090  Biso   1.000  C
  C216     1.0000 0.25750  0.58750  0.34910  Biso   1.000  C
  H165     1.0000 0.31630  0.88870  0.83410  Biso   1.000  H
  H166     1.0000 0.68370  0.38870  0.66590  Biso   1.000  H
  H167     1.0000 0.68370  0.11130  0.16590  Biso   1.000  H
  H168     1.0000 0.31630  0.61130  0.33410  Biso   1.000  H
  C217     1.0000 0.06610  0.97340  0.85380  Biso   1.000  C
  C218     1.0000 0.93390  0.47340  0.64620  Biso   1.000  C
  C219     1.0000 0.93390  0.02660  0.14620  Biso   1.000  C
  C220     1.0000 0.06610  0.52660  0.35380  Biso   1.000  C
  H169     1.0000 0.98840  0.99090  0.84230  Biso   1.000  H
  H170     1.0000 0.01160  0.49090  0.65770  Biso   1.000  H
  H171     1.0000 0.01160  0.00910  0.15770  Biso   1.000  H
  H172     1.0000 0.98840  0.50910  0.34230  Biso   1.000  H
  C221     1.0000 0.09150  0.98520  0.89300  Biso   1.000  C
  C222     1.0000 0.90850  0.48520  0.60700  Biso   1.000  C
  C223     1.0000 0.90850  0.01480  0.10700  Biso   1.000  C
  C224     1.0000 0.09150  0.51480  0.39300  Biso   1.000  C
  H173     1.0000 0.03340  0.01140  0.90700  Biso   1.000  H
  H174     1.0000 0.96660  0.51140  0.59300  Biso   1.000  H
  H175     1.0000 0.96660  0.98860  0.09300  Biso   1.000  H
  H176     1.0000 0.03340  0.48860  0.40700  Biso   1.000  H
  N1       1.0000 0.12160  0.63800  0.81870  Biso   1.000  N
  N2       1.0000 0.87840  0.13800  0.68130  Biso   1.000  N
  N3       1.0000 0.87840  0.36200  0.18130  Biso   1.000  N
  N4       1.0000 0.12160  0.86200  0.31870  Biso   1.000  N
  N5       1.0000 0.40130  0.51500  0.81280  Biso   1.000  N
  N6       1.0000 0.59870  0.01500  0.68720  Biso   1.000  N
  N7       1.0000 0.59870  0.48500  0.18720  Biso   1.000  N
  N8       1.0000 0.40130  0.98500  0.31280  Biso   1.000  N
  N9       1.0000 0.91580  0.66800  0.16380  Biso   1.000  N
  N10      1.0000 0.08420  0.16800  0.33620  Biso   1.000  N
  N11      1.0000 0.08420  0.33200  0.83620  Biso   1.000  N
  N12      1.0000 0.91580  0.83200  0.66380  Biso   1.000  N
  N13      1.0000 0.59400  0.03900  0.79740  Biso   1.000  N
  N14      1.0000 0.40600  0.53900  0.70260  Biso   1.000  N
  N15      1.0000 0.40600  0.96100  0.20260  Biso   1.000  N
  N16      1.0000 0.59400  0.46100  0.29740  Biso   1.000  N
  N17      1.0000 0.56520  0.36100  0.81520  Biso   1.000  N
  N18      1.0000 0.43480  0.86100  0.68480  Biso   1.000  N
  N19      1.0000 0.43480  0.63900  0.18480  Biso   1.000  N
  N20      1.0000 0.56520  0.13900  0.31520  Biso   1.000  N
  N21      1.0000 0.16550  0.16160  0.16100  Biso   1.000  N
  N22      1.0000 0.83450  0.66160  0.33900  Biso   1.000  N
  N23      1.0000 0.83450  0.83840  0.83900  Biso   1.000  N
  N24      1.0000 0.16550  0.33840  0.66100  Biso   1.000  N
  N25      1.0000 0.89080  0.15700  0.79110  Biso   1.000  N
  N26      1.0000 0.10920  0.65700  0.70890  Biso   1.000  N
  N27      1.0000 0.10920  0.84300  0.20890  Biso   1.000  N
  N28      1.0000 0.89080  0.34300  0.29110  Biso   1.000  N
  N29      1.0000 0.14680  0.93840  0.83190  Biso   1.000  N
  N30      1.0000 0.85320  0.43840  0.66810  Biso   1.000  N
  N31      1.0000 0.85320  0.06160  0.16810  Biso   1.000  N
  N32      1.0000 0.14680  0.56160  0.33190  Biso   1.000  N
  Cu29     1.0000 0.08780  0.30520  0.77820  Biso   1.000  Cu
  Cu30     1.0000 0.91220  0.80520  0.72180  Biso   1.000  Cu
  Cu31     1.0000 0.91220  0.69480  0.22180  Biso   1.000  Cu
  Cu32     1.0000 0.08780  0.19480  0.27820  Biso   1.000  Cu
  Cu33     1.0000 0.89080  0.17080  0.73560  Biso   1.000  Cu
  Cu34     1.0000 0.10920  0.67080  0.76440  Biso   1.000  Cu
  Cu35     1.0000 0.10920  0.82920  0.26440  Biso   1.000  Cu
  Cu36     1.0000 0.89080  0.32920  0.23560  Biso   1.000  Cu
