data_image0
_cell_length_a       18.001
_cell_length_b       10.1463
_cell_length_c       16.667
_cell_angle_alpha    90
_cell_angle_beta     97.706
_cell_angle_gamma    90

_symmetry_space_group_name_H-M    "P 1"
_symmetry_int_tables_number       1

loop_
  _symmetry_equiv_pos_as_xyz
  'x, y, z'

loop_
  _atom_site_label
  _atom_site_occupancy
  _atom_site_fract_x
  _atom_site_fract_y
  _atom_site_fract_z
  _atom_site_thermal_displace_type
  _atom_site_B_iso_or_equiv
  _atom_site_type_symbol
  Cu1      1.0000 0.57247  0.43770  0.02415  Biso   1.000  Cu
  Cu2      1.0000 0.42753  0.43770  0.47585  Biso   1.000  Cu
  Cu3      1.0000 0.07247  0.93770  0.02415  Biso   1.000  Cu
  Cu4      1.0000 0.92753  0.93770  0.47585  Biso   1.000  Cu
  Cu5      1.0000 0.42753  0.56230  0.97585  Biso   1.000  Cu
  Cu6      1.0000 0.57247  0.56230  0.52415  Biso   1.000  Cu
  Cu7      1.0000 0.92753  0.06230  0.97585  Biso   1.000  Cu
  Cu8      1.0000 0.07247  0.06230  0.52415  Biso   1.000  Cu
  Br1      1.0000 0.46752  0.43265  0.10444  Biso   1.000  Br
  Br2      1.0000 0.53248  0.43265  0.39556  Biso   1.000  Br
  Br3      1.0000 0.96752  0.93265  0.10444  Biso   1.000  Br
  Br4      1.0000 0.03248  0.93265  0.39556  Biso   1.000  Br
  Br5      1.0000 0.53248  0.56735  0.89556  Biso   1.000  Br
  Br6      1.0000 0.46752  0.56735  0.60444  Biso   1.000  Br
  Br7      1.0000 0.03248  0.06735  0.89556  Biso   1.000  Br
  Br8      1.0000 0.96752  0.06735  0.60444  Biso   1.000  Br
  N1       1.0000 0.64047  0.05510  0.01126  Biso   1.000  N
  N2       1.0000 0.35953  0.05510  0.48874  Biso   1.000  N
  N3       1.0000 0.14047  0.55510  0.01126  Biso   1.000  N
  N4       1.0000 0.85953  0.55510  0.48874  Biso   1.000  N
  N5       1.0000 0.35953  0.94490  0.98874  Biso   1.000  N
  N6       1.0000 0.64047  0.94490  0.51126  Biso   1.000  N
  N7       1.0000 0.85953  0.44490  0.98874  Biso   1.000  N
  N8       1.0000 0.14047  0.44490  0.51126  Biso   1.000  N
  N9       1.0000 0.64815  0.18280  0.03410  Biso   1.000  N
  N10      1.0000 0.35185  0.18280  0.46590  Biso   1.000  N
  N11      1.0000 0.14815  0.68280  0.03410  Biso   1.000  N
  N12      1.0000 0.85185  0.68280  0.46590  Biso   1.000  N
  N13      1.0000 0.35185  0.81720  0.96590  Biso   1.000  N
  N14      1.0000 0.64815  0.81720  0.53410  Biso   1.000  N
  N15      1.0000 0.85185  0.31720  0.96590  Biso   1.000  N
  N16      1.0000 0.14815  0.31720  0.53410  Biso   1.000  N
  N17      1.0000 0.59524  0.25000  0.99080  Biso   1.000  N
  N18      1.0000 0.40476  0.25000  0.50920  Biso   1.000  N
  N19      1.0000 0.09524  0.75000  0.99080  Biso   1.000  N
  N20      1.0000 0.90476  0.75000  0.50920  Biso   1.000  N
  N21      1.0000 0.40476  0.75000  0.00920  Biso   1.000  N
  N22      1.0000 0.59524  0.75000  0.49080  Biso   1.000  N
  N23      1.0000 0.90476  0.25000  0.00920  Biso   1.000  N
  N24      1.0000 0.09524  0.25000  0.49080  Biso   1.000  N
  N25      1.0000 0.83376  0.97070  0.91408  Biso   1.000  N
  N26      1.0000 0.16624  0.97070  0.58592  Biso   1.000  N
  N27      1.0000 0.33376  0.47070  0.91408  Biso   1.000  N
  N28      1.0000 0.66624  0.47070  0.58592  Biso   1.000  N
  N29      1.0000 0.16624  0.02930  0.08592  Biso   1.000  N
  N30      1.0000 0.83376  0.02930  0.41408  Biso   1.000  N
  N31      1.0000 0.66624  0.52930  0.08592  Biso   1.000  N
  N32      1.0000 0.33376  0.52930  0.41408  Biso   1.000  N
  N33      1.0000 0.77651  0.93080  0.95083  Biso   1.000  N
  N34      1.0000 0.22349  0.93080  0.54917  Biso   1.000  N
  N35      1.0000 0.27651  0.43080  0.95083  Biso   1.000  N
  N36      1.0000 0.72349  0.43080  0.54917  Biso   1.000  N
  N37      1.0000 0.22349  0.06920  0.04917  Biso   1.000  N
  N38      1.0000 0.77651  0.06920  0.45083  Biso   1.000  N
  N39      1.0000 0.72349  0.56920  0.04917  Biso   1.000  N
  N40      1.0000 0.27651  0.56920  0.45083  Biso   1.000  N
  N41      1.0000 0.72730  0.85090  0.90932  Biso   1.000  N
  N42      1.0000 0.27270  0.85090  0.59068  Biso   1.000  N
  N43      1.0000 0.22730  0.35090  0.90932  Biso   1.000  N
  N44      1.0000 0.77270  0.35090  0.59068  Biso   1.000  N
  N45      1.0000 0.27270  0.14910  0.09068  Biso   1.000  N
  N46      1.0000 0.72730  0.14910  0.40932  Biso   1.000  N
  N47      1.0000 0.77270  0.64910  0.09068  Biso   1.000  N
  N48      1.0000 0.22730  0.64910  0.40932  Biso   1.000  N
  C1       1.0000 0.55270  0.16580  0.93937  Biso   1.000  C
  C2       1.0000 0.44730  0.16580  0.56063  Biso   1.000  C
  C3       1.0000 0.05270  0.66580  0.93937  Biso   1.000  C
  C4       1.0000 0.94730  0.66580  0.56063  Biso   1.000  C
  C5       1.0000 0.44730  0.83420  0.06063  Biso   1.000  C
  C6       1.0000 0.55270  0.83420  0.43937  Biso   1.000  C
  C7       1.0000 0.94730  0.33420  0.06063  Biso   1.000  C
  C8       1.0000 0.05270  0.33420  0.43937  Biso   1.000  C
  C9       1.0000 0.58113  0.03950  0.95211  Biso   1.000  C
  C10      1.0000 0.41887  0.03950  0.54789  Biso   1.000  C
  C11      1.0000 0.08113  0.53950  0.95211  Biso   1.000  C
  C12      1.0000 0.91887  0.53950  0.54789  Biso   1.000  C
  C13      1.0000 0.41887  0.96050  0.04789  Biso   1.000  C
  C14      1.0000 0.58113  0.96050  0.45211  Biso   1.000  C
  C15      1.0000 0.91887  0.46050  0.04789  Biso   1.000  C
  C16      1.0000 0.08113  0.46050  0.45211  Biso   1.000  C
  C17      1.0000 0.54868  0.92980  0.90980  Biso   1.000  C
  C18      1.0000 0.45132  0.92980  0.59020  Biso   1.000  C
  C19      1.0000 0.04868  0.42980  0.90980  Biso   1.000  C
  C20      1.0000 0.95132  0.42980  0.59020  Biso   1.000  C
  C21      1.0000 0.45132  0.07020  0.09020  Biso   1.000  C
  C22      1.0000 0.54868  0.07020  0.40980  Biso   1.000  C
  C23      1.0000 0.95132  0.57020  0.09020  Biso   1.000  C
  C24      1.0000 0.04868  0.57020  0.40980  Biso   1.000  C
  H1       1.0000 0.56760  0.84500  0.91900  Biso   1.000  H
  H2       1.0000 0.43240  0.84500  0.58100  Biso   1.000  H
  H3       1.0000 0.06760  0.34500  0.91900  Biso   1.000  H
  H4       1.0000 0.93240  0.34500  0.58100  Biso   1.000  H
  H5       1.0000 0.43240  0.15500  0.08100  Biso   1.000  H
  H6       1.0000 0.56760  0.15500  0.41900  Biso   1.000  H
  H7       1.0000 0.93240  0.65500  0.08100  Biso   1.000  H
  H8       1.0000 0.06760  0.65500  0.41900  Biso   1.000  H
  C25      1.0000 0.48770  0.95550  0.85440  Biso   1.000  C
  C26      1.0000 0.51230  0.95550  0.64560  Biso   1.000  C
  C27      1.0000 0.98770  0.45550  0.85440  Biso   1.000  C
  C28      1.0000 0.01230  0.45550  0.64560  Biso   1.000  C
  C29      1.0000 0.51230  0.04450  0.14560  Biso   1.000  C
  C30      1.0000 0.48770  0.04450  0.35440  Biso   1.000  C
  C31      1.0000 0.01230  0.54450  0.14560  Biso   1.000  C
  C32      1.0000 0.98770  0.54450  0.35440  Biso   1.000  C
  H9       1.0000 0.46400  0.88570  0.82510  Biso   1.000  H
  H10      1.0000 0.53600  0.88570  0.67490  Biso   1.000  H
  H11      1.0000 0.96400  0.38570  0.82510  Biso   1.000  H
  H12      1.0000 0.03600  0.38570  0.67490  Biso   1.000  H
  H13      1.0000 0.53600  0.11430  0.17490  Biso   1.000  H
  H14      1.0000 0.46400  0.11430  0.32510  Biso   1.000  H
  H15      1.0000 0.03600  0.61430  0.17490  Biso   1.000  H
  H16      1.0000 0.96400  0.61430  0.32510  Biso   1.000  H
  C33      1.0000 0.45920  0.08330  0.83980  Biso   1.000  C
  C34      1.0000 0.54080  0.08330  0.66020  Biso   1.000  C
  C35      1.0000 0.95920  0.58330  0.83980  Biso   1.000  C
  C36      1.0000 0.04080  0.58330  0.66020  Biso   1.000  C
  C37      1.0000 0.54080  0.91670  0.16020  Biso   1.000  C
  C38      1.0000 0.45920  0.91670  0.33980  Biso   1.000  C
  C39      1.0000 0.04080  0.41670  0.16020  Biso   1.000  C
  C40      1.0000 0.95920  0.41670  0.33980  Biso   1.000  C
  H17      1.0000 0.41810  0.09590  0.80040  Biso   1.000  H
  H18      1.0000 0.58190  0.09590  0.69960  Biso   1.000  H
  H19      1.0000 0.91810  0.59590  0.80040  Biso   1.000  H
  H20      1.0000 0.08190  0.59590  0.69960  Biso   1.000  H
  H21      1.0000 0.58190  0.90410  0.19960  Biso   1.000  H
  H22      1.0000 0.41810  0.90410  0.30040  Biso   1.000  H
  H23      1.0000 0.08190  0.40410  0.19960  Biso   1.000  H
  H24      1.0000 0.91810  0.40410  0.30040  Biso   1.000  H
  C41      1.0000 0.49022  0.18950  0.88200  Biso   1.000  C
  C42      1.0000 0.50978  0.18950  0.61800  Biso   1.000  C
  C43      1.0000 0.99022  0.68950  0.88200  Biso   1.000  C
  C44      1.0000 0.00978  0.68950  0.61800  Biso   1.000  C
  C45      1.0000 0.50978  0.81050  0.11800  Biso   1.000  C
  C46      1.0000 0.49022  0.81050  0.38200  Biso   1.000  C
  C47      1.0000 0.00978  0.31050  0.11800  Biso   1.000  C
  C48      1.0000 0.99022  0.31050  0.38200  Biso   1.000  C
  H25      1.0000 0.47070  0.27390  0.87290  Biso   1.000  H
  H26      1.0000 0.52930  0.27390  0.62710  Biso   1.000  H
  H27      1.0000 0.97070  0.77390  0.87290  Biso   1.000  H
  H28      1.0000 0.02930  0.77390  0.62710  Biso   1.000  H
  H29      1.0000 0.52930  0.72610  0.12710  Biso   1.000  H
  H30      1.0000 0.47070  0.72610  0.37290  Biso   1.000  H
  H31      1.0000 0.02930  0.22610  0.12710  Biso   1.000  H
  H32      1.0000 0.97070  0.22610  0.37290  Biso   1.000  H
  C49      1.0000 0.75500  0.83640  0.83830  Biso   1.000  C
  C50      1.0000 0.24500  0.83640  0.66170  Biso   1.000  C
  C51      1.0000 0.25500  0.33640  0.83830  Biso   1.000  C
  C52      1.0000 0.74500  0.33640  0.66170  Biso   1.000  C
  C53      1.0000 0.24500  0.16360  0.16170  Biso   1.000  C
  C54      1.0000 0.75500  0.16360  0.33830  Biso   1.000  C
  C55      1.0000 0.74500  0.66360  0.16170  Biso   1.000  C
  C56      1.0000 0.25500  0.66360  0.33830  Biso   1.000  C
  C57      1.0000 0.82087  0.91110  0.84060  Biso   1.000  C
  C58      1.0000 0.17913  0.91110  0.65940  Biso   1.000  C
  C59      1.0000 0.32087  0.41110  0.84060  Biso   1.000  C
  C60      1.0000 0.67913  0.41110  0.65940  Biso   1.000  C
  C61      1.0000 0.17913  0.08890  0.15940  Biso   1.000  C
  C62      1.0000 0.82087  0.08890  0.34060  Biso   1.000  C
  C63      1.0000 0.67913  0.58890  0.15940  Biso   1.000  C
  C64      1.0000 0.32087  0.58890  0.34060  Biso   1.000  C
  C65      1.0000 0.86160  0.91420  0.77410  Biso   1.000  C
  C66      1.0000 0.13840  0.91420  0.72590  Biso   1.000  C
  C67      1.0000 0.36160  0.41420  0.77410  Biso   1.000  C
  C68      1.0000 0.63840  0.41420  0.72590  Biso   1.000  C
  C69      1.0000 0.13840  0.08580  0.22590  Biso   1.000  C
  C70      1.0000 0.86160  0.08580  0.27410  Biso   1.000  C
  C71      1.0000 0.63840  0.58580  0.22590  Biso   1.000  C
  C72      1.0000 0.36160  0.58580  0.27410  Biso   1.000  C
  H33      1.0000 0.90470  0.96500  0.77470  Biso   1.000  H
  H34      1.0000 0.09530  0.96500  0.72530  Biso   1.000  H
  H35      1.0000 0.40470  0.46500  0.77470  Biso   1.000  H
  H36      1.0000 0.59530  0.46500  0.72530  Biso   1.000  H
  H37      1.0000 0.09530  0.03500  0.22530  Biso   1.000  H
  H38      1.0000 0.90470  0.03500  0.27470  Biso   1.000  H
  H39      1.0000 0.59530  0.53500  0.22530  Biso   1.000  H
  H40      1.0000 0.40470  0.53500  0.27470  Biso   1.000  H
  C73      1.0000 0.83480  0.83940  0.70960  Biso   1.000  C
  C74      1.0000 0.16520  0.83940  0.79040  Biso   1.000  C
  C75      1.0000 0.33480  0.33940  0.70960  Biso   1.000  C
  C76      1.0000 0.66520  0.33940  0.79040  Biso   1.000  C
  C77      1.0000 0.16520  0.16060  0.29040  Biso   1.000  C
  C78      1.0000 0.83480  0.16060  0.20960  Biso   1.000  C
  C79      1.0000 0.66520  0.66060  0.29040  Biso   1.000  C
  C80      1.0000 0.33480  0.66060  0.20960  Biso   1.000  C
  H41      1.0000 0.86090  0.83780  0.66510  Biso   1.000  H
  H42      1.0000 0.13910  0.83780  0.83490  Biso   1.000  H
  H43      1.0000 0.36090  0.33780  0.66510  Biso   1.000  H
  H44      1.0000 0.63910  0.33780  0.83490  Biso   1.000  H
  H45      1.0000 0.13910  0.16220  0.33490  Biso   1.000  H
  H46      1.0000 0.86090  0.16220  0.16510  Biso   1.000  H
  H47      1.0000 0.63910  0.66220  0.33490  Biso   1.000  H
  H48      1.0000 0.36090  0.66220  0.16510  Biso   1.000  H
  C81      1.0000 0.76880  0.76370  0.70700  Biso   1.000  C
  C82      1.0000 0.23120  0.76370  0.79300  Biso   1.000  C
  C83      1.0000 0.26880  0.26370  0.70700  Biso   1.000  C
  C84      1.0000 0.73120  0.26370  0.79300  Biso   1.000  C
  C85      1.0000 0.23120  0.23630  0.29300  Biso   1.000  C
  C86      1.0000 0.76880  0.23630  0.20700  Biso   1.000  C
  C87      1.0000 0.73120  0.73630  0.29300  Biso   1.000  C
  C88      1.0000 0.26880  0.73630  0.20700  Biso   1.000  C
  H49      1.0000 0.75280  0.71400  0.66100  Biso   1.000  H
  H50      1.0000 0.24720  0.71400  0.83900  Biso   1.000  H
  H51      1.0000 0.25280  0.21400  0.66100  Biso   1.000  H
  H52      1.0000 0.74720  0.21400  0.83900  Biso   1.000  H
  H53      1.0000 0.24720  0.28600  0.33900  Biso   1.000  H
  H54      1.0000 0.75280  0.28600  0.16100  Biso   1.000  H
  H55      1.0000 0.74720  0.78600  0.33900  Biso   1.000  H
  H56      1.0000 0.25280  0.78600  0.16100  Biso   1.000  H
  C89      1.0000 0.72770  0.76150  0.77010  Biso   1.000  C
  C90      1.0000 0.27230  0.76150  0.72990  Biso   1.000  C
  C91      1.0000 0.22770  0.26150  0.77010  Biso   1.000  C
  C92      1.0000 0.77230  0.26150  0.72990  Biso   1.000  C
  C93      1.0000 0.27230  0.23850  0.22990  Biso   1.000  C
  C94      1.0000 0.72770  0.23850  0.27010  Biso   1.000  C
  C95      1.0000 0.77230  0.73850  0.22990  Biso   1.000  C
  C96      1.0000 0.22770  0.73850  0.27010  Biso   1.000  C
  H57      1.0000 0.68380  0.71250  0.76800  Biso   1.000  H
  H58      1.0000 0.31620  0.71250  0.73200  Biso   1.000  H
  H59      1.0000 0.18380  0.21250  0.76800  Biso   1.000  H
  H60      1.0000 0.81620  0.21250  0.73200  Biso   1.000  H
  H61      1.0000 0.31620  0.28750  0.23200  Biso   1.000  H
  H62      1.0000 0.68380  0.28750  0.26800  Biso   1.000  H
  H63      1.0000 0.81620  0.78750  0.23200  Biso   1.000  H
  H64      1.0000 0.18380  0.78750  0.26800  Biso   1.000  H
  C97      1.0000 0.69174  0.95960  0.05420  Biso   1.000  C
  C98      1.0000 0.30826  0.95960  0.44580  Biso   1.000  C
  C99      1.0000 0.19174  0.45960  0.05420  Biso   1.000  C
  C100     1.0000 0.80826  0.45960  0.44580  Biso   1.000  C
  C101     1.0000 0.30826  0.04040  0.94580  Biso   1.000  C
  C102     1.0000 0.69174  0.04040  0.55420  Biso   1.000  C
  C103     1.0000 0.80826  0.54040  0.94580  Biso   1.000  C
  C104     1.0000 0.19174  0.54040  0.55420  Biso   1.000  C
  H65      1.0000 0.67310  0.87150  0.04100  Biso   1.000  H
  H66      1.0000 0.32690  0.87150  0.45900  Biso   1.000  H
  H67      1.0000 0.17310  0.37150  0.04100  Biso   1.000  H
  H68      1.0000 0.82690  0.37150  0.45900  Biso   1.000  H
  H69      1.0000 0.32690  0.12850  0.95900  Biso   1.000  H
  H70      1.0000 0.67310  0.12850  0.54100  Biso   1.000  H
  H71      1.0000 0.82690  0.62850  0.95900  Biso   1.000  H
  H72      1.0000 0.17310  0.62850  0.54100  Biso   1.000  H
  H73      1.0000 0.69250  0.97210  0.11200  Biso   1.000  H
  H74      1.0000 0.30750  0.97210  0.38800  Biso   1.000  H
  H75      1.0000 0.19250  0.47210  0.11200  Biso   1.000  H
  H76      1.0000 0.80750  0.47210  0.38800  Biso   1.000  H
  H77      1.0000 0.30750  0.02790  0.88800  Biso   1.000  H
  H78      1.0000 0.69250  0.02790  0.61200  Biso   1.000  H
  H79      1.0000 0.80750  0.52790  0.88800  Biso   1.000  H
  H80      1.0000 0.19250  0.52790  0.61200  Biso   1.000  H
  C105     1.0000 0.77063  0.97020  0.03410  Biso   1.000  C
  C106     1.0000 0.22937  0.97020  0.46590  Biso   1.000  C
  C107     1.0000 0.27063  0.47020  0.03410  Biso   1.000  C
  C108     1.0000 0.72937  0.47020  0.46590  Biso   1.000  C
  C109     1.0000 0.22937  0.02980  0.96590  Biso   1.000  C
  C110     1.0000 0.77063  0.02980  0.53410  Biso   1.000  C
  C111     1.0000 0.72937  0.52980  0.96590  Biso   1.000  C
  C112     1.0000 0.27063  0.52980  0.53410  Biso   1.000  C
  H81      1.0000 0.80330  0.91490  0.07090  Biso   1.000  H
  H82      1.0000 0.19670  0.91490  0.42910  Biso   1.000  H
  H83      1.0000 0.30330  0.41490  0.07090  Biso   1.000  H
  H84      1.0000 0.69670  0.41490  0.42910  Biso   1.000  H
  H85      1.0000 0.19670  0.08510  0.92910  Biso   1.000  H
  H86      1.0000 0.80330  0.08510  0.57090  Biso   1.000  H
  H87      1.0000 0.69670  0.58510  0.92910  Biso   1.000  H
  H88      1.0000 0.30330  0.58510  0.57090  Biso   1.000  H
  H89      1.0000 0.78770  0.06060  0.04210  Biso   1.000  H
  H90      1.0000 0.21230  0.06060  0.45790  Biso   1.000  H
  H91      1.0000 0.28770  0.56060  0.04210  Biso   1.000  H
  H92      1.0000 0.71230  0.56060  0.45790  Biso   1.000  H
  H93      1.0000 0.21230  0.93940  0.95790  Biso   1.000  H
  H94      1.0000 0.78770  0.93940  0.54210  Biso   1.000  H
  H95      1.0000 0.71230  0.43940  0.95790  Biso   1.000  H
  H96      1.0000 0.28770  0.43940  0.54210  Biso   1.000  H
