data_image0
_cell_length_a       11.9208
_cell_length_b       11.9208
_cell_length_c       27.374
_cell_angle_alpha    90
_cell_angle_beta     90
_cell_angle_gamma    90

_symmetry_space_group_name_H-M    "P 1"
_symmetry_int_tables_number       1

loop_
  _symmetry_equiv_pos_as_xyz
  'x, y, z'

loop_
  _atom_site_label
  _atom_site_occupancy
  _atom_site_fract_x
  _atom_site_fract_y
  _atom_site_fract_z
  _atom_site_thermal_displace_type
  _atom_site_B_iso_or_equiv
  _atom_site_type_symbol
  I1       1.0000 0.55274  0.13144  0.68827  Biso   1.000  I
  I2       1.0000 0.44726  0.86856  0.18827  Biso   1.000  I
  I3       1.0000 0.86856  0.55274  0.93827  Biso   1.000  I
  I4       1.0000 0.13144  0.44726  0.43827  Biso   1.000  I
  I5       1.0000 0.44726  0.13144  0.31173  Biso   1.000  I
  I6       1.0000 0.55274  0.86856  0.81173  Biso   1.000  I
  I7       1.0000 0.13144  0.55274  0.06173  Biso   1.000  I
  I8       1.0000 0.86856  0.44726  0.56173  Biso   1.000  I
  I9       1.0000 0.29521  0.87419  0.68619  Biso   1.000  I
  I10      1.0000 0.70479  0.12581  0.18619  Biso   1.000  I
  I11      1.0000 0.12581  0.29521  0.93619  Biso   1.000  I
  I12      1.0000 0.87419  0.70479  0.43619  Biso   1.000  I
  I13      1.0000 0.70479  0.87419  0.31381  Biso   1.000  I
  I14      1.0000 0.29521  0.12581  0.81381  Biso   1.000  I
  I15      1.0000 0.87419  0.29521  0.06381  Biso   1.000  I
  I16      1.0000 0.12581  0.70479  0.56381  Biso   1.000  I
  Cu1      1.0000 0.34512  0.07995  0.71586  Biso   1.000  Cu
  Cu2      1.0000 0.65488  0.92005  0.21586  Biso   1.000  Cu
  Cu3      1.0000 0.92005  0.34512  0.96586  Biso   1.000  Cu
  Cu4      1.0000 0.07995  0.65488  0.46586  Biso   1.000  Cu
  Cu5      1.0000 0.65488  0.07995  0.28414  Biso   1.000  Cu
  Cu6      1.0000 0.34512  0.92005  0.78414  Biso   1.000  Cu
  Cu7      1.0000 0.07995  0.34512  0.03414  Biso   1.000  Cu
  Cu8      1.0000 0.92005  0.65488  0.53414  Biso   1.000  Cu
  Cu9      1.0000 0.50114  0.07639  0.78709  Biso   1.000  Cu
  Cu10     1.0000 0.49886  0.92361  0.28709  Biso   1.000  Cu
  Cu11     1.0000 0.92361  0.50114  0.03709  Biso   1.000  Cu
  Cu12     1.0000 0.07639  0.49886  0.53709  Biso   1.000  Cu
  Cu13     1.0000 0.49886  0.07639  0.21291  Biso   1.000  Cu
  Cu14     1.0000 0.50114  0.92361  0.71291  Biso   1.000  Cu
  Cu15     1.0000 0.07639  0.50114  0.96291  Biso   1.000  Cu
  Cu16     1.0000 0.92361  0.49886  0.46291  Biso   1.000  Cu
  N1       1.0000 0.23400  0.19400  0.69020  Biso   1.000  N
  N2       1.0000 0.76600  0.80600  0.19020  Biso   1.000  N
  N3       1.0000 0.80600  0.23400  0.94020  Biso   1.000  N
  N4       1.0000 0.19400  0.76600  0.44020  Biso   1.000  N
  N5       1.0000 0.76600  0.19400  0.30980  Biso   1.000  N
  N6       1.0000 0.23400  0.80600  0.80980  Biso   1.000  N
  N7       1.0000 0.19400  0.23400  0.05980  Biso   1.000  N
  N8       1.0000 0.80600  0.76600  0.55980  Biso   1.000  N
  N9       1.0000 0.61450  0.18930  0.81200  Biso   1.000  N
  N10      1.0000 0.38550  0.81070  0.31200  Biso   1.000  N
  N11      1.0000 0.81070  0.61450  0.06200  Biso   1.000  N
  N12      1.0000 0.18930  0.38550  0.56200  Biso   1.000  N
  N13      1.0000 0.38550  0.18930  0.18800  Biso   1.000  N
  N14      1.0000 0.61450  0.81070  0.68800  Biso   1.000  N
  N15      1.0000 0.18930  0.61450  0.93800  Biso   1.000  N
  N16      1.0000 0.81070  0.38550  0.43800  Biso   1.000  N
  N17      1.0000 0.25170  0.30590  0.68630  Biso   1.000  N
  N18      1.0000 0.74830  0.69410  0.18630  Biso   1.000  N
  N19      1.0000 0.69410  0.25170  0.93630  Biso   1.000  N
  N20      1.0000 0.30590  0.74830  0.43630  Biso   1.000  N
  N21      1.0000 0.74830  0.30590  0.31370  Biso   1.000  N
  N22      1.0000 0.25170  0.69410  0.81370  Biso   1.000  N
  N23      1.0000 0.30590  0.25170  0.06370  Biso   1.000  N
  N24      1.0000 0.69410  0.74830  0.56370  Biso   1.000  N
  N25      1.0000 0.14680  0.35340  0.68200  Biso   1.000  N
  N26      1.0000 0.85320  0.64660  0.18200  Biso   1.000  N
  N27      1.0000 0.64660  0.14680  0.93200  Biso   1.000  N
  N28      1.0000 0.35340  0.85320  0.43200  Biso   1.000  N
  N29      1.0000 0.85320  0.35340  0.31800  Biso   1.000  N
  N30      1.0000 0.14680  0.64660  0.81800  Biso   1.000  N
  N31      1.0000 0.35340  0.14680  0.06800  Biso   1.000  N
  N32      1.0000 0.64660  0.85320  0.56800  Biso   1.000  N
  N33      1.0000 0.59340  0.30000  0.81490  Biso   1.000  N
  N34      1.0000 0.40660  0.70000  0.31490  Biso   1.000  N
  N35      1.0000 0.70000  0.59340  0.06490  Biso   1.000  N
  N36      1.0000 0.30000  0.40660  0.56490  Biso   1.000  N
  N37      1.0000 0.40660  0.30000  0.18510  Biso   1.000  N
  N38      1.0000 0.59340  0.70000  0.68510  Biso   1.000  N
  N39      1.0000 0.30000  0.59340  0.93510  Biso   1.000  N
  N40      1.0000 0.70000  0.40660  0.43510  Biso   1.000  N
  N41      1.0000 0.69700  0.35100  0.81950  Biso   1.000  N
  N42      1.0000 0.30300  0.64900  0.31950  Biso   1.000  N
  N43      1.0000 0.64900  0.69700  0.06950  Biso   1.000  N
  N44      1.0000 0.35100  0.30300  0.56950  Biso   1.000  N
  N45      1.0000 0.30300  0.35100  0.18050  Biso   1.000  N
  N46      1.0000 0.69700  0.64900  0.68050  Biso   1.000  N
  N47      1.0000 0.35100  0.69700  0.93050  Biso   1.000  N
  N48      1.0000 0.64900  0.30300  0.43050  Biso   1.000  N
  C1       1.0000 0.07160  0.27410  0.68080  Biso   1.000  C
  C2       1.0000 0.92840  0.72590  0.18080  Biso   1.000  C
  C3       1.0000 0.72590  0.07160  0.93080  Biso   1.000  C
  C4       1.0000 0.27410  0.92840  0.43080  Biso   1.000  C
  C5       1.0000 0.92840  0.27410  0.31920  Biso   1.000  C
  C6       1.0000 0.07160  0.72590  0.81920  Biso   1.000  C
  C7       1.0000 0.27410  0.07160  0.06920  Biso   1.000  C
  C8       1.0000 0.72590  0.92840  0.56920  Biso   1.000  C
  C9       1.0000 0.12210  0.17130  0.68660  Biso   1.000  C
  C10      1.0000 0.87790  0.82870  0.18660  Biso   1.000  C
  C11      1.0000 0.82870  0.12210  0.93660  Biso   1.000  C
  C12      1.0000 0.17130  0.87790  0.43660  Biso   1.000  C
  C13      1.0000 0.87790  0.17130  0.31340  Biso   1.000  C
  C14      1.0000 0.12210  0.82870  0.81340  Biso   1.000  C
  C15      1.0000 0.17130  0.12210  0.06340  Biso   1.000  C
  C16      1.0000 0.82870  0.87790  0.56340  Biso   1.000  C
  C17      1.0000 0.04800  0.08000  0.68910  Biso   1.000  C
  C18      1.0000 0.95200  0.92000  0.18910  Biso   1.000  C
  C19      1.0000 0.92000  0.04800  0.93910  Biso   1.000  C
  C20      1.0000 0.08000  0.95200  0.43910  Biso   1.000  C
  C21      1.0000 0.95200  0.08000  0.31090  Biso   1.000  C
  C22      1.0000 0.04800  0.92000  0.81090  Biso   1.000  C
  C23      1.0000 0.08000  0.04800  0.06090  Biso   1.000  C
  C24      1.0000 0.92000  0.95200  0.56090  Biso   1.000  C
  H1       1.0000 0.07670  0.00760  0.69300  Biso   1.000  H
  H2       1.0000 0.92330  0.99240  0.19300  Biso   1.000  H
  H3       1.0000 0.99240  0.07670  0.94300  Biso   1.000  H
  H4       1.0000 0.00760  0.92330  0.44300  Biso   1.000  H
  H5       1.0000 0.92330  0.00760  0.30700  Biso   1.000  H
  H6       1.0000 0.07670  0.99240  0.80700  Biso   1.000  H
  H7       1.0000 0.00760  0.07670  0.05700  Biso   1.000  H
  H8       1.0000 0.99240  0.92330  0.55700  Biso   1.000  H
  C25      1.0000 0.93400  0.09600  0.68580  Biso   1.000  C
  C26      1.0000 0.06600  0.90400  0.18580  Biso   1.000  C
  C27      1.0000 0.90400  0.93400  0.93580  Biso   1.000  C
  C28      1.0000 0.09600  0.06600  0.43580  Biso   1.000  C
  C29      1.0000 0.06600  0.09600  0.31420  Biso   1.000  C
  C30      1.0000 0.93400  0.90400  0.81420  Biso   1.000  C
  C31      1.0000 0.09600  0.93400  0.06420  Biso   1.000  C
  C32      1.0000 0.90400  0.06600  0.56420  Biso   1.000  C
  H9       1.0000 0.88620  0.03540  0.68970  Biso   1.000  H
  H10      1.0000 0.11380  0.96460  0.18970  Biso   1.000  H
  H11      1.0000 0.96460  0.88620  0.93970  Biso   1.000  H
  H12      1.0000 0.03540  0.11380  0.43970  Biso   1.000  H
  H13      1.0000 0.11380  0.03540  0.31030  Biso   1.000  H
  H14      1.0000 0.88620  0.96460  0.81030  Biso   1.000  H
  H15      1.0000 0.03540  0.88620  0.06030  Biso   1.000  H
  H16      1.0000 0.96460  0.11380  0.56030  Biso   1.000  H
  C33      1.0000 0.88800  0.20100  0.67680  Biso   1.000  C
  C34      1.0000 0.11200  0.79900  0.17680  Biso   1.000  C
  C35      1.0000 0.79900  0.88800  0.92680  Biso   1.000  C
  C36      1.0000 0.20100  0.11200  0.42680  Biso   1.000  C
  C37      1.0000 0.11200  0.20100  0.32320  Biso   1.000  C
  C38      1.0000 0.88800  0.79900  0.82320  Biso   1.000  C
  C39      1.0000 0.20100  0.88800  0.07320  Biso   1.000  C
  C40      1.0000 0.79900  0.11200  0.57320  Biso   1.000  C
  H17      1.0000 0.81200  0.20850  0.67020  Biso   1.000  H
  H18      1.0000 0.18800  0.79150  0.17020  Biso   1.000  H
  H19      1.0000 0.79150  0.81200  0.92020  Biso   1.000  H
  H20      1.0000 0.20850  0.18800  0.42020  Biso   1.000  H
  H21      1.0000 0.18800  0.20850  0.32980  Biso   1.000  H
  H22      1.0000 0.81200  0.79150  0.82980  Biso   1.000  H
  H23      1.0000 0.20850  0.81200  0.07980  Biso   1.000  H
  H24      1.0000 0.79150  0.18800  0.57980  Biso   1.000  H
  C41      1.0000 0.95700  0.29400  0.67800  Biso   1.000  C
  C42      1.0000 0.04300  0.70600  0.17800  Biso   1.000  C
  C43      1.0000 0.70600  0.95700  0.92800  Biso   1.000  C
  C44      1.0000 0.29400  0.04300  0.42800  Biso   1.000  C
  C45      1.0000 0.04300  0.29400  0.32200  Biso   1.000  C
  C46      1.0000 0.95700  0.70600  0.82200  Biso   1.000  C
  C47      1.0000 0.29400  0.95700  0.07200  Biso   1.000  C
  C48      1.0000 0.70600  0.04300  0.57200  Biso   1.000  C
  H25      1.0000 0.92860  0.36690  0.67630  Biso   1.000  H
  H26      1.0000 0.07140  0.63310  0.17630  Biso   1.000  H
  H27      1.0000 0.63310  0.92860  0.92630  Biso   1.000  H
  H28      1.0000 0.36690  0.07140  0.42630  Biso   1.000  H
  H29      1.0000 0.07140  0.36690  0.32370  Biso   1.000  H
  H30      1.0000 0.92860  0.63310  0.82370  Biso   1.000  H
  H31      1.0000 0.36690  0.92860  0.07370  Biso   1.000  H
  H32      1.0000 0.63310  0.07140  0.57370  Biso   1.000  H
  C49      1.0000 0.15200  0.47600  0.67600  Biso   1.000  C
  C50      1.0000 0.84800  0.52400  0.17600  Biso   1.000  C
  C51      1.0000 0.52400  0.15200  0.92600  Biso   1.000  C
  C52      1.0000 0.47600  0.84800  0.42600  Biso   1.000  C
  C53      1.0000 0.84800  0.47600  0.32400  Biso   1.000  C
  C54      1.0000 0.15200  0.52400  0.82400  Biso   1.000  C
  C55      1.0000 0.47600  0.15200  0.07400  Biso   1.000  C
  C56      1.0000 0.52400  0.84800  0.57400  Biso   1.000  C
  H33      1.0000 0.07780  0.50630  0.66960  Biso   1.000  H
  H34      1.0000 0.92220  0.49370  0.16960  Biso   1.000  H
  H35      1.0000 0.49370  0.07780  0.91960  Biso   1.000  H
  H36      1.0000 0.50630  0.92220  0.41960  Biso   1.000  H
  H37      1.0000 0.92220  0.50630  0.33040  Biso   1.000  H
  H38      1.0000 0.07780  0.49370  0.83040  Biso   1.000  H
  H39      1.0000 0.50630  0.07780  0.08040  Biso   1.000  H
  H40      1.0000 0.49370  0.92220  0.58040  Biso   1.000  H
  H41      1.0000 0.20110  0.49620  0.64930  Biso   1.000  H
  H42      1.0000 0.79890  0.50380  0.14930  Biso   1.000  H
  H43      1.0000 0.50380  0.20110  0.89930  Biso   1.000  H
  H44      1.0000 0.49620  0.79890  0.39930  Biso   1.000  H
  H45      1.0000 0.79890  0.49620  0.35070  Biso   1.000  H
  H46      1.0000 0.20110  0.50380  0.85070  Biso   1.000  H
  H47      1.0000 0.49620  0.20110  0.10070  Biso   1.000  H
  H48      1.0000 0.50380  0.79890  0.60070  Biso   1.000  H
  C57      1.0000 0.19700  0.52300  0.72420  Biso   1.000  C
  C58      1.0000 0.80300  0.47700  0.22420  Biso   1.000  C
  C59      1.0000 0.47700  0.19700  0.97420  Biso   1.000  C
  C60      1.0000 0.52300  0.80300  0.47420  Biso   1.000  C
  C61      1.0000 0.80300  0.52300  0.27580  Biso   1.000  C
  C62      1.0000 0.19700  0.47700  0.77580  Biso   1.000  C
  C63      1.0000 0.52300  0.19700  0.02580  Biso   1.000  C
  C64      1.0000 0.47700  0.80300  0.52580  Biso   1.000  C
  H49      1.0000 0.27590  0.53880  0.71740  Biso   1.000  H
  H50      1.0000 0.72410  0.46120  0.21740  Biso   1.000  H
  H51      1.0000 0.46120  0.27590  0.96740  Biso   1.000  H
  H52      1.0000 0.53880  0.72410  0.46740  Biso   1.000  H
  H53      1.0000 0.72410  0.53880  0.28260  Biso   1.000  H
  H54      1.0000 0.27590  0.46120  0.78260  Biso   1.000  H
  H55      1.0000 0.53880  0.27590  0.03260  Biso   1.000  H
  H56      1.0000 0.46120  0.72410  0.53260  Biso   1.000  H
  H57      1.0000 0.16190  0.59620  0.72730  Biso   1.000  H
  H58      1.0000 0.83810  0.40380  0.22730  Biso   1.000  H
  H59      1.0000 0.40380  0.16190  0.97730  Biso   1.000  H
  H60      1.0000 0.59620  0.83810  0.47730  Biso   1.000  H
  H61      1.0000 0.83810  0.59620  0.27270  Biso   1.000  H
  H62      1.0000 0.16190  0.40380  0.77270  Biso   1.000  H
  H63      1.0000 0.59620  0.16190  0.02270  Biso   1.000  H
  H64      1.0000 0.40380  0.83810  0.52270  Biso   1.000  H
  C65      1.0000 0.77000  0.28000  0.82000  Biso   1.000  C
  C66      1.0000 0.23000  0.72000  0.32000  Biso   1.000  C
  C67      1.0000 0.72000  0.77000  0.07000  Biso   1.000  C
  C68      1.0000 0.28000  0.23000  0.57000  Biso   1.000  C
  C69      1.0000 0.23000  0.28000  0.18000  Biso   1.000  C
  C70      1.0000 0.77000  0.72000  0.68000  Biso   1.000  C
  C71      1.0000 0.28000  0.77000  0.93000  Biso   1.000  C
  C72      1.0000 0.72000  0.23000  0.43000  Biso   1.000  C
  C73      1.0000 0.74000  0.17000  0.81200  Biso   1.000  C
  C74      1.0000 0.26000  0.83000  0.31200  Biso   1.000  C
  C75      1.0000 0.83000  0.74000  0.06200  Biso   1.000  C
  C76      1.0000 0.17000  0.26000  0.56200  Biso   1.000  C
  C77      1.0000 0.26000  0.17000  0.18800  Biso   1.000  C
  C78      1.0000 0.74000  0.83000  0.68800  Biso   1.000  C
  C79      1.0000 0.17000  0.74000  0.93800  Biso   1.000  C
  C80      1.0000 0.83000  0.26000  0.43800  Biso   1.000  C
  C81      1.0000 0.80900  0.08400  0.81020  Biso   1.000  C
  C82      1.0000 0.19100  0.91600  0.31020  Biso   1.000  C
  C83      1.0000 0.91600  0.80900  0.06020  Biso   1.000  C
  C84      1.0000 0.08400  0.19100  0.56020  Biso   1.000  C
  C85      1.0000 0.19100  0.08400  0.18980  Biso   1.000  C
  C86      1.0000 0.80900  0.91600  0.68980  Biso   1.000  C
  C87      1.0000 0.08400  0.80900  0.93980  Biso   1.000  C
  C88      1.0000 0.91600  0.19100  0.43980  Biso   1.000  C
  H65      1.0000 0.78240  0.01130  0.80880  Biso   1.000  H
  H66      1.0000 0.21760  0.98870  0.30880  Biso   1.000  H
  H67      1.0000 0.98870  0.78240  0.05880  Biso   1.000  H
  H68      1.0000 0.01130  0.21760  0.55880  Biso   1.000  H
  H69      1.0000 0.21760  0.01130  0.19120  Biso   1.000  H
  H70      1.0000 0.78240  0.98870  0.69120  Biso   1.000  H
  H71      1.0000 0.01130  0.78240  0.94120  Biso   1.000  H
  H72      1.0000 0.98870  0.21760  0.44120  Biso   1.000  H
  C89      1.0000 0.92400  0.10400  0.81080  Biso   1.000  C
  C90      1.0000 0.07600  0.89600  0.31080  Biso   1.000  C
  C91      1.0000 0.89600  0.92400  0.06080  Biso   1.000  C
  C92      1.0000 0.10400  0.07600  0.56080  Biso   1.000  C
  C93      1.0000 0.07600  0.10400  0.18920  Biso   1.000  C
  C94      1.0000 0.92400  0.89600  0.68920  Biso   1.000  C
  C95      1.0000 0.10400  0.92400  0.93920  Biso   1.000  C
  C96      1.0000 0.89600  0.07600  0.43920  Biso   1.000  C
  H73      1.0000 0.97370  0.04620  0.80460  Biso   1.000  H
  H74      1.0000 0.02630  0.95380  0.30460  Biso   1.000  H
  H75      1.0000 0.95380  0.97370  0.05460  Biso   1.000  H
  H76      1.0000 0.04620  0.02630  0.55460  Biso   1.000  H
  H77      1.0000 0.02630  0.04620  0.19540  Biso   1.000  H
  H78      1.0000 0.97370  0.95380  0.69540  Biso   1.000  H
  H79      1.0000 0.04620  0.97370  0.94540  Biso   1.000  H
  H80      1.0000 0.95380  0.02630  0.44540  Biso   1.000  H
  C97      1.0000 0.96300  0.21100  0.82070  Biso   1.000  C
  C98      1.0000 0.03700  0.78900  0.32070  Biso   1.000  C
  C99      1.0000 0.78900  0.96300  0.07070  Biso   1.000  C
  C100     1.0000 0.21100  0.03700  0.57070  Biso   1.000  C
  C101     1.0000 0.03700  0.21100  0.17930  Biso   1.000  C
  C102     1.0000 0.96300  0.78900  0.67930  Biso   1.000  C
  C103     1.0000 0.21100  0.96300  0.92930  Biso   1.000  C
  C104     1.0000 0.78900  0.03700  0.42930  Biso   1.000  C
  H81      1.0000 0.03870  0.22250  0.82640  Biso   1.000  H
  H82      1.0000 0.96130  0.77750  0.32640  Biso   1.000  H
  H83      1.0000 0.77750  0.03870  0.07640  Biso   1.000  H
  H84      1.0000 0.22250  0.96130  0.57640  Biso   1.000  H
  H85      1.0000 0.96130  0.22250  0.17360  Biso   1.000  H
  H86      1.0000 0.03870  0.77750  0.67360  Biso   1.000  H
  H87      1.0000 0.22250  0.03870  0.92360  Biso   1.000  H
  H88      1.0000 0.77750  0.96130  0.42360  Biso   1.000  H
  C105     1.0000 0.89000  0.30100  0.82200  Biso   1.000  C
  C106     1.0000 0.11000  0.69900  0.32200  Biso   1.000  C
  C107     1.0000 0.69900  0.89000  0.07200  Biso   1.000  C
  C108     1.0000 0.30100  0.11000  0.57200  Biso   1.000  C
  C109     1.0000 0.11000  0.30100  0.17800  Biso   1.000  C
  C110     1.0000 0.89000  0.69900  0.67800  Biso   1.000  C
  C111     1.0000 0.30100  0.89000  0.92800  Biso   1.000  C
  C112     1.0000 0.69900  0.11000  0.42800  Biso   1.000  C
  H89      1.0000 0.91700  0.37380  0.82480  Biso   1.000  H
  H90      1.0000 0.08300  0.62620  0.32480  Biso   1.000  H
  H91      1.0000 0.62620  0.91700  0.07480  Biso   1.000  H
  H92      1.0000 0.37380  0.08300  0.57480  Biso   1.000  H
  H93      1.0000 0.08300  0.37380  0.17520  Biso   1.000  H
  H94      1.0000 0.91700  0.62620  0.67520  Biso   1.000  H
  H95      1.0000 0.37380  0.91700  0.92520  Biso   1.000  H
  H96      1.0000 0.62620  0.08300  0.42520  Biso   1.000  H
  C113     1.0000 0.68500  0.47400  0.82400  Biso   1.000  C
  C114     1.0000 0.31500  0.52600  0.32400  Biso   1.000  C
  C115     1.0000 0.52600  0.68500  0.07400  Biso   1.000  C
  C116     1.0000 0.47400  0.31500  0.57400  Biso   1.000  C
  C117     1.0000 0.31500  0.47400  0.17600  Biso   1.000  C
  C118     1.0000 0.68500  0.52600  0.67600  Biso   1.000  C
  C119     1.0000 0.47400  0.68500  0.92600  Biso   1.000  C
  C120     1.0000 0.52600  0.31500  0.42600  Biso   1.000  C
  H97      1.0000 0.75590  0.50610  0.83440  Biso   1.000  H
  H98      1.0000 0.24410  0.49390  0.33440  Biso   1.000  H
  H99      1.0000 0.49390  0.75590  0.08440  Biso   1.000  H
  H100     1.0000 0.50610  0.24410  0.58440  Biso   1.000  H
  H101     1.0000 0.24410  0.50610  0.16560  Biso   1.000  H
  H102     1.0000 0.75590  0.49390  0.66560  Biso   1.000  H
  H103     1.0000 0.50610  0.75590  0.91560  Biso   1.000  H
  H104     1.0000 0.49390  0.24410  0.41560  Biso   1.000  H
  H105     1.0000 0.62880  0.49170  0.84790  Biso   1.000  H
  H106     1.0000 0.37120  0.50830  0.34790  Biso   1.000  H
  H107     1.0000 0.50830  0.62880  0.09790  Biso   1.000  H
  H108     1.0000 0.49170  0.37120  0.59790  Biso   1.000  H
  H109     1.0000 0.37120  0.49170  0.15210  Biso   1.000  H
  H110     1.0000 0.62880  0.50830  0.65210  Biso   1.000  H
  H111     1.0000 0.49170  0.62880  0.90210  Biso   1.000  H
  H112     1.0000 0.50830  0.37120  0.40210  Biso   1.000  H
  C121     1.0000 0.65200  0.52800  0.77500  Biso   1.000  C
  C122     1.0000 0.34800  0.47200  0.27500  Biso   1.000  C
  C123     1.0000 0.47200  0.65200  0.02500  Biso   1.000  C
  C124     1.0000 0.52800  0.34800  0.52500  Biso   1.000  C
  C125     1.0000 0.34800  0.52800  0.22500  Biso   1.000  C
  C126     1.0000 0.65200  0.47200  0.72500  Biso   1.000  C
  C127     1.0000 0.52800  0.65200  0.97500  Biso   1.000  C
  C128     1.0000 0.47200  0.34800  0.47500  Biso   1.000  C
  H113     1.0000 0.57660  0.55530  0.77970  Biso   1.000  H
  H114     1.0000 0.42340  0.44470  0.27970  Biso   1.000  H
  H115     1.0000 0.44470  0.57660  0.02970  Biso   1.000  H
  H116     1.0000 0.55530  0.42340  0.52970  Biso   1.000  H
  H117     1.0000 0.42340  0.55530  0.22030  Biso   1.000  H
  H118     1.0000 0.57660  0.44470  0.72030  Biso   1.000  H
  H119     1.0000 0.55530  0.57660  0.97030  Biso   1.000  H
  H120     1.0000 0.44470  0.42340  0.47030  Biso   1.000  H
  H121     1.0000 0.69950  0.59340  0.77180  Biso   1.000  H
  H122     1.0000 0.30050  0.40660  0.27180  Biso   1.000  H
  H123     1.0000 0.40660  0.69950  0.02180  Biso   1.000  H
  H124     1.0000 0.59340  0.30050  0.52180  Biso   1.000  H
  H125     1.0000 0.30050  0.59340  0.22820  Biso   1.000  H
  H126     1.0000 0.69950  0.40660  0.72820  Biso   1.000  H
  H127     1.0000 0.59340  0.69950  0.97820  Biso   1.000  H
  H128     1.0000 0.40660  0.30050  0.47820  Biso   1.000  H
  C129     1.0000 0.50300  0.37500  0.80990  Biso   1.000  C
  C130     1.0000 0.49700  0.62500  0.30990  Biso   1.000  C
  C131     1.0000 0.62500  0.50300  0.05990  Biso   1.000  C
  C132     1.0000 0.37500  0.49700  0.55990  Biso   1.000  C
  C133     1.0000 0.49700  0.37500  0.19010  Biso   1.000  C
  C134     1.0000 0.50300  0.62500  0.69010  Biso   1.000  C
  C135     1.0000 0.37500  0.50300  0.94010  Biso   1.000  C
  C136     1.0000 0.62500  0.49700  0.44010  Biso   1.000  C
  C137     1.0000 0.51800  0.48900  0.81500  Biso   1.000  C
  C138     1.0000 0.48200  0.51100  0.31500  Biso   1.000  C
  C139     1.0000 0.51100  0.51800  0.06500  Biso   1.000  C
  C140     1.0000 0.48900  0.48200  0.56500  Biso   1.000  C
  C141     1.0000 0.48200  0.48900  0.18500  Biso   1.000  C
  C142     1.0000 0.51800  0.51100  0.68500  Biso   1.000  C
  C143     1.0000 0.48900  0.51800  0.93500  Biso   1.000  C
  C144     1.0000 0.51100  0.48200  0.43500  Biso   1.000  C
  C145     1.0000 0.62400  0.53500  0.81730  Biso   1.000  C
  C146     1.0000 0.37600  0.46500  0.31730  Biso   1.000  C
  C147     1.0000 0.46500  0.62400  0.06730  Biso   1.000  C
  C148     1.0000 0.53500  0.37600  0.56730  Biso   1.000  C
  C149     1.0000 0.37600  0.53500  0.18270  Biso   1.000  C
  C150     1.0000 0.62400  0.46500  0.68270  Biso   1.000  C
  C151     1.0000 0.53500  0.62400  0.93270  Biso   1.000  C
  C152     1.0000 0.46500  0.37600  0.43270  Biso   1.000  C
  C153     1.0000 0.71600  0.46500  0.82000  Biso   1.000  C
  C154     1.0000 0.28400  0.53500  0.32000  Biso   1.000  C
  C155     1.0000 0.53500  0.71600  0.07000  Biso   1.000  C
  C156     1.0000 0.46500  0.28400  0.57000  Biso   1.000  C
  C157     1.0000 0.28400  0.46500  0.18000  Biso   1.000  C
  C158     1.0000 0.71600  0.53500  0.68000  Biso   1.000  C
  C159     1.0000 0.46500  0.71600  0.93000  Biso   1.000  C
  C160     1.0000 0.53500  0.28400  0.43000  Biso   1.000  C
  C161     1.0000 0.89800  0.24900  0.82200  Biso   1.000  C
  C162     1.0000 0.10200  0.75100  0.32200  Biso   1.000  C
  C163     1.0000 0.75100  0.89800  0.07200  Biso   1.000  C
  C164     1.0000 0.24900  0.10200  0.57200  Biso   1.000  C
  C165     1.0000 0.10200  0.24900  0.17800  Biso   1.000  C
  C166     1.0000 0.89800  0.75100  0.67800  Biso   1.000  C
  C167     1.0000 0.24900  0.89800  0.92800  Biso   1.000  C
  C168     1.0000 0.75100  0.10200  0.42800  Biso   1.000  C
  C169     1.0000 0.95700  0.29600  0.77710  Biso   1.000  C
  C170     1.0000 0.04300  0.70400  0.27710  Biso   1.000  C
  C171     1.0000 0.70400  0.95700  0.02710  Biso   1.000  C
  C172     1.0000 0.29600  0.04300  0.52710  Biso   1.000  C
  C173     1.0000 0.04300  0.29600  0.22290  Biso   1.000  C
  C174     1.0000 0.95700  0.70400  0.72290  Biso   1.000  C
  C175     1.0000 0.29600  0.95700  0.97290  Biso   1.000  C
  C176     1.0000 0.70400  0.04300  0.47290  Biso   1.000  C
  C177     1.0000 0.33700  0.38500  0.69200  Biso   1.000  C
  C178     1.0000 0.66300  0.61500  0.19200  Biso   1.000  C
  C179     1.0000 0.61500  0.33700  0.94200  Biso   1.000  C
  C180     1.0000 0.38500  0.66300  0.44200  Biso   1.000  C
  C181     1.0000 0.66300  0.38500  0.30800  Biso   1.000  C
  C182     1.0000 0.33700  0.61500  0.80800  Biso   1.000  C
  C183     1.0000 0.38500  0.33700  0.05800  Biso   1.000  C
  C184     1.0000 0.61500  0.66300  0.55800  Biso   1.000  C
  C185     1.0000 0.32000  0.49800  0.68490  Biso   1.000  C
  C186     1.0000 0.68000  0.50200  0.18490  Biso   1.000  C
  C187     1.0000 0.50200  0.32000  0.93490  Biso   1.000  C
  C188     1.0000 0.49800  0.68000  0.43490  Biso   1.000  C
  C189     1.0000 0.68000  0.49800  0.31510  Biso   1.000  C
  C190     1.0000 0.32000  0.50200  0.81510  Biso   1.000  C
  C191     1.0000 0.49800  0.32000  0.06510  Biso   1.000  C
  C192     1.0000 0.50200  0.68000  0.56510  Biso   1.000  C
  C193     1.0000 0.21200  0.54100  0.68130  Biso   1.000  C
  C194     1.0000 0.78800  0.45900  0.18130  Biso   1.000  C
  C195     1.0000 0.45900  0.21200  0.93130  Biso   1.000  C
  C196     1.0000 0.54100  0.78800  0.43130  Biso   1.000  C
  C197     1.0000 0.78800  0.54100  0.31870  Biso   1.000  C
  C198     1.0000 0.21200  0.45900  0.81870  Biso   1.000  C
  C199     1.0000 0.54100  0.21200  0.06870  Biso   1.000  C
  C200     1.0000 0.45900  0.78800  0.56870  Biso   1.000  C
  C201     1.0000 0.12300  0.46600  0.68100  Biso   1.000  C
  C202     1.0000 0.87700  0.53400  0.18100  Biso   1.000  C
  C203     1.0000 0.53400  0.12300  0.93100  Biso   1.000  C
  C204     1.0000 0.46600  0.87700  0.43100  Biso   1.000  C
  C205     1.0000 0.87700  0.46600  0.31900  Biso   1.000  C
  C206     1.0000 0.12300  0.53400  0.81900  Biso   1.000  C
  C207     1.0000 0.46600  0.12300  0.06900  Biso   1.000  C
  C208     1.0000 0.53400  0.87700  0.56900  Biso   1.000  C
  C209     1.0000 0.94900  0.25100  0.68200  Biso   1.000  C
  C210     1.0000 0.05100  0.74900  0.18200  Biso   1.000  C
  C211     1.0000 0.74900  0.94900  0.93200  Biso   1.000  C
  C212     1.0000 0.25100  0.05100  0.43200  Biso   1.000  C
  C213     1.0000 0.05100  0.25100  0.31800  Biso   1.000  C
  C214     1.0000 0.94900  0.74900  0.81800  Biso   1.000  C
  C215     1.0000 0.25100  0.94900  0.06800  Biso   1.000  C
  C216     1.0000 0.74900  0.05100  0.56800  Biso   1.000  C
  C217     1.0000 0.89600  0.29400  0.72890  Biso   1.000  C
  C218     1.0000 0.10400  0.70600  0.22890  Biso   1.000  C
  C219     1.0000 0.70600  0.89600  0.97890  Biso   1.000  C
  C220     1.0000 0.29400  0.10400  0.47890  Biso   1.000  C
  C221     1.0000 0.10400  0.29400  0.27110  Biso   1.000  C
  C222     1.0000 0.89600  0.70600  0.77110  Biso   1.000  C
  C223     1.0000 0.29400  0.89600  0.02110  Biso   1.000  C
  C224     1.0000 0.70600  0.10400  0.52110  Biso   1.000  C
  H129     1.0000 0.43220  0.34650  0.80310  Biso   1.000  H
  H130     1.0000 0.56780  0.65350  0.30310  Biso   1.000  H
  H131     1.0000 0.65350  0.43220  0.05310  Biso   1.000  H
  H132     1.0000 0.34650  0.56780  0.55310  Biso   1.000  H
  H133     1.0000 0.56780  0.34650  0.19690  Biso   1.000  H
  H134     1.0000 0.43220  0.65350  0.69690  Biso   1.000  H
  H135     1.0000 0.34650  0.43220  0.94690  Biso   1.000  H
  H136     1.0000 0.65350  0.56780  0.44690  Biso   1.000  H
  H137     1.0000 0.45570  0.53530  0.81700  Biso   1.000  H
  H138     1.0000 0.54430  0.46470  0.31700  Biso   1.000  H
  H139     1.0000 0.46470  0.45570  0.06700  Biso   1.000  H
  H140     1.0000 0.53530  0.54430  0.56700  Biso   1.000  H
  H141     1.0000 0.54430  0.53530  0.18300  Biso   1.000  H
  H142     1.0000 0.45570  0.46470  0.68300  Biso   1.000  H
  H143     1.0000 0.53530  0.45570  0.93300  Biso   1.000  H
  H144     1.0000 0.46470  0.54430  0.43300  Biso   1.000  H
  H145     1.0000 0.63370  0.61270  0.81680  Biso   1.000  H
  H146     1.0000 0.36630  0.38730  0.31680  Biso   1.000  H
  H147     1.0000 0.38730  0.63370  0.06680  Biso   1.000  H
  H148     1.0000 0.61270  0.36630  0.56680  Biso   1.000  H
  H149     1.0000 0.36630  0.61270  0.18320  Biso   1.000  H
  H150     1.0000 0.63370  0.38730  0.68320  Biso   1.000  H
  H151     1.0000 0.61270  0.63370  0.93320  Biso   1.000  H
  H152     1.0000 0.38730  0.36630  0.43320  Biso   1.000  H
  H153     1.0000 0.78870  0.49380  0.82270  Biso   1.000  H
  H154     1.0000 0.21130  0.50620  0.32270  Biso   1.000  H
  H155     1.0000 0.50620  0.78870  0.07270  Biso   1.000  H
  H156     1.0000 0.49380  0.21130  0.57270  Biso   1.000  H
  H157     1.0000 0.21130  0.49380  0.17730  Biso   1.000  H
  H158     1.0000 0.78870  0.50620  0.67730  Biso   1.000  H
  H159     1.0000 0.49380  0.78870  0.92730  Biso   1.000  H
  H160     1.0000 0.50620  0.21130  0.42730  Biso   1.000  H
  H161     1.0000 0.91750  0.17020  0.82580  Biso   1.000  H
  H162     1.0000 0.08250  0.82980  0.32580  Biso   1.000  H
  H163     1.0000 0.82980  0.91750  0.07580  Biso   1.000  H
  H164     1.0000 0.17020  0.08250  0.57580  Biso   1.000  H
  H165     1.0000 0.08250  0.17020  0.17420  Biso   1.000  H
  H166     1.0000 0.91750  0.82980  0.67420  Biso   1.000  H
  H167     1.0000 0.17020  0.91750  0.92420  Biso   1.000  H
  H168     1.0000 0.82980  0.08250  0.42420  Biso   1.000  H
  H169     1.0000 0.92350  0.28840  0.85080  Biso   1.000  H
  H170     1.0000 0.07650  0.71160  0.35080  Biso   1.000  H
  H171     1.0000 0.71160  0.92350  0.10080  Biso   1.000  H
  H172     1.0000 0.28840  0.07650  0.60080  Biso   1.000  H
  H173     1.0000 0.07650  0.28840  0.14920  Biso   1.000  H
  H174     1.0000 0.92350  0.71160  0.64920  Biso   1.000  H
  H175     1.0000 0.28840  0.92350  0.89920  Biso   1.000  H
  H176     1.0000 0.71160  0.07650  0.39920  Biso   1.000  H
  H177     1.0000 0.97680  0.37300  0.78410  Biso   1.000  H
  H178     1.0000 0.02320  0.62700  0.28410  Biso   1.000  H
  H179     1.0000 0.62700  0.97680  0.03410  Biso   1.000  H
  H180     1.0000 0.37300  0.02320  0.53410  Biso   1.000  H
  H181     1.0000 0.02320  0.37300  0.21590  Biso   1.000  H
  H182     1.0000 0.97680  0.62700  0.71590  Biso   1.000  H
  H183     1.0000 0.37300  0.97680  0.96590  Biso   1.000  H
  H184     1.0000 0.62700  0.02320  0.46590  Biso   1.000  H
  H185     1.0000 0.02670  0.25460  0.77310  Biso   1.000  H
  H186     1.0000 0.97330  0.74540  0.27310  Biso   1.000  H
  H187     1.0000 0.74540  0.02670  0.02310  Biso   1.000  H
  H188     1.0000 0.25460  0.97330  0.52310  Biso   1.000  H
  H189     1.0000 0.97330  0.25460  0.22690  Biso   1.000  H
  H190     1.0000 0.02670  0.74540  0.72690  Biso   1.000  H
  H191     1.0000 0.25460  0.02670  0.97690  Biso   1.000  H
  H192     1.0000 0.74540  0.97330  0.47690  Biso   1.000  H
  H193     1.0000 0.40820  0.36050  0.70090  Biso   1.000  H
  H194     1.0000 0.59180  0.63950  0.20090  Biso   1.000  H
  H195     1.0000 0.63950  0.40820  0.95090  Biso   1.000  H
  H196     1.0000 0.36050  0.59180  0.45090  Biso   1.000  H
  H197     1.0000 0.59180  0.36050  0.29910  Biso   1.000  H
  H198     1.0000 0.40820  0.63950  0.79910  Biso   1.000  H
  H199     1.0000 0.36050  0.40820  0.04910  Biso   1.000  H
  H200     1.0000 0.63950  0.59180  0.54910  Biso   1.000  H
  H201     1.0000 0.38110  0.54640  0.68260  Biso   1.000  H
  H202     1.0000 0.61890  0.45360  0.18260  Biso   1.000  H
  H203     1.0000 0.45360  0.38110  0.93260  Biso   1.000  H
  H204     1.0000 0.54640  0.61890  0.43260  Biso   1.000  H
  H205     1.0000 0.61890  0.54640  0.31740  Biso   1.000  H
  H206     1.0000 0.38110  0.45360  0.81740  Biso   1.000  H
  H207     1.0000 0.54640  0.38110  0.06740  Biso   1.000  H
  H208     1.0000 0.45360  0.61890  0.56740  Biso   1.000  H
  H209     1.0000 0.19960  0.61830  0.67920  Biso   1.000  H
  H210     1.0000 0.80040  0.38170  0.17920  Biso   1.000  H
  H211     1.0000 0.38170  0.19960  0.92920  Biso   1.000  H
  H212     1.0000 0.61830  0.80040  0.42920  Biso   1.000  H
  H213     1.0000 0.80040  0.61830  0.32080  Biso   1.000  H
  H214     1.0000 0.19960  0.38170  0.82080  Biso   1.000  H
  H215     1.0000 0.61830  0.19960  0.07080  Biso   1.000  H
  H216     1.0000 0.38170  0.80040  0.57080  Biso   1.000  H
  H217     1.0000 0.04950  0.49190  0.67980  Biso   1.000  H
  H218     1.0000 0.95050  0.50810  0.17980  Biso   1.000  H
  H219     1.0000 0.50810  0.04950  0.92980  Biso   1.000  H
  H220     1.0000 0.49190  0.95050  0.42980  Biso   1.000  H
  H221     1.0000 0.95050  0.49190  0.32020  Biso   1.000  H
  H222     1.0000 0.04950  0.50810  0.82020  Biso   1.000  H
  H223     1.0000 0.49190  0.04950  0.07020  Biso   1.000  H
  H224     1.0000 0.50810  0.95050  0.57020  Biso   1.000  H
  H225     1.0000 0.93700  0.17090  0.67890  Biso   1.000  H
  H226     1.0000 0.06300  0.82910  0.17890  Biso   1.000  H
  H227     1.0000 0.82910  0.93700  0.92890  Biso   1.000  H
  H228     1.0000 0.17090  0.06300  0.42890  Biso   1.000  H
  H229     1.0000 0.06300  0.17090  0.32110  Biso   1.000  H
  H230     1.0000 0.93700  0.82910  0.82110  Biso   1.000  H
  H231     1.0000 0.17090  0.93700  0.07110  Biso   1.000  H
  H232     1.0000 0.82910  0.06300  0.57110  Biso   1.000  H
  H233     1.0000 0.91390  0.28730  0.65410  Biso   1.000  H
  H234     1.0000 0.08610  0.71270  0.15410  Biso   1.000  H
  H235     1.0000 0.71270  0.91390  0.90410  Biso   1.000  H
  H236     1.0000 0.28730  0.08610  0.40410  Biso   1.000  H
  H237     1.0000 0.08610  0.28730  0.34590  Biso   1.000  H
  H238     1.0000 0.91390  0.71270  0.84590  Biso   1.000  H
  H239     1.0000 0.28730  0.91390  0.09590  Biso   1.000  H
  H240     1.0000 0.71270  0.08610  0.59590  Biso   1.000  H
  H241     1.0000 0.87230  0.37000  0.72260  Biso   1.000  H
  H242     1.0000 0.12770  0.63000  0.22260  Biso   1.000  H
  H243     1.0000 0.63000  0.87230  0.97260  Biso   1.000  H
  H244     1.0000 0.37000  0.12770  0.47260  Biso   1.000  H
  H245     1.0000 0.12770  0.37000  0.27740  Biso   1.000  H
  H246     1.0000 0.87230  0.63000  0.77740  Biso   1.000  H
  H247     1.0000 0.37000  0.87230  0.02740  Biso   1.000  H
  H248     1.0000 0.63000  0.12770  0.52740  Biso   1.000  H
  H249     1.0000 0.82880  0.24980  0.73390  Biso   1.000  H
  H250     1.0000 0.17120  0.75020  0.23390  Biso   1.000  H
  H251     1.0000 0.75020  0.82880  0.98390  Biso   1.000  H
  H252     1.0000 0.24980  0.17120  0.48390  Biso   1.000  H
  H253     1.0000 0.17120  0.24980  0.26610  Biso   1.000  H
  H254     1.0000 0.82880  0.75020  0.76610  Biso   1.000  H
  H255     1.0000 0.24980  0.82880  0.01610  Biso   1.000  H
  H256     1.0000 0.75020  0.17120  0.51610  Biso   1.000  H
  N49      1.0000 0.70800  0.17000  0.81500  Biso   1.000  N
  N50      1.0000 0.29200  0.83000  0.31500  Biso   1.000  N
  N51      1.0000 0.83000  0.70800  0.06500  Biso   1.000  N
  N52      1.0000 0.17000  0.29200  0.56500  Biso   1.000  N
  N53      1.0000 0.29200  0.17000  0.18500  Biso   1.000  N
  N54      1.0000 0.70800  0.83000  0.68500  Biso   1.000  N
  N55      1.0000 0.17000  0.70800  0.93500  Biso   1.000  N
  N56      1.0000 0.83000  0.29200  0.43500  Biso   1.000  N
  N57      1.0000 0.77000  0.26000  0.81900  Biso   1.000  N
  N58      1.0000 0.23000  0.74000  0.31900  Biso   1.000  N
  N59      1.0000 0.74000  0.77000  0.06900  Biso   1.000  N
  N60      1.0000 0.26000  0.23000  0.56900  Biso   1.000  N
  N61      1.0000 0.23000  0.26000  0.18100  Biso   1.000  N
  N62      1.0000 0.77000  0.74000  0.68100  Biso   1.000  N
  N63      1.0000 0.26000  0.77000  0.93100  Biso   1.000  N
  N64      1.0000 0.74000  0.23000  0.43100  Biso   1.000  N
