data_image0
_cell_length_a       4.0289
_cell_length_b       14.208
_cell_length_c       14.533
_cell_angle_alpha    80.59
_cell_angle_beta     82.05
_cell_angle_gamma    81.85

_symmetry_space_group_name_H-M    "P 1"
_symmetry_int_tables_number       1

loop_
  _symmetry_equiv_pos_as_xyz
  'x, y, z'

loop_
  _atom_site_label
  _atom_site_occupancy
  _atom_site_fract_x
  _atom_site_fract_y
  _atom_site_fract_z
  _atom_site_thermal_displace_type
  _atom_site_B_iso_or_equiv
  _atom_site_type_symbol
  Cu1      1.0000 0.60720  0.37973  0.48998  Biso   1.000  Cu
  Cu2      1.0000 0.39280  0.62027  0.51002  Biso   1.000  Cu
  Cu3      1.0000 0.23740  0.12027  0.00989  Biso   1.000  Cu
  Cu4      1.0000 0.76260  0.87973  0.99011  Biso   1.000  Cu
  Cl1      1.0000 0.01190  0.28145  0.48071  Biso   1.000  Cl
  Cl2      1.0000 0.98810  0.71855  0.51929  Biso   1.000  Cl
  Cl3      1.0000 0.74990  0.21839  0.01942  Biso   1.000  Cl
  Cl4      1.0000 0.25010  0.78161  0.98058  Biso   1.000  Cl
  C1       1.0000 0.35510  0.49070  0.13830  Biso   1.000  C
  C2       1.0000 0.64490  0.50930  0.86170  Biso   1.000  C
  H1       1.0000 0.41630  0.43990  0.10380  Biso   1.000  H
  H2       1.0000 0.58370  0.56010  0.89620  Biso   1.000  H
  C3       1.0000 0.82290  0.85800  0.32620  Biso   1.000  C
  C4       1.0000 0.17710  0.14200  0.67380  Biso   1.000  C
  C5       1.0000 0.04930  0.93000  0.39030  Biso   1.000  C
  C6       1.0000 0.95070  0.07000  0.60970  Biso   1.000  C
  C7       1.0000 0.22810  0.56920  0.10990  Biso   1.000  C
  C8       1.0000 0.77190  0.43080  0.89010  Biso   1.000  C
  H3       1.0000 0.18570  0.58480  0.04760  Biso   1.000  H
  H4       1.0000 0.81430  0.41520  0.95240  Biso   1.000  H
  C9       1.0000 0.17390  0.63770  0.26720  Biso   1.000  C
  C10      1.0000 0.82610  0.36230  0.73280  Biso   1.000  C
  H5       1.0000 0.10390  0.68820  0.30160  Biso   1.000  H
  H6       1.0000 0.89610  0.31180  0.69840  Biso   1.000  H
  C11      1.0000 0.76930  0.86250  0.23230  Biso   1.000  C
  C12      1.0000 0.23070  0.13750  0.76770  Biso   1.000  C
  H7       1.0000 0.65450  0.82700  0.20160  Biso   1.000  H
  H8       1.0000 0.34550  0.17300  0.79840  Biso   1.000  H
  C13      1.0000 0.13970  0.64080  0.17380  Biso   1.000  C
  C14      1.0000 0.86030  0.35920  0.82620  Biso   1.000  C
  H9       1.0000 0.04140  0.69990  0.14590  Biso   1.000  H
  H10      1.0000 0.95860  0.30010  0.85410  Biso   1.000  H
  C15      1.0000 0.22530  0.00850  0.36130  Biso   1.000  C
  C16      1.0000 0.77470  0.99150  0.63870  Biso   1.000  C
  H11      1.0000 0.33480  0.04540  0.39190  Biso   1.000  H
  H12      1.0000 0.66520  0.95460  0.60810  Biso   1.000  H
  C17      1.0000 0.17240  0.01080  0.26470  Biso   1.000  C
  C18      1.0000 0.82760  0.98920  0.73530  Biso   1.000  C
  C19      1.0000 0.39640  0.48850  0.23460  Biso   1.000  C
  C20      1.0000 0.60360  0.51150  0.76540  Biso   1.000  C
  C21      1.0000 0.95450  0.94100  0.20200  Biso   1.000  C
  C22      1.0000 0.04550  0.05900  0.79800  Biso   1.000  C
  C23      1.0000 0.40160  0.25030  0.25050  Biso   1.000  C
  C24      1.0000 0.59840  0.74970  0.74950  Biso   1.000  C
  H13      1.0000 0.23970  0.24320  0.30640  Biso   1.000  H
  H14      1.0000 0.76030  0.75680  0.69360  Biso   1.000  H
  H15      1.0000 0.27490  0.27500  0.19770  Biso   1.000  H
  H16      1.0000 0.72510  0.72500  0.80230  Biso   1.000  H
  C25      1.0000 0.56360  0.15950  0.23730  Biso   1.000  C
  C26      1.0000 0.43640  0.84050  0.76270  Biso   1.000  C
  H17      1.0000 0.66550  0.13150  0.29380  Biso   1.000  H
  H18      1.0000 0.33450  0.86850  0.70620  Biso   1.000  H
  H19      1.0000 0.74590  0.16760  0.18660  Biso   1.000  H
  H20      1.0000 0.25410  0.83240  0.81340  Biso   1.000  H
  C27      1.0000 0.66760  0.33980  0.26250  Biso   1.000  C
  C28      1.0000 0.33240  0.66020  0.73750  Biso   1.000  C
  H21      1.0000 0.82230  0.30990  0.30730  Biso   1.000  H
  H22      1.0000 0.17770  0.69010  0.69270  Biso   1.000  H
  H23      1.0000 0.80310  0.35390  0.20240  Biso   1.000  H
  H24      1.0000 0.19690  0.64610  0.79760  Biso   1.000  H
  C29      1.0000 0.31020  0.55840  0.29830  Biso   1.000  C
  C30      1.0000 0.68980  0.44160  0.70170  Biso   1.000  C
  N1       1.0000 0.51550  0.45540  0.38020  Biso   1.000  N
  N2       1.0000 0.48450  0.54460  0.61980  Biso   1.000  N
  N3       1.0000 0.38460  0.53650  0.38720  Biso   1.000  N
  N4       1.0000 0.61540  0.46350  0.61280  Biso   1.000  N
  N5       1.0000 0.17830  0.04380  0.12050  Biso   1.000  N
  N6       1.0000 0.82170  0.95620  0.87950  Biso   1.000  N
  N7       1.0000 0.96160  0.96490  0.11340  Biso   1.000  N
  N8       1.0000 0.03840  0.03510  0.88660  Biso   1.000  N
  N9       1.0000 0.30980  0.07350  0.21050  Biso   1.000  N
  N10      1.0000 0.69020  0.92650  0.78950  Biso   1.000  N
  N11      1.0000 0.52620  0.42590  0.28940  Biso   1.000  N
  N12      1.0000 0.47380  0.57410  0.71060  Biso   1.000  N
