data_image0
_cell_length_a       7.5098
_cell_length_b       15.068
_cell_length_c       13.534
_cell_angle_alpha    90
_cell_angle_beta     97.26
_cell_angle_gamma    90

_symmetry_space_group_name_H-M    "P 1"
_symmetry_int_tables_number       1

loop_
  _symmetry_equiv_pos_as_xyz
  'x, y, z'

loop_
  _atom_site_label
  _atom_site_occupancy
  _atom_site_fract_x
  _atom_site_fract_y
  _atom_site_fract_z
  _atom_site_thermal_displace_type
  _atom_site_B_iso_or_equiv
  _atom_site_type_symbol
  Cu1      1.0000 0.02593  0.02161  0.86771  Biso   1.000  Cu
  Cu2      1.0000 0.97407  0.02161  0.63229  Biso   1.000  Cu
  Cu3      1.0000 0.52593  0.52161  0.86771  Biso   1.000  Cu
  Cu4      1.0000 0.47407  0.52161  0.63229  Biso   1.000  Cu
  Cu5      1.0000 0.97407  0.97839  0.13229  Biso   1.000  Cu
  Cu6      1.0000 0.02593  0.97839  0.36771  Biso   1.000  Cu
  Cu7      1.0000 0.47407  0.47839  0.13229  Biso   1.000  Cu
  Cu8      1.0000 0.52593  0.47839  0.36771  Biso   1.000  Cu
  Cl1      1.0000 0.23561  0.04341  0.75457  Biso   1.000  Cl
  Cl2      1.0000 0.76439  0.04341  0.74543  Biso   1.000  Cl
  Cl3      1.0000 0.73561  0.54341  0.75457  Biso   1.000  Cl
  Cl4      1.0000 0.26439  0.54341  0.74543  Biso   1.000  Cl
  Cl5      1.0000 0.76439  0.95659  0.24543  Biso   1.000  Cl
  Cl6      1.0000 0.23561  0.95659  0.25457  Biso   1.000  Cl
  Cl7      1.0000 0.26439  0.45659  0.24543  Biso   1.000  Cl
  Cl8      1.0000 0.73561  0.45659  0.25457  Biso   1.000  Cl
  C1       1.0000 0.00230  0.38130  0.96800  Biso   1.000  C
  C2       1.0000 0.99770  0.38130  0.53200  Biso   1.000  C
  C3       1.0000 0.50230  0.88130  0.96800  Biso   1.000  C
  C4       1.0000 0.49770  0.88130  0.53200  Biso   1.000  C
  C5       1.0000 0.99770  0.61870  0.03200  Biso   1.000  C
  C6       1.0000 0.00230  0.61870  0.46800  Biso   1.000  C
  C7       1.0000 0.49770  0.11870  0.03200  Biso   1.000  C
  C8       1.0000 0.50230  0.11870  0.46800  Biso   1.000  C
  H1       1.0000 0.99170  0.44280  0.96660  Biso   1.000  H
  H2       1.0000 0.00830  0.44280  0.53340  Biso   1.000  H
  H3       1.0000 0.49170  0.94280  0.96660  Biso   1.000  H
  H4       1.0000 0.50830  0.94280  0.53340  Biso   1.000  H
  H5       1.0000 0.00830  0.55720  0.03340  Biso   1.000  H
  H6       1.0000 0.99170  0.55720  0.46660  Biso   1.000  H
  H7       1.0000 0.50830  0.05720  0.03340  Biso   1.000  H
  H8       1.0000 0.49170  0.05720  0.46660  Biso   1.000  H
  C9       1.0000 0.96710  0.33780  0.05210  Biso   1.000  C
  C10      1.0000 0.03290  0.33780  0.44790  Biso   1.000  C
  C11      1.0000 0.46710  0.83780  0.05210  Biso   1.000  C
  C12      1.0000 0.53290  0.83780  0.44790  Biso   1.000  C
  C13      1.0000 0.03290  0.66220  0.94790  Biso   1.000  C
  C14      1.0000 0.96710  0.66220  0.55210  Biso   1.000  C
  C15      1.0000 0.53290  0.16220  0.94790  Biso   1.000  C
  C16      1.0000 0.46710  0.16220  0.55210  Biso   1.000  C
  H9       1.0000 0.93790  0.36710  0.10820  Biso   1.000  H
  H10      1.0000 0.06210  0.36710  0.39180  Biso   1.000  H
  H11      1.0000 0.43790  0.86710  0.10820  Biso   1.000  H
  H12      1.0000 0.56210  0.86710  0.39180  Biso   1.000  H
  H13      1.0000 0.06210  0.63290  0.89180  Biso   1.000  H
  H14      1.0000 0.93790  0.63290  0.60820  Biso   1.000  H
  H15      1.0000 0.56210  0.13290  0.89180  Biso   1.000  H
  H16      1.0000 0.43790  0.13290  0.60820  Biso   1.000  H
  C17      1.0000 0.05270  0.33920  0.88460  Biso   1.000  C
  C18      1.0000 0.94730  0.33920  0.61540  Biso   1.000  C
  C19      1.0000 0.55270  0.83920  0.88460  Biso   1.000  C
  C20      1.0000 0.44730  0.83920  0.61540  Biso   1.000  C
  C21      1.0000 0.94730  0.66080  0.11540  Biso   1.000  C
  C22      1.0000 0.05270  0.66080  0.38460  Biso   1.000  C
  C23      1.0000 0.44730  0.16080  0.11540  Biso   1.000  C
  C24      1.0000 0.55270  0.16080  0.38460  Biso   1.000  C
  H17      1.0000 0.07850  0.37340  0.83100  Biso   1.000  H
  H18      1.0000 0.92150  0.37340  0.66900  Biso   1.000  H
  H19      1.0000 0.57850  0.87340  0.83100  Biso   1.000  H
  H20      1.0000 0.42150  0.87340  0.66900  Biso   1.000  H
  H21      1.0000 0.92150  0.62660  0.16900  Biso   1.000  H
  H22      1.0000 0.07850  0.62660  0.33100  Biso   1.000  H
  H23      1.0000 0.42150  0.12660  0.16900  Biso   1.000  H
  H24      1.0000 0.57850  0.12660  0.33100  Biso   1.000  H
  C25      1.0000 0.06530  0.24990  0.87910  Biso   1.000  C
  C26      1.0000 0.93470  0.24990  0.62090  Biso   1.000  C
  C27      1.0000 0.56530  0.74990  0.87910  Biso   1.000  C
  C28      1.0000 0.43470  0.74990  0.62090  Biso   1.000  C
  C29      1.0000 0.93470  0.75010  0.12090  Biso   1.000  C
  C30      1.0000 0.06530  0.75010  0.37910  Biso   1.000  C
  C31      1.0000 0.43470  0.25010  0.12090  Biso   1.000  C
  C32      1.0000 0.56530  0.25010  0.37910  Biso   1.000  C
  H25      1.0000 0.09920  0.22150  0.82340  Biso   1.000  H
  H26      1.0000 0.90080  0.22150  0.67660  Biso   1.000  H
  H27      1.0000 0.59920  0.72150  0.82340  Biso   1.000  H
  H28      1.0000 0.40080  0.72150  0.67660  Biso   1.000  H
  H29      1.0000 0.90080  0.77850  0.17660  Biso   1.000  H
  H30      1.0000 0.09920  0.77850  0.32340  Biso   1.000  H
  H31      1.0000 0.40080  0.27850  0.17660  Biso   1.000  H
  H32      1.0000 0.59920  0.27850  0.32340  Biso   1.000  H
  C33      1.0000 0.91450  0.18400  0.21380  Biso   1.000  C
  C34      1.0000 0.08550  0.18400  0.28620  Biso   1.000  C
  C35      1.0000 0.41450  0.68400  0.21380  Biso   1.000  C
  C36      1.0000 0.58550  0.68400  0.28620  Biso   1.000  C
  C37      1.0000 0.08550  0.81600  0.78620  Biso   1.000  C
  C38      1.0000 0.91450  0.81600  0.71380  Biso   1.000  C
  C39      1.0000 0.58550  0.31600  0.78620  Biso   1.000  C
  C40      1.0000 0.41450  0.31600  0.71380  Biso   1.000  C
  H33      1.0000 0.84730  0.23780  0.22250  Biso   1.000  H
  H34      1.0000 0.15270  0.23780  0.27750  Biso   1.000  H
  H35      1.0000 0.34730  0.73780  0.22250  Biso   1.000  H
  H36      1.0000 0.65270  0.73780  0.27750  Biso   1.000  H
  H37      1.0000 0.15270  0.76220  0.77750  Biso   1.000  H
  H38      1.0000 0.84730  0.76220  0.72250  Biso   1.000  H
  H39      1.0000 0.65270  0.26220  0.77750  Biso   1.000  H
  H40      1.0000 0.34730  0.26220  0.72250  Biso   1.000  H
  H41      1.0000 0.84080  0.13380  0.22760  Biso   1.000  H
  H42      1.0000 0.15920  0.13380  0.27240  Biso   1.000  H
  H43      1.0000 0.34080  0.63380  0.22760  Biso   1.000  H
  H44      1.0000 0.65920  0.63380  0.27240  Biso   1.000  H
  H45      1.0000 0.15920  0.86620  0.77240  Biso   1.000  H
  H46      1.0000 0.84080  0.86620  0.72760  Biso   1.000  H
  H47      1.0000 0.65920  0.36620  0.77240  Biso   1.000  H
  H48      1.0000 0.34080  0.36620  0.72760  Biso   1.000  H
  C41      1.0000 0.97890  0.24570  0.04640  Biso   1.000  C
  C42      1.0000 0.02110  0.24570  0.45360  Biso   1.000  C
  C43      1.0000 0.47890  0.74570  0.04640  Biso   1.000  C
  C44      1.0000 0.52110  0.74570  0.45360  Biso   1.000  C
  C45      1.0000 0.02110  0.75430  0.95360  Biso   1.000  C
  C46      1.0000 0.97890  0.75430  0.54640  Biso   1.000  C
  C47      1.0000 0.52110  0.25430  0.95360  Biso   1.000  C
  C48      1.0000 0.47890  0.25430  0.54640  Biso   1.000  C
  C49      1.0000 0.02410  0.20250  0.96290  Biso   1.000  C
  C50      1.0000 0.97590  0.20250  0.53710  Biso   1.000  C
  C51      1.0000 0.52410  0.70250  0.96290  Biso   1.000  C
  C52      1.0000 0.47590  0.70250  0.53710  Biso   1.000  C
  C53      1.0000 0.97590  0.79750  0.03710  Biso   1.000  C
  C54      1.0000 0.02410  0.79750  0.46290  Biso   1.000  C
  C55      1.0000 0.47590  0.29750  0.03710  Biso   1.000  C
  C56      1.0000 0.52410  0.29750  0.46290  Biso   1.000  C
  N1       1.0000 0.02120  0.11320  0.97810  Biso   1.000  N
  N2       1.0000 0.97880  0.11320  0.52190  Biso   1.000  N
  N3       1.0000 0.52120  0.61320  0.97810  Biso   1.000  N
  N4       1.0000 0.47880  0.61320  0.52190  Biso   1.000  N
  N5       1.0000 0.97880  0.88680  0.02190  Biso   1.000  N
  N6       1.0000 0.02120  0.88680  0.47810  Biso   1.000  N
  N7       1.0000 0.47880  0.38680  0.02190  Biso   1.000  N
  N8       1.0000 0.52120  0.38680  0.47810  Biso   1.000  N
  N9       1.0000 0.95450  0.17880  0.11120  Biso   1.000  N
  N10      1.0000 0.04550  0.17880  0.38880  Biso   1.000  N
  N11      1.0000 0.45450  0.67880  0.11120  Biso   1.000  N
  N12      1.0000 0.54550  0.67880  0.38880  Biso   1.000  N
  N13      1.0000 0.04550  0.82120  0.88880  Biso   1.000  N
  N14      1.0000 0.95450  0.82120  0.61120  Biso   1.000  N
  N15      1.0000 0.54550  0.32120  0.88880  Biso   1.000  N
  N16      1.0000 0.45450  0.32120  0.61120  Biso   1.000  N
  N17      1.0000 0.98020  0.09950  0.06890  Biso   1.000  N
  N18      1.0000 0.01980  0.09950  0.43110  Biso   1.000  N
  N19      1.0000 0.48020  0.59950  0.06890  Biso   1.000  N
  N20      1.0000 0.51980  0.59950  0.43110  Biso   1.000  N
  N21      1.0000 0.01980  0.90050  0.93110  Biso   1.000  N
  N22      1.0000 0.98020  0.90050  0.56890  Biso   1.000  N
  N23      1.0000 0.51980  0.40050  0.93110  Biso   1.000  N
  N24      1.0000 0.48020  0.40050  0.56890  Biso   1.000  N
