data_image0
_cell_length_a       8.474
_cell_length_b       10.734
_cell_length_c       11.27
_cell_angle_alpha    80.852
_cell_angle_beta     85.449
_cell_angle_gamma    69.096

_symmetry_space_group_name_H-M    "P 1"
_symmetry_int_tables_number       1

loop_
  _symmetry_equiv_pos_as_xyz
  'x, y, z'

loop_
  _atom_site_label
  _atom_site_occupancy
  _atom_site_fract_x
  _atom_site_fract_y
  _atom_site_fract_z
  _atom_site_thermal_displace_type
  _atom_site_B_iso_or_equiv
  _atom_site_type_symbol
  Cu1      1.0000 0.66785  0.51502  0.21289  Biso   1.000  Cu
  Cu2      1.0000 0.33215  0.48498  0.78711  Biso   1.000  Cu
  Cu3      1.0000 0.48359  0.64479  0.45312  Biso   1.000  Cu
  Cu4      1.0000 0.51641  0.35521  0.54688  Biso   1.000  Cu
  Cu5      1.0000 0.35489  0.57053  0.09368  Biso   1.000  Cu
  Cu6      1.0000 0.64511  0.42947  0.90632  Biso   1.000  Cu
  Br1      1.0000 0.38205  0.71860  0.24022  Biso   1.000  Br
  Br2      1.0000 0.61795  0.28140  0.75978  Biso   1.000  Br
  Br3      1.0000 0.73405  0.43855  0.42921  Biso   1.000  Br
  Br4      1.0000 0.26595  0.56145  0.57079  Biso   1.000  Br
  Br5      1.0000 0.57665  0.35265  0.13058  Biso   1.000  Br
  Br6      1.0000 0.42335  0.64735  0.86942  Biso   1.000  Br
  N1       1.0000 0.85180  0.58110  0.13160  Biso   1.000  N
  N2       1.0000 0.14820  0.41890  0.86840  Biso   1.000  N
  N3       1.0000 0.01860  0.52840  0.14770  Biso   1.000  N
  N4       1.0000 0.98140  0.47160  0.85230  Biso   1.000  N
  N5       1.0000 0.10540  0.60370  0.09280  Biso   1.000  N
  N6       1.0000 0.89460  0.39630  0.90720  Biso   1.000  N
  N7       1.0000 0.50220  0.21890  0.44890  Biso   1.000  N
  N8       1.0000 0.49780  0.78110  0.55110  Biso   1.000  N
  N9       1.0000 0.36430  0.20450  0.41300  Biso   1.000  N
  N10      1.0000 0.63570  0.79550  0.58700  Biso   1.000  N
  N11      1.0000 0.38780  0.10530  0.35120  Biso   1.000  N
  N12      1.0000 0.61220  0.89470  0.64880  Biso   1.000  N
  C1       1.0000 0.98730  0.71370  0.03560  Biso   1.000  C
  C2       1.0000 0.01270  0.28630  0.96440  Biso   1.000  C
  C3       1.0000 0.82920  0.69920  0.05920  Biso   1.000  C
  C4       1.0000 0.17080  0.30080  0.94080  Biso   1.000  C
  C5       1.0000 0.68100  0.79800  0.01010  Biso   1.000  C
  C6       1.0000 0.31900  0.20200  0.98990  Biso   1.000  C
  H1       1.0000 0.57550  0.78980  0.02540  Biso   1.000  H
  H2       1.0000 0.42450  0.21020  0.97460  Biso   1.000  H
  C7       1.0000 0.70150  0.90590  0.93930  Biso   1.000  C
  C8       1.0000 0.29850  0.09410  0.06070  Biso   1.000  C
  H3       1.0000 0.60700  0.97230  0.90340  Biso   1.000  H
  H4       1.0000 0.39300  0.02770  0.09660  Biso   1.000  H
  C9       1.0000 0.85980  0.92200  0.91750  Biso   1.000  C
  C10      1.0000 0.14020  0.07800  0.08250  Biso   1.000  C
  H5       1.0000 0.86550  0.99960  0.87000  Biso   1.000  H
  H6       1.0000 0.13450  0.00040  0.13000  Biso   1.000  H
  C11      1.0000 0.00340  0.82830  0.96360  Biso   1.000  C
  C12      1.0000 0.99660  0.17170  0.03640  Biso   1.000  C
  H7       1.0000 0.10760  0.83900  0.94840  Biso   1.000  H
  H8       1.0000 0.89240  0.16100  0.05160  Biso   1.000  H
  C13      1.0000 0.55730  0.04950  0.34390  Biso   1.000  C
  C14      1.0000 0.44270  0.95050  0.65610  Biso   1.000  C
  C15      1.0000 0.62980  0.11910  0.40390  Biso   1.000  C
  C16      1.0000 0.37020  0.88090  0.59610  Biso   1.000  C
  C17      1.0000 0.80560  0.08490  0.40760  Biso   1.000  C
  C18      1.0000 0.19440  0.91510  0.59240  Biso   1.000  C
  H9       1.0000 0.85360  0.13230  0.44660  Biso   1.000  H
  H10      1.0000 0.14640  0.86770  0.55340  Biso   1.000  H
  C19      1.0000 0.90220  0.97870  0.35140  Biso   1.000  C
  C20      1.0000 0.09780  0.02130  0.64860  Biso   1.000  C
  H11      1.0000 0.01920  0.95350  0.35150  Biso   1.000  H
  H12      1.0000 0.98080  0.04650  0.64850  Biso   1.000  H
  C21      1.0000 0.83050  0.90660  0.29350  Biso   1.000  C
  C22      1.0000 0.16950  0.09340  0.70650  Biso   1.000  C
  H13      1.0000 0.90180  0.83390  0.25750  Biso   1.000  H
  H14      1.0000 0.09820  0.16610  0.74250  Biso   1.000  H
  C23      1.0000 0.66150  0.93830  0.28780  Biso   1.000  C
  C24      1.0000 0.33850  0.06170  0.71220  Biso   1.000  C
  H15      1.0000 0.61600  0.88930  0.24880  Biso   1.000  H
  H16      1.0000 0.38400  0.11070  0.75120  Biso   1.000  H
  C25      1.0000 0.09950  0.40160  0.22480  Biso   1.000  C
  C26      1.0000 0.90050  0.59840  0.77520  Biso   1.000  C
  H17      1.0000 0.20020  0.34780  0.18420  Biso   1.000  H
  H18      1.0000 0.79980  0.65220  0.81580  Biso   1.000  H
  H19      1.0000 0.02300  0.35150  0.23970  Biso   1.000  H
  H20      1.0000 0.97700  0.64850  0.76030  Biso   1.000  H
  C27      1.0000 0.14730  0.42580  0.34370  Biso   1.000  C
  C28      1.0000 0.85270  0.57420  0.65630  Biso   1.000  C
  H21      1.0000 0.05270  0.49560  0.37510  Biso   1.000  H
  H22      1.0000 0.94730  0.50440  0.62490  Biso   1.000  H
  H23      1.0000 0.24160  0.45800  0.33010  Biso   1.000  H
  H24      1.0000 0.75840  0.54200  0.66990  Biso   1.000  H
  C29      1.0000 0.19580  0.30020  0.43630  Biso   1.000  C
  C30      1.0000 0.80420  0.69980  0.56370  Biso   1.000  C
  H25      1.0000 0.19240  0.32600  0.51540  Biso   1.000  H
  H26      1.0000 0.80760  0.67400  0.48460  Biso   1.000  H
  H27      1.0000 0.11350  0.25640  0.43660  Biso   1.000  H
  H28      1.0000 0.88650  0.74360  0.56340  Biso   1.000  H
