data_image0
_cell_length_a       7.2894
_cell_length_b       16.269
_cell_length_c       15.829
_cell_angle_alpha    90
_cell_angle_beta     99.52
_cell_angle_gamma    90

_symmetry_space_group_name_H-M    "P 1"
_symmetry_int_tables_number       1

loop_
  _symmetry_equiv_pos_as_xyz
  'x, y, z'

loop_
  _atom_site_label
  _atom_site_occupancy
  _atom_site_fract_x
  _atom_site_fract_y
  _atom_site_fract_z
  _atom_site_thermal_displace_type
  _atom_site_B_iso_or_equiv
  _atom_site_type_symbol
  Cu1      1.0000 0.23888  0.86015  0.27489  Biso   1.000  Cu
  Cu2      1.0000 0.26112  0.36015  0.22511  Biso   1.000  Cu
  Cu3      1.0000 0.76112  0.13985  0.72511  Biso   1.000  Cu
  Cu4      1.0000 0.73888  0.63985  0.77489  Biso   1.000  Cu
  Cu5      1.0000 0.83406  0.91211  0.30102  Biso   1.000  Cu
  Cu6      1.0000 0.66594  0.41211  0.19898  Biso   1.000  Cu
  Cu7      1.0000 0.16594  0.08789  0.69898  Biso   1.000  Cu
  Cu8      1.0000 0.33406  0.58789  0.80102  Biso   1.000  Cu
  Cu9      1.0000 0.21570  0.01188  0.50216  Biso   1.000  Cu
  Cu10     1.0000 0.28430  0.51188  0.99784  Biso   1.000  Cu
  Cu11     1.0000 0.78430  0.98812  0.49784  Biso   1.000  Cu
  Cu12     1.0000 0.71570  0.48812  0.00216  Biso   1.000  Cu
  Cu13     1.0000 0.47994  0.00916  0.28750  Biso   1.000  Cu
  Cu14     1.0000 0.02006  0.50916  0.21250  Biso   1.000  Cu
  Cu15     1.0000 0.52006  0.99084  0.71250  Biso   1.000  Cu
  Cu16     1.0000 0.97994  0.49084  0.78750  Biso   1.000  Cu
  Cl1      1.0000 0.99451  0.92633  0.19564  Biso   1.000  Cl
  Cl2      1.0000 0.50549  0.42633  0.30436  Biso   1.000  Cl
  Cl3      1.0000 0.00549  0.07367  0.80436  Biso   1.000  Cl
  Cl4      1.0000 0.49451  0.57367  0.69564  Biso   1.000  Cl
  Cl5      1.0000 0.34600  0.94939  0.40291  Biso   1.000  Cl
  Cl6      1.0000 0.15400  0.44939  0.09709  Biso   1.000  Cl
  Cl7      1.0000 0.65400  0.05061  0.59709  Biso   1.000  Cl
  Cl8      1.0000 0.84600  0.55061  0.90291  Biso   1.000  Cl
  Cl9      1.0000 0.50182  0.88912  0.21010  Biso   1.000  Cl
  Cl10     1.0000 0.99818  0.38912  0.28990  Biso   1.000  Cl
  Cl11     1.0000 0.49818  0.11088  0.78990  Biso   1.000  Cl
  Cl12     1.0000 0.00182  0.61088  0.71010  Biso   1.000  Cl
  Cl13     1.0000 0.79600  0.05343  0.37092  Biso   1.000  Cl
  Cl14     1.0000 0.70400  0.55343  0.12908  Biso   1.000  Cl
  Cl15     1.0000 0.20400  0.94657  0.62908  Biso   1.000  Cl
  Cl16     1.0000 0.29600  0.44657  0.87092  Biso   1.000  Cl
  N1       1.0000 0.31500  0.63260  0.97700  Biso   1.000  N
  N2       1.0000 0.18500  0.13260  0.52300  Biso   1.000  N
  N3       1.0000 0.68500  0.36740  0.02300  Biso   1.000  N
  N4       1.0000 0.81500  0.86740  0.47700  Biso   1.000  N
  N5       1.0000 0.29380  0.65770  0.89680  Biso   1.000  N
  N6       1.0000 0.20620  0.15770  0.60320  Biso   1.000  N
  N7       1.0000 0.70620  0.34230  0.10320  Biso   1.000  N
  N8       1.0000 0.79380  0.84230  0.39680  Biso   1.000  N
  N9       1.0000 0.18780  0.74330  0.29960  Biso   1.000  N
  N10      1.0000 0.31220  0.24330  0.20040  Biso   1.000  N
  N11      1.0000 0.81220  0.25670  0.70040  Biso   1.000  N
  N12      1.0000 0.68780  0.75670  0.79960  Biso   1.000  N
  N13      1.0000 0.12180  0.60900  0.27630  Biso   1.000  N
  N14      1.0000 0.37820  0.10900  0.22370  Biso   1.000  N
  N15      1.0000 0.87820  0.39100  0.72370  Biso   1.000  N
  N16      1.0000 0.62180  0.89100  0.77630  Biso   1.000  N
  N17      1.0000 0.14360  0.68270  0.24360  Biso   1.000  N
  N18      1.0000 0.35640  0.18270  0.25640  Biso   1.000  N
  N19      1.0000 0.85640  0.31730  0.75640  Biso   1.000  N
  N20      1.0000 0.64360  0.81730  0.74360  Biso   1.000  N
  N21      1.0000 0.27850  0.69590  0.02670  Biso   1.000  N
  N22      1.0000 0.22150  0.19590  0.47330  Biso   1.000  N
  N23      1.0000 0.72150  0.30410  0.97330  Biso   1.000  N
  N24      1.0000 0.77850  0.80410  0.52670  Biso   1.000  N
  C1       1.0000 0.30390  0.68650  0.12010  Biso   1.000  C
  C2       1.0000 0.19610  0.18650  0.37990  Biso   1.000  C
  C3       1.0000 0.69610  0.31350  0.87990  Biso   1.000  C
  C4       1.0000 0.80390  0.81350  0.62010  Biso   1.000  C
  H1       1.0000 0.35580  0.63280  0.13610  Biso   1.000  H
  H2       1.0000 0.14420  0.13280  0.36390  Biso   1.000  H
  H3       1.0000 0.64420  0.36720  0.86390  Biso   1.000  H
  H4       1.0000 0.85580  0.86720  0.63610  Biso   1.000  H
  H5       1.0000 0.39020  0.72780  0.14710  Biso   1.000  H
  H6       1.0000 0.10980  0.22780  0.35290  Biso   1.000  H
  H7       1.0000 0.60980  0.27220  0.85290  Biso   1.000  H
  H8       1.0000 0.89020  0.77220  0.64710  Biso   1.000  H
  C5       1.0000 0.23140  0.76360  0.97770  Biso   1.000  C
  C6       1.0000 0.26860  0.26360  0.52230  Biso   1.000  C
  C7       1.0000 0.76860  0.23640  0.02230  Biso   1.000  C
  C8       1.0000 0.73140  0.73640  0.47770  Biso   1.000  C
  C9       1.0000 0.15290  0.62250  0.36240  Biso   1.000  C
  C10      1.0000 0.34710  0.12250  0.13760  Biso   1.000  C
  C11      1.0000 0.84710  0.37750  0.63760  Biso   1.000  C
  C12      1.0000 0.65290  0.87750  0.86240  Biso   1.000  C
  C13      1.0000 0.13650  0.89500  0.92790  Biso   1.000  C
  C14      1.0000 0.36350  0.39500  0.57210  Biso   1.000  C
  C15      1.0000 0.86350  0.10500  0.07210  Biso   1.000  C
  C16      1.0000 0.63650  0.60500  0.42790  Biso   1.000  C
  H9       1.0000 0.09930  0.94840  0.93730  Biso   1.000  H
  H10      1.0000 0.40070  0.44840  0.56270  Biso   1.000  H
  H11      1.0000 0.90070  0.05160  0.06270  Biso   1.000  H
  H12      1.0000 0.59930  0.55160  0.43730  Biso   1.000  H
  C17      1.0000 0.14640  0.87030  0.84290  Biso   1.000  C
  C18      1.0000 0.35360  0.37030  0.65710  Biso   1.000  C
  C19      1.0000 0.85360  0.12970  0.15710  Biso   1.000  C
  C20      1.0000 0.64640  0.62970  0.34290  Biso   1.000  C
  H13      1.0000 0.11650  0.90780  0.79850  Biso   1.000  H
  H14      1.0000 0.38350  0.40780  0.70150  Biso   1.000  H
  H15      1.0000 0.88350  0.09220  0.20150  Biso   1.000  H
  H16      1.0000 0.61650  0.59220  0.29850  Biso   1.000  H
  C21      1.0000 0.14530  0.56800  0.43100  Biso   1.000  C
  C22      1.0000 0.35470  0.06800  0.06900  Biso   1.000  C
  C23      1.0000 0.85470  0.43200  0.56900  Biso   1.000  C
  C24      1.0000 0.64530  0.93200  0.93100  Biso   1.000  C
  H17      1.0000 0.12360  0.51200  0.42240  Biso   1.000  H
  H18      1.0000 0.37640  0.01200  0.07760  Biso   1.000  H
  H19      1.0000 0.87640  0.48800  0.57760  Biso   1.000  H
  H20      1.0000 0.62360  0.98800  0.92240  Biso   1.000  H
  C25      1.0000 0.17930  0.84370  0.99660  Biso   1.000  C
  C26      1.0000 0.32070  0.34370  0.50340  Biso   1.000  C
  C27      1.0000 0.82070  0.15630  0.00340  Biso   1.000  C
  C28      1.0000 0.67930  0.65630  0.49660  Biso   1.000  C
  H21      1.0000 0.17670  0.86110  0.05230  Biso   1.000  H
  H22      1.0000 0.32330  0.36110  0.44770  Biso   1.000  H
  H23      1.0000 0.82330  0.13890  0.94770  Biso   1.000  H
  H24      1.0000 0.67670  0.63890  0.55230  Biso   1.000  H
  C29      1.0000 0.20960  0.68670  0.52480  Biso   1.000  C
  C30      1.0000 0.29040  0.18670  0.97520  Biso   1.000  C
  C31      1.0000 0.79040  0.31330  0.47520  Biso   1.000  C
  C32      1.0000 0.70960  0.81330  0.02480  Biso   1.000  C
  H25      1.0000 0.22730  0.70660  0.58060  Biso   1.000  H
  H26      1.0000 0.27270  0.20660  0.91940  Biso   1.000  H
  H27      1.0000 0.77270  0.29340  0.41940  Biso   1.000  H
  H28      1.0000 0.72730  0.79340  0.08060  Biso   1.000  H
  C33      1.0000 0.22100  0.73980  0.45990  Biso   1.000  C
  C34      1.0000 0.27900  0.23980  0.04010  Biso   1.000  C
  C35      1.0000 0.77900  0.26020  0.54010  Biso   1.000  C
  C36      1.0000 0.72100  0.76020  0.95990  Biso   1.000  C
  H29      1.0000 0.24580  0.79540  0.46970  Biso   1.000  H
  H30      1.0000 0.25420  0.29540  0.03030  Biso   1.000  H
  H31      1.0000 0.75420  0.20460  0.53030  Biso   1.000  H
  H32      1.0000 0.74580  0.70460  0.96970  Biso   1.000  H
  C37      1.0000 0.17170  0.60220  0.51070  Biso   1.000  C
  C38      1.0000 0.32830  0.10220  0.98930  Biso   1.000  C
  C39      1.0000 0.82830  0.39780  0.48930  Biso   1.000  C
  C40      1.0000 0.67170  0.89780  0.01070  Biso   1.000  C
  H33      1.0000 0.16450  0.56860  0.55760  Biso   1.000  H
  H34      1.0000 0.33550  0.06860  0.94240  Biso   1.000  H
  H35      1.0000 0.83550  0.43140  0.44240  Biso   1.000  H
  H36      1.0000 0.66450  0.93140  0.05760  Biso   1.000  H
  C41      1.0000 0.19870  0.79260  0.82500  Biso   1.000  C
  C42      1.0000 0.30130  0.29260  0.67500  Biso   1.000  C
  C43      1.0000 0.80130  0.20740  0.17500  Biso   1.000  C
  C44      1.0000 0.69870  0.70740  0.32500  Biso   1.000  C
  H37      1.0000 0.20660  0.77630  0.76940  Biso   1.000  H
  H38      1.0000 0.29340  0.27630  0.73060  Biso   1.000  H
  H39      1.0000 0.79340  0.22370  0.23060  Biso   1.000  H
  H40      1.0000 0.70660  0.72370  0.26940  Biso   1.000  H
  C45      1.0000 0.11860  0.69590  0.15070  Biso   1.000  C
  C46      1.0000 0.38140  0.19590  0.34930  Biso   1.000  C
  C47      1.0000 0.88140  0.30410  0.84930  Biso   1.000  C
  C48      1.0000 0.61860  0.80410  0.65070  Biso   1.000  C
  H41      1.0000 0.06990  0.75010  0.13730  Biso   1.000  H
  H42      1.0000 0.43010  0.25010  0.36270  Biso   1.000  H
  H43      1.0000 0.93010  0.24990  0.86270  Biso   1.000  H
  H44      1.0000 0.56990  0.74990  0.63730  Biso   1.000  H
  H45      1.0000 0.03160  0.65670  0.12200  Biso   1.000  H
  H46      1.0000 0.46840  0.15670  0.37800  Biso   1.000  H
  H47      1.0000 0.96840  0.34330  0.87800  Biso   1.000  H
  H48      1.0000 0.53160  0.84330  0.62200  Biso   1.000  H
  C49      1.0000 0.19310  0.70600  0.37650  Biso   1.000  C
  C50      1.0000 0.30690  0.20600  0.12350  Biso   1.000  C
  C51      1.0000 0.80690  0.29400  0.62350  Biso   1.000  C
  C52      1.0000 0.69310  0.79400  0.87650  Biso   1.000  C
  C53      1.0000 0.24030  0.73860  0.89450  Biso   1.000  C
  C54      1.0000 0.25970  0.23860  0.60550  Biso   1.000  C
  C55      1.0000 0.75970  0.26140  0.10550  Biso   1.000  C
  C56      1.0000 0.74030  0.76140  0.39450  Biso   1.000  C
