data_image0
_cell_length_a       13.49
_cell_length_b       13.49
_cell_length_c       10.684
_cell_angle_alpha    90
_cell_angle_beta     90
_cell_angle_gamma    90

_symmetry_space_group_name_H-M    "P 1"
_symmetry_int_tables_number       1

loop_
  _symmetry_equiv_pos_as_xyz
  'x, y, z'

loop_
  _atom_site_label
  _atom_site_occupancy
  _atom_site_fract_x
  _atom_site_fract_y
  _atom_site_fract_z
  _atom_site_thermal_displace_type
  _atom_site_B_iso_or_equiv
  _atom_site_type_symbol
  Cu1      1.0000 0.34260  0.29938  0.16054  Biso   1.000  Cu
  Cu2      1.0000 0.15740  0.20062  0.16054  Biso   1.000  Cu
  Cu3      1.0000 0.70062  0.84260  0.66054  Biso   1.000  Cu
  Cu4      1.0000 0.79938  0.65740  0.66054  Biso   1.000  Cu
  Cu5      1.0000 0.65740  0.70062  0.83946  Biso   1.000  Cu
  Cu6      1.0000 0.84260  0.79938  0.83946  Biso   1.000  Cu
  Cu7      1.0000 0.29938  0.15740  0.33946  Biso   1.000  Cu
  Cu8      1.0000 0.20062  0.34260  0.33946  Biso   1.000  Cu
  Br1      1.0000 0.31769  0.11483  0.11174  Biso   1.000  Br
  Br2      1.0000 0.18231  0.38517  0.11174  Biso   1.000  Br
  Br3      1.0000 0.88517  0.81769  0.61174  Biso   1.000  Br
  Br4      1.0000 0.61483  0.68231  0.61174  Biso   1.000  Br
  Br5      1.0000 0.68231  0.88517  0.88826  Biso   1.000  Br
  Br6      1.0000 0.81769  0.61483  0.88826  Biso   1.000  Br
  Br7      1.0000 0.11483  0.18231  0.38826  Biso   1.000  Br
  Br8      1.0000 0.38517  0.31769  0.38826  Biso   1.000  Br
  N1       1.0000 0.60500  0.37900  0.00330  Biso   1.000  N
  N2       1.0000 0.89500  0.12100  0.00330  Biso   1.000  N
  N3       1.0000 0.62100  0.10500  0.50330  Biso   1.000  N
  N4       1.0000 0.87900  0.39500  0.50330  Biso   1.000  N
  N5       1.0000 0.39500  0.62100  0.99670  Biso   1.000  N
  N6       1.0000 0.10500  0.87900  0.99670  Biso   1.000  N
  N7       1.0000 0.37900  0.89500  0.49670  Biso   1.000  N
  N8       1.0000 0.12100  0.60500  0.49670  Biso   1.000  N
  N9       1.0000 0.54630  0.34730  0.09600  Biso   1.000  N
  N10      1.0000 0.95370  0.15270  0.09600  Biso   1.000  N
  N11      1.0000 0.65270  0.04630  0.59600  Biso   1.000  N
  N12      1.0000 0.84730  0.45370  0.59600  Biso   1.000  N
  N13      1.0000 0.45370  0.65270  0.90400  Biso   1.000  N
  N14      1.0000 0.04630  0.84730  0.90400  Biso   1.000  N
  N15      1.0000 0.34730  0.95370  0.40400  Biso   1.000  N
  N16      1.0000 0.15270  0.54630  0.40400  Biso   1.000  N
  N17      1.0000 0.45600  0.34340  0.05240  Biso   1.000  N
  N18      1.0000 0.04400  0.15660  0.05240  Biso   1.000  N
  N19      1.0000 0.65660  0.95600  0.55240  Biso   1.000  N
  N20      1.0000 0.84340  0.54400  0.55240  Biso   1.000  N
  N21      1.0000 0.54400  0.65660  0.94760  Biso   1.000  N
  N22      1.0000 0.95600  0.84340  0.94760  Biso   1.000  N
  N23      1.0000 0.34340  0.04400  0.44760  Biso   1.000  N
  N24      1.0000 0.15660  0.45600  0.44760  Biso   1.000  N
  C1       1.0000 0.45480  0.37210  0.92940  Biso   1.000  C
  C2       1.0000 0.04520  0.12790  0.92940  Biso   1.000  C
  C3       1.0000 0.62790  0.95480  0.42940  Biso   1.000  C
  C4       1.0000 0.87210  0.54520  0.42940  Biso   1.000  C
  C5       1.0000 0.54520  0.62790  0.07060  Biso   1.000  C
  C6       1.0000 0.95480  0.87210  0.07060  Biso   1.000  C
  C7       1.0000 0.37210  0.04520  0.57060  Biso   1.000  C
  C8       1.0000 0.12790  0.45480  0.57060  Biso   1.000  C
  C9       1.0000 0.55210  0.39580  0.89740  Biso   1.000  C
  C10      1.0000 0.94790  0.10420  0.89740  Biso   1.000  C
  C11      1.0000 0.60420  0.05210  0.39740  Biso   1.000  C
  C12      1.0000 0.89580  0.44790  0.39740  Biso   1.000  C
  C13      1.0000 0.44790  0.60420  0.10260  Biso   1.000  C
  C14      1.0000 0.05210  0.89580  0.10260  Biso   1.000  C
  C15      1.0000 0.39580  0.94790  0.60260  Biso   1.000  C
  C16      1.0000 0.10420  0.55210  0.60260  Biso   1.000  C
  C17      1.0000 0.57630  0.42880  0.77670  Biso   1.000  C
  C18      1.0000 0.92370  0.07120  0.77670  Biso   1.000  C
  C19      1.0000 0.57120  0.07630  0.27670  Biso   1.000  C
  C20      1.0000 0.92880  0.42370  0.27670  Biso   1.000  C
  C21      1.0000 0.42370  0.57120  0.22330  Biso   1.000  C
  C22      1.0000 0.07630  0.92880  0.22330  Biso   1.000  C
  C23      1.0000 0.42880  0.92370  0.72330  Biso   1.000  C
  C24      1.0000 0.07120  0.57630  0.72330  Biso   1.000  C
  H1       1.0000 0.64080  0.44560  0.75440  Biso   1.000  H
  H2       1.0000 0.85920  0.05440  0.75440  Biso   1.000  H
  H3       1.0000 0.55440  0.14080  0.25440  Biso   1.000  H
  H4       1.0000 0.94560  0.35920  0.25440  Biso   1.000  H
  H5       1.0000 0.35920  0.55440  0.24560  Biso   1.000  H
  H6       1.0000 0.14080  0.94560  0.24560  Biso   1.000  H
  H7       1.0000 0.44560  0.85920  0.74560  Biso   1.000  H
  H8       1.0000 0.05440  0.64080  0.74560  Biso   1.000  H
  C25      1.0000 0.49990  0.43480  0.69460  Biso   1.000  C
  C26      1.0000 0.00010  0.06520  0.69460  Biso   1.000  C
  C27      1.0000 0.56520  0.99990  0.19460  Biso   1.000  C
  C28      1.0000 0.93480  0.50010  0.19460  Biso   1.000  C
  C29      1.0000 0.50010  0.56520  0.30540  Biso   1.000  C
  C30      1.0000 0.99990  0.93480  0.30540  Biso   1.000  C
  C31      1.0000 0.43480  0.00010  0.80540  Biso   1.000  C
  C32      1.0000 0.06520  0.49990  0.80540  Biso   1.000  C
  H9       1.0000 0.51300  0.45640  0.61360  Biso   1.000  H
  H10      1.0000 0.98700  0.04360  0.61360  Biso   1.000  H
  H11      1.0000 0.54360  0.01300  0.11360  Biso   1.000  H
  H12      1.0000 0.95640  0.48700  0.11360  Biso   1.000  H
  H13      1.0000 0.48700  0.54360  0.38640  Biso   1.000  H
  H14      1.0000 0.01300  0.95640  0.38640  Biso   1.000  H
  H15      1.0000 0.45640  0.98700  0.88640  Biso   1.000  H
  H16      1.0000 0.04360  0.51300  0.88640  Biso   1.000  H
  C33      1.0000 0.40240  0.41000  0.72640  Biso   1.000  C
  C34      1.0000 0.09760  0.09000  0.72640  Biso   1.000  C
  C35      1.0000 0.59000  0.90240  0.22640  Biso   1.000  C
  C36      1.0000 0.91000  0.59760  0.22640  Biso   1.000  C
  C37      1.0000 0.59760  0.59000  0.27360  Biso   1.000  C
  C38      1.0000 0.90240  0.91000  0.27360  Biso   1.000  C
  C39      1.0000 0.41000  0.09760  0.77360  Biso   1.000  C
  C40      1.0000 0.09000  0.40240  0.77360  Biso   1.000  C
  H17      1.0000 0.35320  0.41460  0.66570  Biso   1.000  H
  H18      1.0000 0.14680  0.08540  0.66570  Biso   1.000  H
  H19      1.0000 0.58540  0.85320  0.16570  Biso   1.000  H
  H20      1.0000 0.91460  0.64680  0.16570  Biso   1.000  H
  H21      1.0000 0.64680  0.58540  0.33430  Biso   1.000  H
  H22      1.0000 0.85320  0.91460  0.33430  Biso   1.000  H
  H23      1.0000 0.41460  0.14680  0.83430  Biso   1.000  H
  H24      1.0000 0.08540  0.35320  0.83430  Biso   1.000  H
  C41      1.0000 0.37720  0.37920  0.84370  Biso   1.000  C
  C42      1.0000 0.12280  0.12080  0.84370  Biso   1.000  C
  C43      1.0000 0.62080  0.87720  0.34370  Biso   1.000  C
  C44      1.0000 0.87920  0.62280  0.34370  Biso   1.000  C
  C45      1.0000 0.62280  0.62080  0.15630  Biso   1.000  C
  C46      1.0000 0.87720  0.87920  0.15630  Biso   1.000  C
  C47      1.0000 0.37920  0.12280  0.65630  Biso   1.000  C
  C48      1.0000 0.12080  0.37720  0.65630  Biso   1.000  C
  H25      1.0000 0.31220  0.36390  0.86520  Biso   1.000  H
  H26      1.0000 0.18780  0.13610  0.86520  Biso   1.000  H
  H27      1.0000 0.63610  0.81220  0.36520  Biso   1.000  H
  H28      1.0000 0.86390  0.68780  0.36520  Biso   1.000  H
  H29      1.0000 0.68780  0.63610  0.13480  Biso   1.000  H
  H30      1.0000 0.81220  0.86390  0.13480  Biso   1.000  H
  H31      1.0000 0.36390  0.18780  0.63480  Biso   1.000  H
  H32      1.0000 0.13610  0.31220  0.63480  Biso   1.000  H
  C49      1.0000 0.71120  0.38670  0.02330  Biso   1.000  C
  C50      1.0000 0.78880  0.11330  0.02330  Biso   1.000  C
  C51      1.0000 0.61330  0.21120  0.52330  Biso   1.000  C
  C52      1.0000 0.88670  0.28880  0.52330  Biso   1.000  C
  C53      1.0000 0.28880  0.61330  0.97670  Biso   1.000  C
  C54      1.0000 0.21120  0.88670  0.97670  Biso   1.000  C
  C55      1.0000 0.38670  0.78880  0.47670  Biso   1.000  C
  C56      1.0000 0.11330  0.71120  0.47670  Biso   1.000  C
  H33      1.0000 0.72330  0.39210  0.11250  Biso   1.000  H
  H34      1.0000 0.77670  0.10790  0.11250  Biso   1.000  H
  H35      1.0000 0.60790  0.22330  0.61250  Biso   1.000  H
  H36      1.0000 0.89210  0.27670  0.61250  Biso   1.000  H
  H37      1.0000 0.27670  0.60790  0.88750  Biso   1.000  H
  H38      1.0000 0.22330  0.89210  0.88750  Biso   1.000  H
  H39      1.0000 0.39210  0.77670  0.38750  Biso   1.000  H
  H40      1.0000 0.10790  0.72330  0.38750  Biso   1.000  H
  H41      1.0000 0.73570  0.44680  0.98440  Biso   1.000  H
  H42      1.0000 0.76430  0.05320  0.98440  Biso   1.000  H
  H43      1.0000 0.55320  0.23570  0.48440  Biso   1.000  H
  H44      1.0000 0.94680  0.26430  0.48440  Biso   1.000  H
  H45      1.0000 0.26430  0.55320  0.01560  Biso   1.000  H
  H46      1.0000 0.23570  0.94680  0.01560  Biso   1.000  H
  H47      1.0000 0.44680  0.76430  0.51560  Biso   1.000  H
  H48      1.0000 0.05320  0.73570  0.51560  Biso   1.000  H
  C57      1.0000 0.76660  0.29870  0.97280  Biso   1.000  C
  C58      1.0000 0.73340  0.20130  0.97280  Biso   1.000  C
  C59      1.0000 0.70130  0.26660  0.47280  Biso   1.000  C
  C60      1.0000 0.79870  0.23340  0.47280  Biso   1.000  C
  C61      1.0000 0.23340  0.70130  0.02720  Biso   1.000  C
  C62      1.0000 0.26660  0.79870  0.02720  Biso   1.000  C
  C63      1.0000 0.29870  0.73340  0.52720  Biso   1.000  C
  C64      1.0000 0.20130  0.76660  0.52720  Biso   1.000  C
  H49      1.0000 0.83720  0.31200  0.97120  Biso   1.000  H
  H50      1.0000 0.66280  0.18800  0.97120  Biso   1.000  H
  H51      1.0000 0.68800  0.33720  0.47120  Biso   1.000  H
  H52      1.0000 0.81200  0.16280  0.47120  Biso   1.000  H
  H53      1.0000 0.16280  0.68800  0.02880  Biso   1.000  H
  H54      1.0000 0.33720  0.81200  0.02880  Biso   1.000  H
  H55      1.0000 0.31200  0.66280  0.52880  Biso   1.000  H
  H56      1.0000 0.18800  0.83720  0.52880  Biso   1.000  H
  H57      1.0000 0.74490  0.28360  0.88840  Biso   1.000  H
  H58      1.0000 0.75510  0.21640  0.88840  Biso   1.000  H
  H59      1.0000 0.71640  0.24490  0.38840  Biso   1.000  H
  H60      1.0000 0.78360  0.25510  0.38840  Biso   1.000  H
  H61      1.0000 0.25510  0.71640  0.11160  Biso   1.000  H
  H62      1.0000 0.24490  0.78360  0.11160  Biso   1.000  H
  H63      1.0000 0.28360  0.75510  0.61160  Biso   1.000  H
  H64      1.0000 0.21640  0.74490  0.61160  Biso   1.000  H
  C65      1.0000 0.75630  0.28910  0.06080  Biso   1.000  C
  C66      1.0000 0.74370  0.21090  0.06080  Biso   1.000  C
  C67      1.0000 0.71090  0.25630  0.56080  Biso   1.000  C
  C68      1.0000 0.78910  0.24370  0.56080  Biso   1.000  C
  C69      1.0000 0.24370  0.71090  0.93920  Biso   1.000  C
  C70      1.0000 0.25630  0.78910  0.93920  Biso   1.000  C
  C71      1.0000 0.28910  0.74370  0.43920  Biso   1.000  C
  C72      1.0000 0.21090  0.75630  0.43920  Biso   1.000  C
  H65      1.0000 0.72410  0.43630  0.08700  Biso   1.000  H
  H66      1.0000 0.77590  0.06370  0.08700  Biso   1.000  H
  H67      1.0000 0.56370  0.22410  0.58700  Biso   1.000  H
  H68      1.0000 0.93630  0.27590  0.58700  Biso   1.000  H
  H69      1.0000 0.27590  0.56370  0.91300  Biso   1.000  H
  H70      1.0000 0.22410  0.93630  0.91300  Biso   1.000  H
  H71      1.0000 0.43630  0.77590  0.41300  Biso   1.000  H
  H72      1.0000 0.06370  0.72410  0.41300  Biso   1.000  H
  H73      1.0000 0.74240  0.40860  0.94630  Biso   1.000  H
  H74      1.0000 0.75760  0.09140  0.94630  Biso   1.000  H
  H75      1.0000 0.59140  0.24240  0.44630  Biso   1.000  H
  H76      1.0000 0.90860  0.25760  0.44630  Biso   1.000  H
  H77      1.0000 0.25760  0.59140  0.05370  Biso   1.000  H
  H78      1.0000 0.24240  0.90860  0.05370  Biso   1.000  H
  H79      1.0000 0.40860  0.75760  0.55370  Biso   1.000  H
  H80      1.0000 0.09140  0.74240  0.55370  Biso   1.000  H
  H81      1.0000 0.73260  0.27240  0.14390  Biso   1.000  H
  H82      1.0000 0.76740  0.22760  0.14390  Biso   1.000  H
  H83      1.0000 0.72760  0.23260  0.64390  Biso   1.000  H
  H84      1.0000 0.77240  0.26740  0.64390  Biso   1.000  H
  H85      1.0000 0.26740  0.72760  0.85610  Biso   1.000  H
  H86      1.0000 0.23260  0.77240  0.85610  Biso   1.000  H
  H87      1.0000 0.27240  0.76740  0.35610  Biso   1.000  H
  H88      1.0000 0.22760  0.73260  0.35610  Biso   1.000  H
  H89      1.0000 0.82760  0.29710  0.06590  Biso   1.000  H
  H90      1.0000 0.67240  0.20290  0.06590  Biso   1.000  H
  H91      1.0000 0.70290  0.32760  0.56590  Biso   1.000  H
  H92      1.0000 0.79710  0.17240  0.56590  Biso   1.000  H
  H93      1.0000 0.17240  0.70290  0.93410  Biso   1.000  H
  H94      1.0000 0.32760  0.79710  0.93410  Biso   1.000  H
  H95      1.0000 0.29710  0.67240  0.43410  Biso   1.000  H
  H96      1.0000 0.20290  0.82760  0.43410  Biso   1.000  H
