data_image0
_cell_length_a       14.625
_cell_length_b       14.645
_cell_length_c       7.6099
_cell_angle_alpha    90
_cell_angle_beta     90
_cell_angle_gamma    90

_symmetry_space_group_name_H-M    "P 1"
_symmetry_int_tables_number       1

loop_
  _symmetry_equiv_pos_as_xyz
  'x, y, z'

loop_
  _atom_site_label
  _atom_site_occupancy
  _atom_site_fract_x
  _atom_site_fract_y
  _atom_site_fract_z
  _atom_site_thermal_displace_type
  _atom_site_B_iso_or_equiv
  _atom_site_type_symbol
  Cu1      1.0000 0.81713  0.25000  0.50839  Biso   1.000  Cu
  Cu2      1.0000 0.68287  0.75000  0.00839  Biso   1.000  Cu
  Cu3      1.0000 0.31713  0.25000  0.99161  Biso   1.000  Cu
  Cu4      1.0000 0.18287  0.75000  0.49161  Biso   1.000  Cu
  Cu5      1.0000 0.97664  0.25000  0.92332  Biso   1.000  Cu
  Cu6      1.0000 0.52336  0.75000  0.42332  Biso   1.000  Cu
  Cu7      1.0000 0.47664  0.25000  0.57668  Biso   1.000  Cu
  Cu8      1.0000 0.02336  0.75000  0.07668  Biso   1.000  Cu
  C1       1.0000 0.86250  0.87130  0.51000  Biso   1.000  C
  C2       1.0000 0.63750  0.12870  0.01000  Biso   1.000  C
  C3       1.0000 0.36250  0.62870  0.99000  Biso   1.000  C
  C4       1.0000 0.13750  0.37130  0.49000  Biso   1.000  C
  C5       1.0000 0.13750  0.12870  0.49000  Biso   1.000  C
  C6       1.0000 0.36250  0.87130  0.99000  Biso   1.000  C
  C7       1.0000 0.63750  0.37130  0.01000  Biso   1.000  C
  C8       1.0000 0.86250  0.62870  0.51000  Biso   1.000  C
  H1       1.0000 0.86310  0.80950  0.48110  Biso   1.000  H
  H2       1.0000 0.63690  0.19050  0.98110  Biso   1.000  H
  H3       1.0000 0.36310  0.69050  0.01890  Biso   1.000  H
  H4       1.0000 0.13690  0.30950  0.51890  Biso   1.000  H
  H5       1.0000 0.13690  0.19050  0.51890  Biso   1.000  H
  H6       1.0000 0.36310  0.80950  0.01890  Biso   1.000  H
  H7       1.0000 0.63690  0.30950  0.98110  Biso   1.000  H
  H8       1.0000 0.86310  0.69050  0.48110  Biso   1.000  H
  N1       1.0000 0.68650  0.25000  0.55070  Biso   1.000  N
  N2       1.0000 0.81350  0.75000  0.05070  Biso   1.000  N
  N3       1.0000 0.18650  0.25000  0.94930  Biso   1.000  N
  N4       1.0000 0.31350  0.75000  0.44930  Biso   1.000  N
  C9       1.0000 0.86790  0.25000  0.26770  Biso   1.000  C
  C10      1.0000 0.63210  0.75000  0.76770  Biso   1.000  C
  C11      1.0000 0.36790  0.25000  0.23230  Biso   1.000  C
  C12      1.0000 0.13210  0.75000  0.73230  Biso   1.000  C
  C13      1.0000 0.91390  0.89810  0.64390  Biso   1.000  C
  C14      1.0000 0.58610  0.10190  0.14390  Biso   1.000  C
  C15      1.0000 0.41390  0.60190  0.85610  Biso   1.000  C
  C16      1.0000 0.08610  0.39810  0.35610  Biso   1.000  C
  C17      1.0000 0.08610  0.10190  0.35610  Biso   1.000  C
  C18      1.0000 0.41390  0.89810  0.85610  Biso   1.000  C
  C19      1.0000 0.58610  0.39810  0.14390  Biso   1.000  C
  C20      1.0000 0.91390  0.60190  0.64390  Biso   1.000  C
  H9       1.0000 0.94520  0.85720  0.71550  Biso   1.000  H
  H10      1.0000 0.55480  0.14280  0.21550  Biso   1.000  H
  H11      1.0000 0.44520  0.64280  0.78450  Biso   1.000  H
  H12      1.0000 0.05480  0.35720  0.28450  Biso   1.000  H
  H13      1.0000 0.05480  0.14280  0.28450  Biso   1.000  H
  H14      1.0000 0.44520  0.85720  0.78450  Biso   1.000  H
  H15      1.0000 0.55480  0.35720  0.21550  Biso   1.000  H
  H16      1.0000 0.94520  0.64280  0.71550  Biso   1.000  H
  C21      1.0000 0.80750  0.92900  0.40890  Biso   1.000  C
  C22      1.0000 0.69250  0.07100  0.90890  Biso   1.000  C
  C23      1.0000 0.30750  0.57100  0.09110  Biso   1.000  C
  C24      1.0000 0.19250  0.42900  0.59110  Biso   1.000  C
  C25      1.0000 0.19250  0.07100  0.59110  Biso   1.000  C
  C26      1.0000 0.30750  0.92900  0.09110  Biso   1.000  C
  C27      1.0000 0.69250  0.42900  0.90890  Biso   1.000  C
  C28      1.0000 0.80750  0.57100  0.40890  Biso   1.000  C
  H17      1.0000 0.77020  0.90400  0.32230  Biso   1.000  H
  H18      1.0000 0.72980  0.09600  0.82230  Biso   1.000  H
  H19      1.0000 0.27020  0.59600  0.17770  Biso   1.000  H
  H20      1.0000 0.22980  0.40400  0.67770  Biso   1.000  H
  H21      1.0000 0.22980  0.09600  0.67770  Biso   1.000  H
  H22      1.0000 0.27020  0.90400  0.17770  Biso   1.000  H
  H23      1.0000 0.72980  0.40400  0.82230  Biso   1.000  H
  H24      1.0000 0.77020  0.59600  0.32230  Biso   1.000  H
  C29      1.0000 0.80720  0.02130  0.43420  Biso   1.000  C
  C30      1.0000 0.69280  0.97870  0.93420  Biso   1.000  C
  C31      1.0000 0.30720  0.47870  0.06580  Biso   1.000  C
  C32      1.0000 0.19280  0.52130  0.56580  Biso   1.000  C
  C33      1.0000 0.19280  0.97870  0.56580  Biso   1.000  C
  C34      1.0000 0.30720  0.02130  0.06580  Biso   1.000  C
  C35      1.0000 0.69280  0.52130  0.93420  Biso   1.000  C
  C36      1.0000 0.80720  0.47870  0.43420  Biso   1.000  C
  H25      1.0000 0.77140  0.06080  0.36780  Biso   1.000  H
  H26      1.0000 0.72860  0.93920  0.86780  Biso   1.000  H
  H27      1.0000 0.27140  0.43920  0.13220  Biso   1.000  H
  H28      1.0000 0.22860  0.56080  0.63220  Biso   1.000  H
  H29      1.0000 0.22860  0.93920  0.63220  Biso   1.000  H
  H30      1.0000 0.27140  0.06080  0.13220  Biso   1.000  H
  H31      1.0000 0.72860  0.56080  0.86780  Biso   1.000  H
  H32      1.0000 0.77140  0.43920  0.36780  Biso   1.000  H
  C37      1.0000 0.02640  0.01920  0.92130  Biso   1.000  C
  C38      1.0000 0.47360  0.98080  0.42130  Biso   1.000  C
  C39      1.0000 0.52640  0.48080  0.57870  Biso   1.000  C
  C40      1.0000 0.97360  0.51920  0.07870  Biso   1.000  C
  C41      1.0000 0.97360  0.98080  0.07870  Biso   1.000  C
  C42      1.0000 0.52640  0.01920  0.57870  Biso   1.000  C
  C43      1.0000 0.47360  0.51920  0.42130  Biso   1.000  C
  C44      1.0000 0.02640  0.48080  0.92130  Biso   1.000  C
  H33      1.0000 0.06210  0.07160  0.95830  Biso   1.000  H
  H34      1.0000 0.43790  0.92840  0.45830  Biso   1.000  H
  H35      1.0000 0.56210  0.42840  0.54170  Biso   1.000  H
  H36      1.0000 0.93790  0.57160  0.04170  Biso   1.000  H
  H37      1.0000 0.93790  0.92840  0.04170  Biso   1.000  H
  H38      1.0000 0.56210  0.07160  0.54170  Biso   1.000  H
  H39      1.0000 0.43790  0.57160  0.45830  Biso   1.000  H
  H40      1.0000 0.06210  0.42840  0.95830  Biso   1.000  H
  H41      1.0000 0.06820  0.97320  0.87710  Biso   1.000  H
  H42      1.0000 0.43180  0.02680  0.37710  Biso   1.000  H
  H43      1.0000 0.56820  0.52680  0.62290  Biso   1.000  H
  H44      1.0000 0.93180  0.47320  0.12290  Biso   1.000  H
  H45      1.0000 0.93180  0.02680  0.12290  Biso   1.000  H
  H46      1.0000 0.56820  0.97320  0.62290  Biso   1.000  H
  H47      1.0000 0.43180  0.47320  0.37710  Biso   1.000  H
  H48      1.0000 0.06820  0.52680  0.87710  Biso   1.000  H
  C45      1.0000 0.86600  0.05170  0.57000  Biso   1.000  C
  C46      1.0000 0.63400  0.94830  0.07000  Biso   1.000  C
  C47      1.0000 0.36600  0.44830  0.93000  Biso   1.000  C
  C48      1.0000 0.13400  0.55170  0.43000  Biso   1.000  C
  C49      1.0000 0.13400  0.94830  0.43000  Biso   1.000  C
  C50      1.0000 0.36600  0.05170  0.93000  Biso   1.000  C
  C51      1.0000 0.63400  0.55170  0.07000  Biso   1.000  C
  C52      1.0000 0.86600  0.44830  0.57000  Biso   1.000  C
  C53      1.0000 0.91720  0.99200  0.66900  Biso   1.000  C
  C54      1.0000 0.58280  0.00800  0.16900  Biso   1.000  C
  C55      1.0000 0.41720  0.50800  0.83100  Biso   1.000  C
  C56      1.0000 0.08280  0.49200  0.33100  Biso   1.000  C
  C57      1.0000 0.08280  0.00800  0.33100  Biso   1.000  C
  C58      1.0000 0.41720  0.99200  0.83100  Biso   1.000  C
  C59      1.0000 0.58280  0.49200  0.16900  Biso   1.000  C
  C60      1.0000 0.91720  0.50800  0.66900  Biso   1.000  C
  N5       1.0000 0.88270  0.13830  0.62680  Biso   1.000  N
  N6       1.0000 0.61730  0.86170  0.12680  Biso   1.000  N
  N7       1.0000 0.38270  0.36170  0.87320  Biso   1.000  N
  N8       1.0000 0.11730  0.63830  0.37320  Biso   1.000  N
  N9       1.0000 0.11730  0.86170  0.37320  Biso   1.000  N
  N10      1.0000 0.38270  0.13830  0.87320  Biso   1.000  N
  N11      1.0000 0.61730  0.63830  0.12680  Biso   1.000  N
  N12      1.0000 0.88270  0.36170  0.62680  Biso   1.000  N
  N13      1.0000 0.94120  0.13500  0.75620  Biso   1.000  N
  N14      1.0000 0.55880  0.86500  0.25620  Biso   1.000  N
  N15      1.0000 0.44120  0.36500  0.74380  Biso   1.000  N
  N16      1.0000 0.05880  0.63500  0.24380  Biso   1.000  N
  N17      1.0000 0.05880  0.86500  0.24380  Biso   1.000  N
  N18      1.0000 0.44120  0.13500  0.74380  Biso   1.000  N
  N19      1.0000 0.55880  0.63500  0.25620  Biso   1.000  N
  N20      1.0000 0.94120  0.36500  0.75620  Biso   1.000  N
  N21      1.0000 0.96360  0.04630  0.78230  Biso   1.000  N
  N22      1.0000 0.53640  0.95370  0.28230  Biso   1.000  N
  N23      1.0000 0.46360  0.45370  0.71770  Biso   1.000  N
  N24      1.0000 0.03640  0.54630  0.21770  Biso   1.000  N
  N25      1.0000 0.03640  0.95370  0.21770  Biso   1.000  N
  N26      1.0000 0.46360  0.04630  0.71770  Biso   1.000  N
  N27      1.0000 0.53640  0.54630  0.28230  Biso   1.000  N
  N28      1.0000 0.96360  0.45370  0.78230  Biso   1.000  N
  C61      1.0000 0.60980  0.25000  0.57100  Biso   1.000  C
  C62      1.0000 0.89020  0.75000  0.07100  Biso   1.000  C
  C63      1.0000 0.10980  0.25000  0.92900  Biso   1.000  C
  C64      1.0000 0.39020  0.75000  0.42900  Biso   1.000  C
  N29      1.0000 0.90380  0.25000  0.13290  Biso   1.000  N
  N30      1.0000 0.59620  0.75000  0.63290  Biso   1.000  N
  N31      1.0000 0.40380  0.25000  0.36710  Biso   1.000  N
  N32      1.0000 0.09620  0.75000  0.86710  Biso   1.000  N
