data_image0
_cell_length_a       7.691
_cell_length_b       16.509
_cell_length_c       16.021
_cell_angle_alpha    90
_cell_angle_beta     102.86
_cell_angle_gamma    90

_symmetry_space_group_name_H-M    "P 1"
_symmetry_int_tables_number       1

loop_
  _symmetry_equiv_pos_as_xyz
  'x, y, z'

loop_
  _atom_site_label
  _atom_site_occupancy
  _atom_site_fract_x
  _atom_site_fract_y
  _atom_site_fract_z
  _atom_site_thermal_displace_type
  _atom_site_B_iso_or_equiv
  _atom_site_type_symbol
  Cu1      1.0000 0.22700  0.99530  0.73860  Biso   1.000  Cu
  Cu2      1.0000 0.27300  0.49530  0.76140  Biso   1.000  Cu
  Cu3      1.0000 0.77300  0.00470  0.26140  Biso   1.000  Cu
  Cu4      1.0000 0.72700  0.50470  0.23860  Biso   1.000  Cu
  Cu5      1.0000 0.22350  0.84897  0.71571  Biso   1.000  Cu
  Cu6      1.0000 0.27650  0.34897  0.78429  Biso   1.000  Cu
  Cu7      1.0000 0.77650  0.15103  0.28429  Biso   1.000  Cu
  Cu8      1.0000 0.72350  0.65103  0.21571  Biso   1.000  Cu
  Cu9      1.0000 0.34880  0.02402  0.52323  Biso   1.000  Cu
  Cu10     1.0000 0.15120  0.52402  0.97677  Biso   1.000  Cu
  Cu11     1.0000 0.65120  0.97598  0.47677  Biso   1.000  Cu
  Cu12     1.0000 0.84880  0.47598  0.02323  Biso   1.000  Cu
  Cu13     1.0000 0.68120  0.91025  0.68560  Biso   1.000  Cu
  Cu14     1.0000 0.81880  0.41025  0.81440  Biso   1.000  Cu
  Cu15     1.0000 0.31880  0.08975  0.31440  Biso   1.000  Cu
  Cu16     1.0000 0.18120  0.58975  0.18560  Biso   1.000  Cu
  Br1      1.0000 0.14860  0.94828  0.59072  Biso   1.000  Br
  Br2      1.0000 0.35140  0.44828  0.90928  Biso   1.000  Br
  Br3      1.0000 0.85140  0.05172  0.40928  Biso   1.000  Br
  Br4      1.0000 0.64860  0.55172  0.09072  Biso   1.000  Br
  Br5      1.0000 0.51260  0.90450  0.79509  Biso   1.000  Br
  Br6      1.0000 0.98740  0.40450  0.70491  Biso   1.000  Br
  Br7      1.0000 0.48740  0.09550  0.20491  Biso   1.000  Br
  Br8      1.0000 0.01260  0.59550  0.29509  Biso   1.000  Br
  Br9      1.0000 0.99730  0.89446  0.79099  Biso   1.000  Br
  Br10     1.0000 0.50270  0.39446  0.70901  Biso   1.000  Br
  Br11     1.0000 0.00270  0.10554  0.20901  Biso   1.000  Br
  Br12     1.0000 0.49730  0.60554  0.29099  Biso   1.000  Br
  Br13     1.0000 0.65560  0.04864  0.61480  Biso   1.000  Br
  Br14     1.0000 0.84440  0.54864  0.88520  Biso   1.000  Br
  Br15     1.0000 0.34440  0.95136  0.38520  Biso   1.000  Br
  Br16     1.0000 0.15560  0.45136  0.11480  Biso   1.000  Br
  N1       1.0000 0.21800  0.10110  0.79100  Biso   1.000  N
  N2       1.0000 0.28200  0.60110  0.70900  Biso   1.000  N
  N3       1.0000 0.78200  0.89890  0.20900  Biso   1.000  N
  N4       1.0000 0.71800  0.39890  0.29100  Biso   1.000  N
  N5       1.0000 0.25600  0.17150  0.75880  Biso   1.000  N
  N6       1.0000 0.24400  0.67150  0.74120  Biso   1.000  N
  N7       1.0000 0.74400  0.82850  0.24120  Biso   1.000  N
  N8       1.0000 0.75600  0.32850  0.25880  Biso   1.000  N
  N9       1.0000 0.25300  0.23480  0.81160  Biso   1.000  N
  N10      1.0000 0.24700  0.73480  0.68840  Biso   1.000  N
  N11      1.0000 0.74700  0.76520  0.18840  Biso   1.000  N
  N12      1.0000 0.75300  0.26520  0.31160  Biso   1.000  N
  N13      1.0000 0.19940  0.20080  0.52110  Biso   1.000  N
  N14      1.0000 0.30060  0.70080  0.97890  Biso   1.000  N
  N15      1.0000 0.80060  0.79920  0.47890  Biso   1.000  N
  N16      1.0000 0.69940  0.29920  0.02110  Biso   1.000  N
  N17      1.0000 0.26200  0.13810  0.48260  Biso   1.000  N
  N18      1.0000 0.23800  0.63810  0.01740  Biso   1.000  N
  N19      1.0000 0.73800  0.86190  0.51740  Biso   1.000  N
  N20      1.0000 0.76200  0.36190  0.98260  Biso   1.000  N
  N21      1.0000 0.28380  0.16550  0.40570  Biso   1.000  N
  N22      1.0000 0.21620  0.66550  0.09430  Biso   1.000  N
  N23      1.0000 0.71620  0.83450  0.59430  Biso   1.000  N
  N24      1.0000 0.78380  0.33450  0.90570  Biso   1.000  N
  C1       1.0000 0.21100  0.20290  0.88180  Biso   1.000  C
  C2       1.0000 0.28900  0.70290  0.61820  Biso   1.000  C
  C3       1.0000 0.78900  0.79710  0.11820  Biso   1.000  C
  C4       1.0000 0.71100  0.29710  0.38180  Biso   1.000  C
  C5       1.0000 0.19000  0.11880  0.86690  Biso   1.000  C
  C6       1.0000 0.31000  0.61880  0.63310  Biso   1.000  C
  C7       1.0000 0.81000  0.88120  0.13310  Biso   1.000  C
  C8       1.0000 0.69000  0.38120  0.36690  Biso   1.000  C
  C9       1.0000 0.15700  0.06980  0.93390  Biso   1.000  C
  C10      1.0000 0.34300  0.56980  0.56610  Biso   1.000  C
  C11      1.0000 0.84300  0.93020  0.06610  Biso   1.000  C
  C12      1.0000 0.65700  0.43020  0.43390  Biso   1.000  C
  H1       1.0000 0.14530  0.01400  0.92650  Biso   1.000  H
  H2       1.0000 0.35470  0.51400  0.57350  Biso   1.000  H
  H3       1.0000 0.85470  0.98600  0.07350  Biso   1.000  H
  H4       1.0000 0.64530  0.48600  0.42650  Biso   1.000  H
  C13      1.0000 0.14400  0.10290  0.00660  Biso   1.000  C
  C14      1.0000 0.35600  0.60290  0.49340  Biso   1.000  C
  C15      1.0000 0.85600  0.89710  0.99340  Biso   1.000  C
  C16      1.0000 0.64400  0.39710  0.50660  Biso   1.000  C
  H5       1.0000 0.12070  0.06990  0.04980  Biso   1.000  H
  H6       1.0000 0.37930  0.56990  0.45020  Biso   1.000  H
  H7       1.0000 0.87930  0.93010  0.95020  Biso   1.000  H
  H8       1.0000 0.62070  0.43010  0.54980  Biso   1.000  H
  C17      1.0000 0.16400  0.18800  0.02130  Biso   1.000  C
  C18      1.0000 0.33600  0.68800  0.47870  Biso   1.000  C
  C19      1.0000 0.83600  0.81200  0.97870  Biso   1.000  C
  C20      1.0000 0.66400  0.31200  0.52130  Biso   1.000  C
  H9       1.0000 0.15540  0.20960  0.07390  Biso   1.000  H
  H10      1.0000 0.34460  0.70960  0.42610  Biso   1.000  H
  H11      1.0000 0.84460  0.79040  0.92610  Biso   1.000  H
  H12      1.0000 0.65540  0.29040  0.57390  Biso   1.000  H
  C21      1.0000 0.19500  0.23770  0.95810  Biso   1.000  C
  C22      1.0000 0.30500  0.73770  0.54190  Biso   1.000  C
  C23      1.0000 0.80500  0.76230  0.04190  Biso   1.000  C
  C24      1.0000 0.69500  0.26230  0.45810  Biso   1.000  C
  H13      1.0000 0.20580  0.29340  0.96620  Biso   1.000  H
  H14      1.0000 0.29420  0.79340  0.53380  Biso   1.000  H
  H15      1.0000 0.79420  0.70660  0.03380  Biso   1.000  H
  H16      1.0000 0.70580  0.20660  0.46620  Biso   1.000  H
  C25      1.0000 0.24000  0.24470  0.40370  Biso   1.000  C
  C26      1.0000 0.26000  0.74470  0.09630  Biso   1.000  C
  C27      1.0000 0.76000  0.75530  0.59630  Biso   1.000  C
  C28      1.0000 0.74000  0.25530  0.90370  Biso   1.000  C
  C29      1.0000 0.18900  0.26890  0.47540  Biso   1.000  C
  C30      1.0000 0.31100  0.76890  0.02460  Biso   1.000  C
  C31      1.0000 0.81100  0.73110  0.52460  Biso   1.000  C
  C32      1.0000 0.68900  0.23110  0.97540  Biso   1.000  C
  C33      1.0000 0.13500  0.34670  0.48940  Biso   1.000  C
  C34      1.0000 0.36500  0.84670  0.01060  Biso   1.000  C
  C35      1.0000 0.86500  0.65330  0.51060  Biso   1.000  C
  C36      1.0000 0.63500  0.15330  0.98940  Biso   1.000  C
  H17      1.0000 0.09940  0.36120  0.53900  Biso   1.000  H
  H18      1.0000 0.40060  0.86120  0.96100  Biso   1.000  H
  H19      1.0000 0.90060  0.63880  0.46100  Biso   1.000  H
  H20      1.0000 0.59940  0.13880  0.03900  Biso   1.000  H
  C37      1.0000 0.13900  0.40010  0.42590  Biso   1.000  C
  C38      1.0000 0.36100  0.90010  0.07410  Biso   1.000  C
  C39      1.0000 0.86100  0.59990  0.57410  Biso   1.000  C
  C40      1.0000 0.63900  0.09990  0.92590  Biso   1.000  C
  H21      1.0000 0.10460  0.45330  0.43230  Biso   1.000  H
  H22      1.0000 0.39540  0.95330  0.06770  Biso   1.000  H
  H23      1.0000 0.89540  0.54670  0.56770  Biso   1.000  H
  H24      1.0000 0.60460  0.04670  0.93230  Biso   1.000  H
  C41      1.0000 0.19200  0.37900  0.35140  Biso   1.000  C
  C42      1.0000 0.30800  0.87900  0.14860  Biso   1.000  C
  C43      1.0000 0.80800  0.62100  0.64860  Biso   1.000  C
  C44      1.0000 0.69200  0.12100  0.85140  Biso   1.000  C
  H25      1.0000 0.19670  0.41910  0.31120  Biso   1.000  H
  H26      1.0000 0.30330  0.91910  0.18880  Biso   1.000  H
  H27      1.0000 0.80330  0.58090  0.68880  Biso   1.000  H
  H28      1.0000 0.69670  0.08090  0.81120  Biso   1.000  H
  C45      1.0000 0.23700  0.30250  0.33520  Biso   1.000  C
  C46      1.0000 0.26300  0.80250  0.16480  Biso   1.000  C
  C47      1.0000 0.76300  0.69750  0.66480  Biso   1.000  C
  C48      1.0000 0.73700  0.19750  0.83520  Biso   1.000  C
  H29      1.0000 0.26510  0.28780  0.28360  Biso   1.000  H
  H30      1.0000 0.23490  0.78780  0.21640  Biso   1.000  H
  H31      1.0000 0.73490  0.71220  0.71640  Biso   1.000  H
  H32      1.0000 0.76510  0.21220  0.78360  Biso   1.000  H
  C49      1.0000 0.30300  0.17990  0.67270  Biso   1.000  C
  C50      1.0000 0.19700  0.67990  0.82730  Biso   1.000  C
  C51      1.0000 0.69700  0.82010  0.32730  Biso   1.000  C
  C52      1.0000 0.80300  0.32010  0.17270  Biso   1.000  C
  H33      1.0000 0.37310  0.22870  0.67210  Biso   1.000  H
  H34      1.0000 0.12690  0.72870  0.82790  Biso   1.000  H
  H35      1.0000 0.62690  0.77130  0.32790  Biso   1.000  H
  H36      1.0000 0.87310  0.27130  0.17210  Biso   1.000  H
  H37      1.0000 0.37490  0.13400  0.66310  Biso   1.000  H
  H38      1.0000 0.12510  0.63400  0.83690  Biso   1.000  H
  H39      1.0000 0.62510  0.86600  0.33690  Biso   1.000  H
  H40      1.0000 0.87490  0.36600  0.16310  Biso   1.000  H
  C53      1.0000 0.14700  0.18390  0.60600  Biso   1.000  C
  C54      1.0000 0.35300  0.68390  0.89400  Biso   1.000  C
  C55      1.0000 0.85300  0.81610  0.39400  Biso   1.000  C
  C56      1.0000 0.64700  0.31610  0.10600  Biso   1.000  C
  H41      1.0000 0.06980  0.22660  0.61800  Biso   1.000  H
  H42      1.0000 0.43020  0.72660  0.88200  Biso   1.000  H
  H43      1.0000 0.93020  0.77340  0.38200  Biso   1.000  H
  H44      1.0000 0.56980  0.27340  0.11800  Biso   1.000  H
  H45      1.0000 0.08310  0.13300  0.60250  Biso   1.000  H
  H46      1.0000 0.41690  0.63300  0.89750  Biso   1.000  H
  H47      1.0000 0.91690  0.86700  0.39750  Biso   1.000  H
  H48      1.0000 0.58310  0.36700  0.10250  Biso   1.000  H
  Cu17     1.0000 0.14300  0.00180  0.72400  Biso   1.000  Cu
  Cu18     1.0000 0.35700  0.50180  0.77600  Biso   1.000  Cu
  Cu19     1.0000 0.85700  0.99820  0.27600  Biso   1.000  Cu
  Cu20     1.0000 0.64300  0.49820  0.22400  Biso   1.000  Cu
