data_image0
_cell_length_a       14.383
_cell_length_b       14.4
_cell_length_c       21.42
_cell_angle_alpha    96.724
_cell_angle_beta     96.541
_cell_angle_gamma    109.438

_symmetry_space_group_name_H-M    "P 1"
_symmetry_int_tables_number       1

loop_
  _symmetry_equiv_pos_as_xyz
  'x, y, z'

loop_
  _atom_site_label
  _atom_site_occupancy
  _atom_site_fract_x
  _atom_site_fract_y
  _atom_site_fract_z
  _atom_site_thermal_displace_type
  _atom_site_B_iso_or_equiv
  _atom_site_type_symbol
  Ge1      1.0000 0.81620  0.81630  0.74572  Biso   1.000  Ge
  Ge2      1.0000 0.18380  0.18370  0.25428  Biso   1.000  Ge
  W1       1.0000 0.94490  0.94501  0.63136  Biso   1.000  W
  W2       1.0000 0.05510  0.05499  0.36864  Biso   1.000  W
  W3       1.0000 0.92263  0.08033  0.78397  Biso   1.000  W
  W4       1.0000 0.07737  0.91967  0.21603  Biso   1.000  W
  W5       1.0000 0.67064  0.97196  0.74997  Biso   1.000  W
  W6       1.0000 0.32936  0.02804  0.25003  Biso   1.000  W
  W7       1.0000 0.97153  0.67042  0.74983  Biso   1.000  W
  W8       1.0000 0.02847  0.32958  0.25017  Biso   1.000  W
  W9       1.0000 0.79434  0.95404  0.88949  Biso   1.000  W
  W10      1.0000 0.20566  0.04596  0.11051  Biso   1.000  W
  W11      1.0000 0.08023  0.92263  0.78400  Biso   1.000  W
  W12      1.0000 0.91977  0.07737  0.21600  Biso   1.000  W
  W13      1.0000 0.95387  0.79414  0.88949  Biso   1.000  W
  W14      1.0000 0.04613  0.20586  0.11051  Biso   1.000  W
  W15      1.0000 0.69227  0.83714  0.59713  Biso   1.000  W
  W16      1.0000 0.30773  0.16286  0.40287  Biso   1.000  W
  W17      1.0000 0.83700  0.69190  0.59712  Biso   1.000  W
  W18      1.0000 0.16300  0.30810  0.40288  Biso   1.000  W
  W19      1.0000 0.67636  0.67630  0.85091  Biso   1.000  W
  W20      1.0000 0.32364  0.32370  0.14909  Biso   1.000  W
  W21      1.0000 0.69632  0.55139  0.71122  Biso   1.000  W
  W22      1.0000 0.30368  0.44861  0.28878  Biso   1.000  W
  W23      1.0000 0.55151  0.69635  0.71131  Biso   1.000  W
  W24      1.0000 0.44849  0.30365  0.28869  Biso   1.000  W
  O1       1.0000 0.80490  0.92450  0.78150  Biso   1.000  O
  O2       1.0000 0.19510  0.07550  0.21850  Biso   1.000  O
  O3       1.0000 0.06600  0.06840  0.95280  Biso   1.000  O
  O4       1.0000 0.93400  0.93160  0.04720  Biso   1.000  O
  O5       1.0000 0.63200  0.63200  0.91620  Biso   1.000  O
  O6       1.0000 0.36800  0.36800  0.08380  Biso   1.000  O
  O7       1.0000 0.66200  0.42570  0.68700  Biso   1.000  O
  O8       1.0000 0.33800  0.57430  0.31300  Biso   1.000  O
  O9       1.0000 0.07600  0.89430  0.87240  Biso   1.000  O
  O10      1.0000 0.92400  0.10570  0.12760  Biso   1.000  O
  O11      1.0000 0.60000  0.73780  0.63770  Biso   1.000  O
  O12      1.0000 0.40000  0.26220  0.36230  Biso   1.000  O
  O13      1.0000 0.56970  0.57030  0.68730  Biso   1.000  O
  O14      1.0000 0.43030  0.42970  0.31270  Biso   1.000  O
  O15      1.0000 0.93710  0.82190  0.58240  Biso   1.000  O
  O16      1.0000 0.06290  0.17810  0.41760  Biso   1.000  O
  O17      1.0000 0.73770  0.60180  0.63590  Biso   1.000  O
  O18      1.0000 0.26230  0.39820  0.36410  Biso   1.000  O
  O19      1.0000 0.56000  0.67230  0.79910  Biso   1.000  O
  O20      1.0000 0.44000  0.32770  0.20090  Biso   1.000  O
  O21      1.0000 0.98860  0.68990  0.84250  Biso   1.000  O
  O22      1.0000 0.01140  0.31010  0.15750  Biso   1.000  O
  O23      1.0000 0.08660  0.79080  0.75640  Biso   1.000  O
  O24      1.0000 0.91340  0.20920  0.24360  Biso   1.000  O
  O25      1.0000 0.81630  0.93140  0.58130  Biso   1.000  O
  O26      1.0000 0.18370  0.06860  0.41870  Biso   1.000  O
  O27      1.0000 0.78650  0.99680  0.96620  Biso   1.000  O
  O28      1.0000 0.21350  0.00320  0.03380  Biso   1.000  O
  O29      1.0000 0.69230  0.98910  0.84330  Biso   1.000  O
  O30      1.0000 0.30770  0.01090  0.15670  Biso   1.000  O
  O31      1.0000 0.84370  0.61030  0.53580  Biso   1.000  O
  O32      1.0000 0.15630  0.38970  0.46420  Biso   1.000  O
  O33      1.0000 0.83620  0.58750  0.74630  Biso   1.000  O
  O34      1.0000 0.16380  0.41250  0.25370  Biso   1.000  O
  O35      1.0000 0.89270  0.07560  0.87260  Biso   1.000  O
  O36      1.0000 0.10730  0.92440  0.12740  Biso   1.000  O
  O37      1.0000 0.91830  0.79880  0.78120  Biso   1.000  O
  O38      1.0000 0.08170  0.20120  0.21880  Biso   1.000  O
  O39      1.0000 0.93400  0.68580  0.66510  Biso   1.000  O
  O40      1.0000 0.06600  0.31420  0.33490  Biso   1.000  O
  O41      1.0000 0.67130  0.55450  0.79810  Biso   1.000  O
  O42      1.0000 0.32870  0.44550  0.20190  Biso   1.000  O
  O43      1.0000 0.20480  0.99680  0.79540  Biso   1.000  O
  O44      1.0000 0.79520  0.00320  0.20460  Biso   1.000  O
  O45      1.0000 0.61220  0.84690  0.53630  Biso   1.000  O
  O46      1.0000 0.38780  0.15310  0.46370  Biso   1.000  O
  O47      1.0000 0.99920  0.20710  0.79460  Biso   1.000  O
  O48      1.0000 0.00080  0.79290  0.20540  Biso   1.000  O
  O49      1.0000 0.58420  0.83150  0.74310  Biso   1.000  O
  O50      1.0000 0.41580  0.16850  0.25690  Biso   1.000  O
  O51      1.0000 0.82290  0.82040  0.66600  Biso   1.000  O
  O52      1.0000 0.17710  0.17960  0.33400  Biso   1.000  O
  O53      1.0000 0.03800  0.59180  0.74030  Biso   1.000  O
  O54      1.0000 0.96200  0.40820  0.25970  Biso   1.000  O
  O55      1.0000 0.92560  0.03600  0.69780  Biso   1.000  O
  O56      1.0000 0.07440  0.96400  0.30220  Biso   1.000  O
  O57      1.0000 0.02140  0.02160  0.58880  Biso   1.000  O
  O58      1.0000 0.97860  0.97840  0.41120  Biso   1.000  O
  O59      1.0000 0.03290  0.92320  0.69430  Biso   1.000  O
  O60      1.0000 0.96710  0.07680  0.30570  Biso   1.000  O
  O61      1.0000 0.01750  0.02040  0.80440  Biso   1.000  O
  O62      1.0000 0.98250  0.97960  0.19560  Biso   1.000  O
  O63      1.0000 0.78860  0.08960  0.75880  Biso   1.000  O
  O64      1.0000 0.21140  0.91040  0.24120  Biso   1.000  O
  O65      1.0000 0.68690  0.93280  0.66480  Biso   1.000  O
  O66      1.0000 0.31310  0.06720  0.33520  Biso   1.000  O
  O67      1.0000 0.58660  0.03110  0.73830  Biso   1.000  O
  O68      1.0000 0.41340  0.96890  0.26170  Biso   1.000  O
  O69      1.0000 0.81930  0.70630  0.87350  Biso   1.000  O
  O70      1.0000 0.18070  0.29370  0.12650  Biso   1.000  O
  O71      1.0000 0.42900  0.66400  0.69130  Biso   1.000  O
  O72      1.0000 0.57100  0.33600  0.30870  Biso   1.000  O
  O73      1.0000 0.70900  0.82280  0.87590  Biso   1.000  O
  O74      1.0000 0.29100  0.17720  0.12410  Biso   1.000  O
  O75      1.0000 0.73500  0.73370  0.55700  Biso   1.000  O
  O76      1.0000 0.26500  0.26630  0.44300  Biso   1.000  O
  O77      1.0000 0.71780  0.71860  0.75420  Biso   1.000  O
  O78      1.0000 0.28220  0.28140  0.24580  Biso   1.000  O
  O79      1.0000 0.89680  0.89660  0.90190  Biso   1.000  O
  O80      1.0000 0.10320  0.10340  0.09810  Biso   1.000  O
  Cu1      1.0000 0.35510  0.99980  0.77878  Biso   1.000  Cu
  Cu2      1.0000 0.64490  0.00020  0.22122  Biso   1.000  Cu
  Cu3      1.0000 0.00120  0.35590  0.77946  Biso   1.000  Cu
  Cu4      1.0000 0.99880  0.64410  0.22054  Biso   1.000  Cu
  Cu5      1.0000 0.27300  0.77780  0.26479  Biso   1.000  Cu
  Cu6      1.0000 0.72700  0.22220  0.73521  Biso   1.000  Cu
  Cu7      1.0000 0.77750  0.27260  0.26493  Biso   1.000  Cu
  Cu8      1.0000 0.22250  0.72740  0.73507  Biso   1.000  Cu
  C1       1.0000 0.89400  0.25000  0.44670  Biso   1.000  C
  C2       1.0000 0.10600  0.75000  0.55330  Biso   1.000  C
  H1       1.0000 0.91220  0.20100  0.46340  Biso   1.000  H
  H2       1.0000 0.08780  0.79900  0.53660  Biso   1.000  H
  C3       1.0000 0.07600  0.38000  0.91490  Biso   1.000  C
  C4       1.0000 0.92400  0.62000  0.08510  Biso   1.000  C
  H3       1.0000 0.07150  0.31350  0.90600  Biso   1.000  H
  H4       1.0000 0.92850  0.68650  0.09400  Biso   1.000  H
  C5       1.0000 0.09800  0.57700  0.93670  Biso   1.000  C
  C6       1.0000 0.90200  0.42300  0.06330  Biso   1.000  C
  H5       1.0000 0.09940  0.64210  0.94420  Biso   1.000  H
  H6       1.0000 0.90060  0.35790  0.05580  Biso   1.000  H
  C7       1.0000 0.21000  0.75100  0.12970  Biso   1.000  C
  C8       1.0000 0.79000  0.24900  0.87030  Biso   1.000  C
  H7       1.0000 0.21530  0.81750  0.13640  Biso   1.000  H
  H8       1.0000 0.78470  0.18250  0.86360  Biso   1.000  H
  C9       1.0000 0.17500  0.54200  0.10370  Biso   1.000  C
  C10      1.0000 0.82500  0.45800  0.89630  Biso   1.000  C
  H9       1.0000 0.15770  0.47300  0.09820  Biso   1.000  H
  H10      1.0000 0.84230  0.52700  0.90180  Biso   1.000  H
  C11      1.0000 0.38200  0.07700  0.91650  Biso   1.000  C
  C12      1.0000 0.61800  0.92300  0.08350  Biso   1.000  C
  H11      1.0000 0.31350  0.06490  0.90790  Biso   1.000  H
  H12      1.0000 0.68650  0.93510  0.09210  Biso   1.000  H
  C13      1.0000 0.39000  0.87500  0.60050  Biso   1.000  C
  C14      1.0000 0.61000  0.12500  0.39950  Biso   1.000  C
  H13      1.0000 0.42260  0.83270  0.58650  Biso   1.000  H
  H14      1.0000 0.57740  0.16730  0.41350  Biso   1.000  H
  C15      1.0000 0.23900  0.86600  0.38050  Biso   1.000  C
  C16      1.0000 0.76100  0.13400  0.61950  Biso   1.000  C
  H15      1.0000 0.18800  0.87470  0.35410  Biso   1.000  H
  H16      1.0000 0.81200  0.12530  0.64590  Biso   1.000  H
  C17      1.0000 0.87400  0.38700  0.60300  Biso   1.000  C
  C18      1.0000 0.12600  0.61300  0.39700  Biso   1.000  C
  H17      1.0000 0.82570  0.41240  0.58910  Biso   1.000  H
  H18      1.0000 0.17430  0.58760  0.41090  Biso   1.000  H
  C19      1.0000 0.16100  0.58900  0.05490  Biso   1.000  C
  C20      1.0000 0.83900  0.41100  0.94510  Biso   1.000  C
  C21      1.0000 0.30700  0.00900  0.64760  Biso   1.000  C
  C22      1.0000 0.69300  0.99100  0.35240  Biso   1.000  C
  H19      1.0000 0.28870  0.06130  0.66480  Biso   1.000  H
  H20      1.0000 0.71130  0.93870  0.33520  Biso   1.000  H
  C23      1.0000 0.25200  0.89900  0.44500  Biso   1.000  C
  C24      1.0000 0.74800  0.10100  0.55500  Biso   1.000  C
  H21      1.0000 0.20870  0.92770  0.46100  Biso   1.000  H
  H22      1.0000 0.79130  0.07230  0.53900  Biso   1.000  H
  C25      1.0000 0.89400  0.33200  0.48770  Biso   1.000  C
  C26      1.0000 0.10600  0.66800  0.51230  Biso   1.000  C
  C27      1.0000 0.69400  0.17700  0.06880  Biso   1.000  C
  C28      1.0000 0.30600  0.82300  0.93120  Biso   1.000  C
  H23      1.0000 0.72800  0.16560  0.03600  Biso   1.000  H
  H24      1.0000 0.27200  0.83440  0.96400  Biso   1.000  H
  C29      1.0000 0.32900  0.88800  0.48670  Biso   1.000  C
  C30      1.0000 0.67100  0.11200  0.51330  Biso   1.000  C
  C31      1.0000 0.07300  0.52800  0.87740  Biso   1.000  C
  C32      1.0000 0.92700  0.47200  0.12260  Biso   1.000  C
  H25      1.0000 0.06940  0.56330  0.84390  Biso   1.000  H
  H26      1.0000 0.93060  0.43670  0.15610  Biso   1.000  H
  C33      1.0000 0.12500  0.53200  0.99130  Biso   1.000  C
  C34      1.0000 0.87500  0.46800  0.00870  Biso   1.000  C
  C35      1.0000 0.38600  0.89800  0.66470  Biso   1.000  C
  C36      1.0000 0.61400  0.10200  0.33530  Biso   1.000  C
  H27      1.0000 0.41550  0.86710  0.69270  Biso   1.000  H
  H28      1.0000 0.58450  0.13290  0.30730  Biso   1.000  H
  C37      1.0000 0.29200  0.98500  0.58100  Biso   1.000  C
  C38      1.0000 0.70800  0.01500  0.41900  Biso   1.000  C
  H29      1.0000 0.25420  0.01030  0.55460  Biso   1.000  H
  H30      1.0000 0.74580  0.98970  0.44540  Biso   1.000  H
  C39      1.0000 0.86600  0.24000  0.37990  Biso   1.000  C
  C40      1.0000 0.13400  0.76000  0.62010  Biso   1.000  C
  H31      1.0000 0.87890  0.19130  0.35300  Biso   1.000  H
  H32      1.0000 0.12110  0.80870  0.64700  Biso   1.000  H
  C41      1.0000 0.74500  0.20700  0.13080  Biso   1.000  C
  C42      1.0000 0.25500  0.79300  0.86920  Biso   1.000  C
  H33      1.0000 0.80990  0.20800  0.13820  Biso   1.000  H
  H34      1.0000 0.19010  0.79200  0.86180  Biso   1.000  H
  C43      1.0000 0.10900  0.42700  0.97910  Biso   1.000  C
  C44      1.0000 0.89100  0.57300  0.02090  Biso   1.000  C
  H35      1.0000 0.11960  0.39220  0.01160  Biso   1.000  H
  H36      1.0000 0.88040  0.60780  0.98840  Biso   1.000  H
  C45      1.0000 0.22100  0.60800  0.16990  Biso   1.000  C
  C46      1.0000 0.77900  0.39200  0.83010  Biso   1.000  C
  H37      1.0000 0.23670  0.57850  0.20380  Biso   1.000  H
  H38      1.0000 0.76330  0.42150  0.79620  Biso   1.000  H
  C47      1.0000 0.90200  0.39200  0.66710  Biso   1.000  C
  C48      1.0000 0.09800  0.60800  0.33290  Biso   1.000  C
  H39      1.0000 0.87800  0.42910  0.69550  Biso   1.000  H
  H40      1.0000 0.12200  0.57090  0.30450  Biso   1.000  H
  C49      1.0000 0.17500  0.69500  0.06990  Biso   1.000  C
  C50      1.0000 0.82500  0.30500  0.93010  Biso   1.000  C
  H41      1.0000 0.16020  0.72720  0.03690  Biso   1.000  H
  H42      1.0000 0.83980  0.27280  0.96310  Biso   1.000  H
  C51      1.0000 0.38400  0.82100  0.39370  Biso   1.000  C
  C52      1.0000 0.61600  0.17900  0.60630  Biso   1.000  C
  H43      1.0000 0.43300  0.80240  0.37680  Biso   1.000  H
  H44      1.0000 0.56700  0.19760  0.62320  Biso   1.000  H
  C53      1.0000 0.98800  0.29900  0.58260  Biso   1.000  C
  C54      1.0000 0.01200  0.70100  0.41740  Biso   1.000  C
  H45      1.0000 0.01770  0.26490  0.55680  Biso   1.000  H
  H46      1.0000 0.98230  0.73510  0.44320  Biso   1.000  H
  C55      1.0000 0.54400  0.18700  0.10200  Biso   1.000  C
  C56      1.0000 0.45600  0.81300  0.89800  Biso   1.000  C
  H47      1.0000 0.47760  0.18320  0.09590  Biso   1.000  H
  H48      1.0000 0.52240  0.81680  0.90410  Biso   1.000  H
  C57      1.0000 0.39300  0.84800  0.45900  Biso   1.000  C
  C58      1.0000 0.60700  0.15200  0.54100  Biso   1.000  C
  H49      1.0000 0.44430  0.83980  0.48540  Biso   1.000  H
  H50      1.0000 0.55570  0.16020  0.51460  Biso   1.000  H
  C59      1.0000 0.57800  0.10600  0.93900  Biso   1.000  C
  C60      1.0000 0.42200  0.89400  0.06100  Biso   1.000  C
  H51      1.0000 0.64600  0.11890  0.94530  Biso   1.000  H
  H52      1.0000 0.35400  0.88110  0.05470  Biso   1.000  H
  C61      1.0000 0.58600  0.16300  0.05430  Biso   1.000  C
  C62      1.0000 0.41400  0.83700  0.94570  Biso   1.000  C
  C63      1.0000 0.42300  0.10900  0.97450  Biso   1.000  C
  C64      1.0000 0.57700  0.89100  0.02550  Biso   1.000  C
  H53      1.0000 0.38660  0.12140  0.00540  Biso   1.000  H
  H54      1.0000 0.61340  0.87860  0.99460  Biso   1.000  H
  C65      1.0000 0.92000  0.34000  0.55510  Biso   1.000  C
  C66      1.0000 0.08000  0.66000  0.44490  Biso   1.000  C
  C67      1.0000 0.85100  0.39700  0.45910  Biso   1.000  C
  C68      1.0000 0.14900  0.60300  0.54090  Biso   1.000  C
  H55      1.0000 0.84290  0.45070  0.48420  Biso   1.000  H
  H56      1.0000 0.15710  0.54930  0.51580  Biso   1.000  H
  C69      1.0000 0.33900  0.92000  0.55510  Biso   1.000  C
  C70      1.0000 0.66100  0.08000  0.44490  Biso   1.000  C
  C71      1.0000 0.00900  0.30900  0.64780  Biso   1.000  C
  C72      1.0000 0.99100  0.69100  0.35220  Biso   1.000  C
  H57      1.0000 0.06040  0.28960  0.66510  Biso   1.000  H
  H58      1.0000 0.93960  0.71040  0.33490  Biso   1.000  H
  C73      1.0000 0.60600  0.22000  0.16560  Biso   1.000  C
  C74      1.0000 0.39400  0.78000  0.83440  Biso   1.000  C
  H59      1.0000 0.57380  0.23210  0.19910  Biso   1.000  H
  H60      1.0000 0.42620  0.76790  0.80090  Biso   1.000  H
  C75      1.0000 0.52300  0.07000  0.87800  Biso   1.000  C
  C76      1.0000 0.47700  0.93000  0.12200  Biso   1.000  C
  H61      1.0000 0.55410  0.05270  0.84520  Biso   1.000  H
  H62      1.0000 0.44590  0.94730  0.15480  Biso   1.000  H
  C77      1.0000 0.82100  0.37900  0.39400  Biso   1.000  C
  C78      1.0000 0.17900  0.62100  0.60600  Biso   1.000  C
  H63      1.0000 0.79730  0.42400  0.37550  Biso   1.000  H
  H64      1.0000 0.20270  0.57600  0.62450  Biso   1.000  H
  C79      1.0000 0.53100  0.12500  0.99230  Biso   1.000  C
  C80      1.0000 0.46900  0.87500  0.00770  Biso   1.000  C
  N1       1.0000 0.05100  0.42200  0.86380  Biso   1.000  N
  N2       1.0000 0.94900  0.57800  0.13620  Biso   1.000  N
  N3       1.0000 0.34500  0.96000  0.68970  Biso   1.000  N
  N4       1.0000 0.65500  0.04000  0.31030  Biso   1.000  N
  N5       1.0000 0.42700  0.05900  0.86510  Biso   1.000  N
  N6       1.0000 0.57300  0.94100  0.13490  Biso   1.000  N
  N7       1.0000 0.23800  0.70900  0.18070  Biso   1.000  N
  N8       1.0000 0.76200  0.29100  0.81930  Biso   1.000  N
  N9       1.0000 0.82300  0.29800  0.35530  Biso   1.000  N
  N10      1.0000 0.17700  0.70200  0.64470  Biso   1.000  N
  N11      1.0000 0.95900  0.34800  0.68910  Biso   1.000  N
  N12      1.0000 0.04100  0.65200  0.31090  Biso   1.000  N
  N13      1.0000 0.29900  0.82000  0.35310  Biso   1.000  N
  N14      1.0000 0.70100  0.18000  0.64690  Biso   1.000  N
  N15      1.0000 0.70600  0.23500  0.18190  Biso   1.000  N
  N16      1.0000 0.29400  0.76500  0.81810  Biso   1.000  N
  O81      1.0000 0.99400  0.78330  0.96520  Biso   1.000  O
  O82      1.0000 0.00600  0.21670  0.03480  Biso   1.000  O
