data_image0
_cell_length_a       10.861
_cell_length_b       11.82
_cell_length_c       13.243
_cell_angle_alpha    104.79
_cell_angle_beta     102.91
_cell_angle_gamma    114.8

_symmetry_space_group_name_H-M    "P 1"
_symmetry_int_tables_number       1

loop_
  _symmetry_equiv_pos_as_xyz
  'x, y, z'

loop_
  _atom_site_label
  _atom_site_occupancy
  _atom_site_fract_x
  _atom_site_fract_y
  _atom_site_fract_z
  _atom_site_thermal_displace_type
  _atom_site_B_iso_or_equiv
  _atom_site_type_symbol
  P1       1.0000 0.50000  0.50000  0.50000  Biso   1.000  P
  Mo1      1.0000 0.76955  0.74891  0.76665  Biso   1.000  Mo
  Mo2      1.0000 0.23045  0.25109  0.23335  Biso   1.000  Mo
  Mo3      1.0000 0.36805  0.72029  0.45879  Biso   1.000  Mo
  Mo4      1.0000 0.63195  0.27971  0.54121  Biso   1.000  Mo
  Mo5      1.0000 0.12355  0.39299  0.44067  Biso   1.000  Mo
  Mo6      1.0000 0.87645  0.60701  0.55933  Biso   1.000  Mo
  Mo7      1.0000 0.39860  0.65719  0.70628  Biso   1.000  Mo
  Mo8      1.0000 0.60140  0.34281  0.29372  Biso   1.000  Mo
  Mo9      1.0000 0.25502  0.17168  0.47689  Biso   1.000  Mo
  Mo10     1.0000 0.74498  0.82832  0.52311  Biso   1.000  Mo
  Mo11     1.0000 0.51798  0.42672  0.74437  Biso   1.000  Mo
  Mo12     1.0000 0.48202  0.57328  0.25563  Biso   1.000  Mo
  Cu1      1.0000 0.99898  0.08930  0.85520  Biso   1.000  Cu
  Cu2      1.0000 0.00102  0.91070  0.14480  Biso   1.000  Cu
  N1       1.0000 0.17240  0.09130  0.85140  Biso   1.000  N
  N2       1.0000 0.82760  0.90870  0.14860  Biso   1.000  N
  N3       1.0000 0.83380  0.10550  0.86190  Biso   1.000  N
  N4       1.0000 0.16620  0.89450  0.13810  Biso   1.000  N
  O1       1.0000 0.40080  0.55130  0.52250  Biso   1.000  O
  O2       1.0000 0.59920  0.44870  0.47750  Biso   1.000  O
  O3       1.0000 0.48820  0.39530  0.54900  Biso   1.000  O
  O4       1.0000 0.51180  0.60470  0.45100  Biso   1.000  O
  O5       1.0000 0.52780  0.55630  0.62470  Biso   1.000  O
  O6       1.0000 0.47220  0.44370  0.37530  Biso   1.000  O
  O7       1.0000 0.66270  0.62290  0.56380  Biso   1.000  O
  O8       1.0000 0.33730  0.37710  0.43620  Biso   1.000  O
  O9       1.0000 0.87690  0.68560  0.70240  Biso   1.000  O
  O10      1.0000 0.12310  0.31440  0.29760  Biso   1.000  O
  O11      1.0000 0.41720  0.52380  0.75630  Biso   1.000  O
  O12      1.0000 0.58280  0.47620  0.24370  Biso   1.000  O
  O13      1.0000 0.95080  0.34690  0.41340  Biso   1.000  O
  O14      1.0000 0.04920  0.65310  0.58660  Biso   1.000  O
  O15      1.0000 0.38000  0.65370  0.31730  Biso   1.000  O
  O16      1.0000 0.62000  0.34630  0.68270  Biso   1.000  O
  O17      1.0000 0.79490  0.85710  0.67830  Biso   1.000  O
  O18      1.0000 0.20510  0.14290  0.32170  Biso   1.000  O
  O19      1.0000 0.52880  0.39330  0.85640  Biso   1.000  O
  O20      1.0000 0.47120  0.60670  0.14360  Biso   1.000  O
  O21      1.0000 0.69500  0.59730  0.80230  Biso   1.000  O
  O22      1.0000 0.30500  0.40270  0.19770  Biso   1.000  O
  O23      1.0000 0.13230  0.25410  0.47930  Biso   1.000  O
  O24      1.0000 0.86770  0.74590  0.52070  Biso   1.000  O
  O25      1.0000 0.19270  0.56070  0.41660  Biso   1.000  O
  O26      1.0000 0.80730  0.43930  0.58340  Biso   1.000  O
  O27      1.0000 0.39660  0.74920  0.61310  Biso   1.000  O
  O28      1.0000 0.60340  0.25080  0.38690  Biso   1.000  O
  O29      1.0000 0.21300  0.50620  0.59700  Biso   1.000  O
  O30      1.0000 0.78700  0.49380  0.40300  Biso   1.000  O
  O31      1.0000 0.57720  0.83300  0.51480  Biso   1.000  O
  O32      1.0000 0.42280  0.16700  0.48520  Biso   1.000  O
  O33      1.0000 0.31210  0.82620  0.43910  Biso   1.000  O
  O34      1.0000 0.68790  0.17380  0.56090  Biso   1.000  O
  O35      1.0000 0.13850  0.01810  0.46620  Biso   1.000  O
  O36      1.0000 0.86150  0.98190  0.53380  Biso   1.000  O
  O37      1.0000 0.60480  0.76340  0.77200  Biso   1.000  O
  O38      1.0000 0.39520  0.23660  0.22800  Biso   1.000  O
  O39      1.0000 0.89480  0.86530  0.88970  Biso   1.000  O
  O40      1.0000 0.10520  0.13470  0.11030  Biso   1.000  O
  O41      1.0000 0.34540  0.72440  0.80040  Biso   1.000  O
  O42      1.0000 0.65460  0.27560  0.19960  Biso   1.000  O
  O43      1.0000 0.34170  0.27360  0.63920  Biso   1.000  O
  O44      1.0000 0.65830  0.72640  0.36080  Biso   1.000  O
  C1       1.0000 0.42400  0.17010  0.94560  Biso   1.000  C
  C2       1.0000 0.57600  0.82990  0.05440  Biso   1.000  C
  H1       1.0000 0.50740  0.22410  0.01130  Biso   1.000  H
  H2       1.0000 0.49260  0.77590  0.98870  Biso   1.000  H
  C3       1.0000 0.43070  0.08970  0.85350  Biso   1.000  C
  C4       1.0000 0.56930  0.91030  0.14650  Biso   1.000  C
  C5       1.0000 0.17700  0.01320  0.75800  Biso   1.000  C
  C6       1.0000 0.82300  0.98680  0.24200  Biso   1.000  C
  H3       1.0000 0.09380  0.96060  0.69210  Biso   1.000  H
  H4       1.0000 0.90620  0.03940  0.30790  Biso   1.000  H
  C7       1.0000 0.66900  0.11180  0.95450  Biso   1.000  C
  C8       1.0000 0.33100  0.88820  0.04550  Biso   1.000  C
  H5       1.0000 0.64870  0.12030  0.01970  Biso   1.000  H
  H6       1.0000 0.35130  0.87970  0.98030  Biso   1.000  H
  C9       1.0000 0.29980  0.17320  0.94370  Biso   1.000  C
  C10      1.0000 0.70020  0.82680  0.05630  Biso   1.000  C
  H7       1.0000 0.30170  0.23230  0.00650  Biso   1.000  H
  H8       1.0000 0.69830  0.76770  0.99350  Biso   1.000  H
  C11      1.0000 0.79930  0.11760  0.95460  Biso   1.000  C
  C12      1.0000 0.20070  0.88240  0.04540  Biso   1.000  C
  H9       1.0000 0.86520  0.13020  0.02070  Biso   1.000  H
  H10      1.0000 0.13480  0.86980  0.97930  Biso   1.000  H
  C13      1.0000 0.30500  0.01140  0.76050  Biso   1.000  C
  C14      1.0000 0.69500  0.98860  0.23950  Biso   1.000  C
  H11      1.0000 0.30450  0.95500  0.69670  Biso   1.000  H
  H12      1.0000 0.69550  0.04500  0.30330  Biso   1.000  H
  C15      1.0000 0.60680  0.08310  0.76380  Biso   1.000  C
  C16      1.0000 0.39320  0.91690  0.23620  Biso   1.000  C
  H13      1.0000 0.54380  0.07340  0.69760  Biso   1.000  H
  H14      1.0000 0.45620  0.92660  0.30240  Biso   1.000  H
  C17      1.0000 0.56810  0.09290  0.85570  Biso   1.000  C
  C18      1.0000 0.43190  0.90710  0.14430  Biso   1.000  C
  C19      1.0000 0.73560  0.08690  0.76580  Biso   1.000  C
  C20      1.0000 0.26440  0.91310  0.23420  Biso   1.000  C
  H15      1.0000 0.75610  0.07670  0.70060  Biso   1.000  H
  H16      1.0000 0.24390  0.92330  0.29940  Biso   1.000  H
