data_image0
_cell_length_a       27.2773
_cell_length_b       3.7627
_cell_length_c       21.8196
_cell_angle_alpha    90
_cell_angle_beta     122.034
_cell_angle_gamma    90

_symmetry_space_group_name_H-M    "P 1"
_symmetry_int_tables_number       1

loop_
  _symmetry_equiv_pos_as_xyz
  'x, y, z'

loop_
  _atom_site_label
  _atom_site_occupancy
  _atom_site_fract_x
  _atom_site_fract_y
  _atom_site_fract_z
  _atom_site_thermal_displace_type
  _atom_site_B_iso_or_equiv
  _atom_site_type_symbol
  Mo1      1.0000 0.66513  0.07500  0.10865  Biso   1.000  Mo
  Mo2      1.0000 0.33487  0.07500  0.39135  Biso   1.000  Mo
  Mo3      1.0000 0.16513  0.57500  0.10865  Biso   1.000  Mo
  Mo4      1.0000 0.83487  0.57500  0.39135  Biso   1.000  Mo
  Mo5      1.0000 0.33487  0.92500  0.89135  Biso   1.000  Mo
  Mo6      1.0000 0.66513  0.92500  0.60865  Biso   1.000  Mo
  Mo7      1.0000 0.83487  0.42500  0.89135  Biso   1.000  Mo
  Mo8      1.0000 0.16513  0.42500  0.60865  Biso   1.000  Mo
  Mo9      1.0000 0.77980  0.57290  0.20688  Biso   1.000  Mo
  Mo10     1.0000 0.22020  0.57290  0.29312  Biso   1.000  Mo
  Mo11     1.0000 0.27980  0.07290  0.20688  Biso   1.000  Mo
  Mo12     1.0000 0.72020  0.07290  0.29312  Biso   1.000  Mo
  Mo13     1.0000 0.22020  0.42710  0.79312  Biso   1.000  Mo
  Mo14     1.0000 0.77980  0.42710  0.70688  Biso   1.000  Mo
  Mo15     1.0000 0.72020  0.92710  0.79312  Biso   1.000  Mo
  Mo16     1.0000 0.27980  0.92710  0.70688  Biso   1.000  Mo
  Cu1      1.0000 0.50000  0.50000  0.00000  Biso   1.000  Cu
  Cu2      1.0000 0.50000  0.50000  0.50000  Biso   1.000  Cu
  Cu3      1.0000 0.00000  0.00000  0.00000  Biso   1.000  Cu
  Cu4      1.0000 0.00000  0.00000  0.50000  Biso   1.000  Cu
  O1       1.0000 0.75460  0.07800  0.20030  Biso   1.000  O
  O2       1.0000 0.24540  0.07800  0.29970  Biso   1.000  O
  O3       1.0000 0.25460  0.57800  0.20030  Biso   1.000  O
  O4       1.0000 0.74540  0.57800  0.29970  Biso   1.000  O
  O5       1.0000 0.24540  0.92200  0.79970  Biso   1.000  O
  O6       1.0000 0.75460  0.92200  0.70030  Biso   1.000  O
  O7       1.0000 0.74540  0.42200  0.79970  Biso   1.000  O
  O8       1.0000 0.25460  0.42200  0.70030  Biso   1.000  O
  O9       1.0000 0.67980  0.07600  0.04130  Biso   1.000  O
  O10      1.0000 0.32020  0.07600  0.45870  Biso   1.000  O
  O11      1.0000 0.17980  0.57600  0.04130  Biso   1.000  O
  O12      1.0000 0.82020  0.57600  0.45870  Biso   1.000  O
  O13      1.0000 0.32020  0.92400  0.95870  Biso   1.000  O
  O14      1.0000 0.67980  0.92400  0.54130  Biso   1.000  O
  O15      1.0000 0.82020  0.42400  0.95870  Biso   1.000  O
  O16      1.0000 0.17980  0.42400  0.54130  Biso   1.000  O
  N1       1.0000 0.49890  0.49300  0.08630  Biso   1.000  N
  N2       1.0000 0.50110  0.49300  0.41370  Biso   1.000  N
  N3       1.0000 0.99890  0.99300  0.08630  Biso   1.000  N
  N4       1.0000 0.00110  0.99300  0.41370  Biso   1.000  N
  N5       1.0000 0.50110  0.50700  0.91370  Biso   1.000  N
  N6       1.0000 0.49890  0.50700  0.58630  Biso   1.000  N
  N7       1.0000 0.00110  0.00700  0.91370  Biso   1.000  N
  N8       1.0000 0.99890  0.00700  0.58630  Biso   1.000  N
  O17      1.0000 0.66180  0.07500  0.21320  Biso   1.000  O
  O18      1.0000 0.33820  0.07500  0.28680  Biso   1.000  O
  O19      1.0000 0.16180  0.57500  0.21320  Biso   1.000  O
  O20      1.0000 0.83820  0.57500  0.28680  Biso   1.000  O
  O21      1.0000 0.33820  0.92500  0.78680  Biso   1.000  O
  O22      1.0000 0.66180  0.92500  0.71320  Biso   1.000  O
  O23      1.0000 0.83820  0.42500  0.78680  Biso   1.000  O
  O24      1.0000 0.16180  0.42500  0.71320  Biso   1.000  O
  O25      1.0000 0.80040  0.57500  0.14790  Biso   1.000  O
  O26      1.0000 0.19960  0.57500  0.35210  Biso   1.000  O
  O27      1.0000 0.30040  0.07500  0.14790  Biso   1.000  O
  O28      1.0000 0.69960  0.07500  0.35210  Biso   1.000  O
  O29      1.0000 0.19960  0.42500  0.85210  Biso   1.000  O
  O30      1.0000 0.80040  0.42500  0.64790  Biso   1.000  O
  O31      1.0000 0.69960  0.92500  0.85210  Biso   1.000  O
  O32      1.0000 0.30040  0.92500  0.64790  Biso   1.000  O
  O33      1.0000 0.68090  0.57500  0.13380  Biso   1.000  O
  O34      1.0000 0.31910  0.57500  0.36620  Biso   1.000  O
  O35      1.0000 0.18090  0.07500  0.13380  Biso   1.000  O
  O36      1.0000 0.81910  0.07500  0.36620  Biso   1.000  O
  O37      1.0000 0.31910  0.42500  0.86620  Biso   1.000  O
  O38      1.0000 0.68090  0.42500  0.63380  Biso   1.000  O
  O39      1.0000 0.81910  0.92500  0.86620  Biso   1.000  O
  O40      1.0000 0.18090  0.92500  0.63380  Biso   1.000  O
  O41      1.0000 0.59230  0.07000  0.06290  Biso   1.000  O
  O42      1.0000 0.40770  0.07000  0.43710  Biso   1.000  O
  O43      1.0000 0.09230  0.57000  0.06290  Biso   1.000  O
  O44      1.0000 0.90770  0.57000  0.43710  Biso   1.000  O
  O45      1.0000 0.40770  0.93000  0.93710  Biso   1.000  O
  O46      1.0000 0.59230  0.93000  0.56290  Biso   1.000  O
  O47      1.0000 0.90770  0.43000  0.93710  Biso   1.000  O
  O48      1.0000 0.09230  0.43000  0.56290  Biso   1.000  O
  C1       1.0000 0.50010  0.47700  0.21710  Biso   1.000  C
  C2       1.0000 0.49990  0.47700  0.28290  Biso   1.000  C
  C3       1.0000 0.00010  0.97700  0.21710  Biso   1.000  C
  C4       1.0000 0.99990  0.97700  0.28290  Biso   1.000  C
  C5       1.0000 0.49990  0.52300  0.78290  Biso   1.000  C
  C6       1.0000 0.50010  0.52300  0.71710  Biso   1.000  C
  C7       1.0000 0.99990  0.02300  0.78290  Biso   1.000  C
  C8       1.0000 0.00010  0.02300  0.71710  Biso   1.000  C
  C9       1.0000 0.54870  0.57500  0.21460  Biso   1.000  C
  C10      1.0000 0.45130  0.57500  0.28540  Biso   1.000  C
  C11      1.0000 0.04870  0.07500  0.21460  Biso   1.000  C
  C12      1.0000 0.95130  0.07500  0.28540  Biso   1.000  C
  C13      1.0000 0.45130  0.42500  0.78540  Biso   1.000  C
  C14      1.0000 0.54870  0.42500  0.71460  Biso   1.000  C
  C15      1.0000 0.95130  0.92500  0.78540  Biso   1.000  C
  C16      1.0000 0.04870  0.92500  0.71460  Biso   1.000  C
  H1       1.0000 0.58290  0.63840  0.25690  Biso   1.000  H
  H2       1.0000 0.41710  0.63840  0.24310  Biso   1.000  H
  H3       1.0000 0.08290  0.13840  0.25690  Biso   1.000  H
  H4       1.0000 0.91710  0.13840  0.24310  Biso   1.000  H
  H5       1.0000 0.41710  0.36160  0.74310  Biso   1.000  H
  H6       1.0000 0.58290  0.36160  0.75690  Biso   1.000  H
  H7       1.0000 0.91710  0.86160  0.74310  Biso   1.000  H
  H8       1.0000 0.08290  0.86160  0.75690  Biso   1.000  H
  C17      1.0000 0.45020  0.38600  0.14970  Biso   1.000  C
  C18      1.0000 0.54980  0.38600  0.35030  Biso   1.000  C
  C19      1.0000 0.95020  0.88600  0.14970  Biso   1.000  C
  C20      1.0000 0.04980  0.88600  0.35030  Biso   1.000  C
  C21      1.0000 0.54980  0.61400  0.85030  Biso   1.000  C
  C22      1.0000 0.45020  0.61400  0.64970  Biso   1.000  C
  C23      1.0000 0.04980  0.11400  0.85030  Biso   1.000  C
  C24      1.0000 0.95020  0.11400  0.64970  Biso   1.000  C
  H9       1.0000 0.41650  0.31960  0.14740  Biso   1.000  H
  H10      1.0000 0.58350  0.31960  0.35260  Biso   1.000  H
  H11      1.0000 0.91650  0.81960  0.14740  Biso   1.000  H
  H12      1.0000 0.08350  0.81960  0.35260  Biso   1.000  H
  H13      1.0000 0.58350  0.68040  0.85260  Biso   1.000  H
  H14      1.0000 0.41650  0.68040  0.64740  Biso   1.000  H
  H15      1.0000 0.08350  0.18040  0.85260  Biso   1.000  H
  H16      1.0000 0.91650  0.18040  0.64740  Biso   1.000  H
  C25      1.0000 0.54590  0.57700  0.15030  Biso   1.000  C
  C26      1.0000 0.45410  0.57700  0.34970  Biso   1.000  C
  C27      1.0000 0.04590  0.07700  0.15030  Biso   1.000  C
  C28      1.0000 0.95410  0.07700  0.34970  Biso   1.000  C
  C29      1.0000 0.45410  0.42300  0.84970  Biso   1.000  C
  C30      1.0000 0.54590  0.42300  0.65030  Biso   1.000  C
  C31      1.0000 0.95410  0.92300  0.84970  Biso   1.000  C
  C32      1.0000 0.04590  0.92300  0.65030  Biso   1.000  C
  H17      1.0000 0.57910  0.64190  0.15090  Biso   1.000  H
  H18      1.0000 0.42090  0.64190  0.34910  Biso   1.000  H
  H19      1.0000 0.07910  0.14190  0.15090  Biso   1.000  H
  H20      1.0000 0.92090  0.14190  0.34910  Biso   1.000  H
  H21      1.0000 0.42090  0.35810  0.84910  Biso   1.000  H
  H22      1.0000 0.57910  0.35810  0.65090  Biso   1.000  H
  H23      1.0000 0.92090  0.85810  0.84910  Biso   1.000  H
  H24      1.0000 0.07910  0.85810  0.65090  Biso   1.000  H
  C33      1.0000 0.45170  0.39700  0.08790  Biso   1.000  C
  C34      1.0000 0.54830  0.39700  0.41210  Biso   1.000  C
  C35      1.0000 0.95170  0.89700  0.08790  Biso   1.000  C
  C36      1.0000 0.04830  0.89700  0.41210  Biso   1.000  C
  C37      1.0000 0.54830  0.60300  0.91210  Biso   1.000  C
  C38      1.0000 0.45170  0.60300  0.58790  Biso   1.000  C
  C39      1.0000 0.04830  0.10300  0.91210  Biso   1.000  C
  C40      1.0000 0.95170  0.10300  0.58790  Biso   1.000  C
  H25      1.0000 0.41830  0.33470  0.04460  Biso   1.000  H
  H26      1.0000 0.58170  0.33470  0.45540  Biso   1.000  H
  H27      1.0000 0.91830  0.83470  0.04460  Biso   1.000  H
  H28      1.0000 0.08170  0.83470  0.45540  Biso   1.000  H
  H29      1.0000 0.58170  0.66530  0.95540  Biso   1.000  H
  H30      1.0000 0.41830  0.66530  0.54460  Biso   1.000  H
  H31      1.0000 0.08170  0.16530  0.95540  Biso   1.000  H
  H32      1.0000 0.91830  0.16530  0.54460  Biso   1.000  H
  O49      1.0000 0.83300  0.10000  0.10200  Biso   1.000  O
  O50      1.0000 0.16700  0.10000  0.39800  Biso   1.000  O
  O51      1.0000 0.33300  0.60000  0.10200  Biso   1.000  O
  O52      1.0000 0.66700  0.60000  0.39800  Biso   1.000  O
  O53      1.0000 0.16700  0.90000  0.89800  Biso   1.000  O
  O54      1.0000 0.83300  0.90000  0.60200  Biso   1.000  O
  O55      1.0000 0.66700  0.40000  0.89800  Biso   1.000  O
  O56      1.0000 0.33300  0.40000  0.60200  Biso   1.000  O
