data_image0
_cell_length_a       11.108
_cell_length_b       8.886
_cell_length_c       15.397
_cell_angle_alpha    90
_cell_angle_beta     90
_cell_angle_gamma    90

_symmetry_space_group_name_H-M    "P 1"
_symmetry_int_tables_number       1

loop_
  _symmetry_equiv_pos_as_xyz
  'x, y, z'

loop_
  _atom_site_label
  _atom_site_occupancy
  _atom_site_fract_x
  _atom_site_fract_y
  _atom_site_fract_z
  _atom_site_thermal_displace_type
  _atom_site_B_iso_or_equiv
  _atom_site_type_symbol
  Cu1      1.0000 0.42003  0.83253  0.16707  Biso   1.000  Cu
  Cu2      1.0000 0.92003  0.83253  0.83293  Biso   1.000  Cu
  Cu3      1.0000 0.42003  0.16747  0.66707  Biso   1.000  Cu
  Cu4      1.0000 0.07997  0.83253  0.66707  Biso   1.000  Cu
  Cu5      1.0000 0.57997  0.16747  0.83293  Biso   1.000  Cu
  Cu6      1.0000 0.07997  0.16747  0.16707  Biso   1.000  Cu
  Cu7      1.0000 0.57997  0.83253  0.33293  Biso   1.000  Cu
  Cu8      1.0000 0.92003  0.16747  0.33293  Biso   1.000  Cu
  Cu9      1.0000 0.75000  0.50000  0.08608  Biso   1.000  Cu
  Cu10     1.0000 0.25000  0.50000  0.91392  Biso   1.000  Cu
  Cu11     1.0000 0.75000  0.50000  0.58608  Biso   1.000  Cu
  Cu12     1.0000 0.25000  0.50000  0.41392  Biso   1.000  Cu
  Cu13     1.0000 0.84738  0.34159  0.71866  Biso   1.000  Cu
  Cu14     1.0000 0.34738  0.34159  0.28134  Biso   1.000  Cu
  Cu15     1.0000 0.84738  0.65841  0.21866  Biso   1.000  Cu
  Cu16     1.0000 0.65262  0.34159  0.21866  Biso   1.000  Cu
  Cu17     1.0000 0.15262  0.65841  0.28134  Biso   1.000  Cu
  Cu18     1.0000 0.65262  0.65841  0.71866  Biso   1.000  Cu
  Cu19     1.0000 0.15262  0.34159  0.78134  Biso   1.000  Cu
  Cu20     1.0000 0.34738  0.65841  0.78134  Biso   1.000  Cu
  Cu21     1.0000 0.00000  0.00000  0.50000  Biso   1.000  Cu
  Cu22     1.0000 0.50000  0.00000  0.50000  Biso   1.000  Cu
  Cu23     1.0000 0.00000  0.00000  0.00000  Biso   1.000  Cu
  Cu24     1.0000 0.50000  0.00000  0.00000  Biso   1.000  Cu
  N1       1.0000 0.75000  0.50000  0.95665  Biso   1.000  N
  N2       1.0000 0.25000  0.50000  0.04335  Biso   1.000  N
  N3       1.0000 0.75000  0.50000  0.45665  Biso   1.000  N
  N4       1.0000 0.25000  0.50000  0.54335  Biso   1.000  N
  N5       1.0000 0.79048  0.44070  0.81930  Biso   1.000  N
  N6       1.0000 0.29048  0.44070  0.18070  Biso   1.000  N
  N7       1.0000 0.79048  0.55930  0.31930  Biso   1.000  N
  N8       1.0000 0.70952  0.44070  0.31930  Biso   1.000  N
  N9       1.0000 0.20952  0.55930  0.18070  Biso   1.000  N
  N10      1.0000 0.70952  0.55930  0.81930  Biso   1.000  N
  N11      1.0000 0.20952  0.44070  0.68070  Biso   1.000  N
  N12      1.0000 0.29048  0.55930  0.68070  Biso   1.000  N
  C1       1.0000 0.29090  0.96000  0.17877  Biso   1.000  C
  C2       1.0000 0.79090  0.96000  0.82123  Biso   1.000  C
  C3       1.0000 0.29090  0.04000  0.67877  Biso   1.000  C
  C4       1.0000 0.20910  0.96000  0.67877  Biso   1.000  C
  C5       1.0000 0.70910  0.04000  0.82123  Biso   1.000  C
  C6       1.0000 0.20910  0.04000  0.17877  Biso   1.000  C
  C7       1.0000 0.70910  0.96000  0.32123  Biso   1.000  C
  C8       1.0000 0.79090  0.04000  0.32123  Biso   1.000  C
  N13      1.0000 0.54492  0.70430  0.14451  Biso   1.000  N
  N14      1.0000 0.04492  0.70430  0.85549  Biso   1.000  N
  N15      1.0000 0.54492  0.29570  0.64451  Biso   1.000  N
  N16      1.0000 0.95508  0.70430  0.64451  Biso   1.000  N
  N17      1.0000 0.45508  0.29570  0.85549  Biso   1.000  N
  N18      1.0000 0.95508  0.29570  0.14451  Biso   1.000  N
  N19      1.0000 0.45508  0.70430  0.35549  Biso   1.000  N
  N20      1.0000 0.04492  0.29570  0.35549  Biso   1.000  N
  C9       1.0000 0.62330  0.62390  0.12624  Biso   1.000  C
  C10      1.0000 0.12330  0.62390  0.87376  Biso   1.000  C
  C11      1.0000 0.62330  0.37610  0.62624  Biso   1.000  C
  C12      1.0000 0.87670  0.62390  0.62624  Biso   1.000  C
  C13      1.0000 0.37670  0.37610  0.87376  Biso   1.000  C
  C14      1.0000 0.87670  0.37610  0.12624  Biso   1.000  C
  C15      1.0000 0.37670  0.62390  0.37376  Biso   1.000  C
  C16      1.0000 0.12330  0.37610  0.37376  Biso   1.000  C
  N21      1.0000 0.90950  0.21250  0.63545  Biso   1.000  N
  N22      1.0000 0.40950  0.21250  0.36455  Biso   1.000  N
  N23      1.0000 0.90950  0.78750  0.13545  Biso   1.000  N
  N24      1.0000 0.59050  0.21250  0.13545  Biso   1.000  N
  N25      1.0000 0.09050  0.78750  0.36455  Biso   1.000  N
  N26      1.0000 0.59050  0.78750  0.63545  Biso   1.000  N
  N27      1.0000 0.09050  0.21250  0.86455  Biso   1.000  N
  N28      1.0000 0.40950  0.78750  0.86455  Biso   1.000  N
  C17      1.0000 0.94440  0.13170  0.58264  Biso   1.000  C
  C18      1.0000 0.44440  0.13170  0.41736  Biso   1.000  C
  C19      1.0000 0.94440  0.86830  0.08264  Biso   1.000  C
  C20      1.0000 0.55560  0.13170  0.08264  Biso   1.000  C
  C21      1.0000 0.05560  0.86830  0.41736  Biso   1.000  C
  C22      1.0000 0.55560  0.86830  0.58264  Biso   1.000  C
  C23      1.0000 0.05560  0.13170  0.91736  Biso   1.000  C
  C24      1.0000 0.44440  0.86830  0.91736  Biso   1.000  C
  C25      1.0000 0.81180  0.41010  0.90237  Biso   1.000  C
  C26      1.0000 0.31180  0.41010  0.09763  Biso   1.000  C
  C27      1.0000 0.81180  0.58990  0.40237  Biso   1.000  C
  C28      1.0000 0.68820  0.41010  0.40237  Biso   1.000  C
  C29      1.0000 0.18820  0.58990  0.09763  Biso   1.000  C
  C30      1.0000 0.68820  0.58990  0.90237  Biso   1.000  C
  C31      1.0000 0.18820  0.41010  0.59763  Biso   1.000  C
  C32      1.0000 0.31180  0.58990  0.59763  Biso   1.000  C
  H1       1.0000 0.86380  0.33470  0.92100  Biso   1.000  H
  H2       1.0000 0.36380  0.33470  0.07900  Biso   1.000  H
  H3       1.0000 0.86380  0.66530  0.42100  Biso   1.000  H
  H4       1.0000 0.63620  0.33470  0.42100  Biso   1.000  H
  H5       1.0000 0.13620  0.66530  0.07900  Biso   1.000  H
  H6       1.0000 0.63620  0.66530  0.92100  Biso   1.000  H
  H7       1.0000 0.13620  0.33470  0.57900  Biso   1.000  H
  H8       1.0000 0.36380  0.66530  0.57900  Biso   1.000  H
