data_image0
_cell_length_a       9.7582
_cell_length_b       17.1622
_cell_length_c       9.901
_cell_angle_alpha    90
_cell_angle_beta     106.869
_cell_angle_gamma    90

_symmetry_space_group_name_H-M    "P 1"
_symmetry_int_tables_number       1

loop_
  _symmetry_equiv_pos_as_xyz
  'x, y, z'

loop_
  _atom_site_label
  _atom_site_occupancy
  _atom_site_fract_x
  _atom_site_fract_y
  _atom_site_fract_z
  _atom_site_thermal_displace_type
  _atom_site_B_iso_or_equiv
  _atom_site_type_symbol
  Cu1      1.0000 0.37686  0.08215  0.98399  Biso   1.000  Cu
  Cu2      1.0000 0.37686  0.41785  0.48399  Biso   1.000  Cu
  Cu3      1.0000 0.62314  0.91785  0.01601  Biso   1.000  Cu
  Cu4      1.0000 0.62314  0.58215  0.51601  Biso   1.000  Cu
  Cu5      1.0000 0.92431  0.21776  0.93701  Biso   1.000  Cu
  Cu6      1.0000 0.92431  0.28224  0.43701  Biso   1.000  Cu
  Cu7      1.0000 0.07569  0.78224  0.06299  Biso   1.000  Cu
  Cu8      1.0000 0.07569  0.71776  0.56299  Biso   1.000  Cu
  Cu9      1.0000 0.55710  0.42148  0.81701  Biso   1.000  Cu
  Cu10     1.0000 0.55710  0.07852  0.31701  Biso   1.000  Cu
  Cu11     1.0000 0.44290  0.57852  0.18299  Biso   1.000  Cu
  Cu12     1.0000 0.44290  0.92148  0.68299  Biso   1.000  Cu
  N1       1.0000 0.58040  0.09442  0.00670  Biso   1.000  N
  N2       1.0000 0.58040  0.40558  0.50670  Biso   1.000  N
  N3       1.0000 0.41960  0.90558  0.99330  Biso   1.000  N
  N4       1.0000 0.41960  0.59442  0.49330  Biso   1.000  N
  N5       1.0000 0.67568  0.03226  0.02253  Biso   1.000  N
  N6       1.0000 0.67568  0.46774  0.52253  Biso   1.000  N
  N7       1.0000 0.32432  0.96774  0.97747  Biso   1.000  N
  N8       1.0000 0.32432  0.53226  0.47747  Biso   1.000  N
  N9       1.0000 0.79110  0.14181  0.99700  Biso   1.000  N
  N10      1.0000 0.79110  0.35819  0.49700  Biso   1.000  N
  N11      1.0000 0.20890  0.85819  0.00300  Biso   1.000  N
  N12      1.0000 0.20890  0.64181  0.50300  Biso   1.000  N
  N13      1.0000 0.35110  0.43949  0.81335  Biso   1.000  N
  N14      1.0000 0.35110  0.06051  0.31335  Biso   1.000  N
  N15      1.0000 0.64890  0.56051  0.18665  Biso   1.000  N
  N16      1.0000 0.64890  0.93949  0.68665  Biso   1.000  N
  N17      1.0000 0.55900  0.54057  0.82878  Biso   1.000  N
  N18      1.0000 0.55900  0.95943  0.32878  Biso   1.000  N
  N19      1.0000 0.44100  0.45943  0.17122  Biso   1.000  N
  N20      1.0000 0.44100  0.04057  0.67122  Biso   1.000  N
  C1       1.0000 0.80120  0.30620  0.88020  Biso   1.000  C
  C2       1.0000 0.80120  0.19380  0.38020  Biso   1.000  C
  C3       1.0000 0.19880  0.69380  0.11980  Biso   1.000  C
  C4       1.0000 0.19880  0.80620  0.61980  Biso   1.000  C
  N21      1.0000 0.70750  0.35004  0.85100  Biso   1.000  N
  N22      1.0000 0.70750  0.14996  0.35100  Biso   1.000  N
  N23      1.0000 0.29250  0.64996  0.14900  Biso   1.000  N
  N24      1.0000 0.29250  0.85004  0.64900  Biso   1.000  N
  C5       1.0000 0.10670  0.17838  0.94670  Biso   1.000  C
  C6       1.0000 0.10670  0.32162  0.44670  Biso   1.000  C
  C7       1.0000 0.89330  0.82162  0.05330  Biso   1.000  C
  C8       1.0000 0.89330  0.67838  0.55330  Biso   1.000  C
  N25      1.0000 0.21400  0.14637  0.95930  Biso   1.000  N
  N26      1.0000 0.21400  0.35363  0.45930  Biso   1.000  N
  N27      1.0000 0.78600  0.85363  0.04070  Biso   1.000  N
  N28      1.0000 0.78600  0.64637  0.54070  Biso   1.000  N
  C9       1.0000 0.65400  0.15729  0.99200  Biso   1.000  C
  C10      1.0000 0.65400  0.34271  0.49200  Biso   1.000  C
  C11      1.0000 0.34600  0.84271  0.00800  Biso   1.000  C
  C12      1.0000 0.34600  0.65729  0.50800  Biso   1.000  C
  C13      1.0000 0.79760  0.06365  0.01610  Biso   1.000  C
  C14      1.0000 0.79760  0.43635  0.51610  Biso   1.000  C
  C15      1.0000 0.20240  0.93635  0.98390  Biso   1.000  C
  C16      1.0000 0.20240  0.56365  0.48390  Biso   1.000  C
  C17      1.0000 0.25050  0.38476  0.80640  Biso   1.000  C
  C18      1.0000 0.25050  0.11524  0.30640  Biso   1.000  C
  C19      1.0000 0.74950  0.61524  0.19360  Biso   1.000  C
  C20      1.0000 0.74950  0.88476  0.69360  Biso   1.000  C
  C21      1.0000 0.11310  0.40155  0.81030  Biso   1.000  C
  C22      1.0000 0.11310  0.09845  0.31030  Biso   1.000  C
  C23      1.0000 0.88690  0.59845  0.18970  Biso   1.000  C
  C24      1.0000 0.88690  0.90155  0.68970  Biso   1.000  C
  C25      1.0000 0.07770  0.47891  0.82280  Biso   1.000  C
  C26      1.0000 0.07770  0.02109  0.32280  Biso   1.000  C
  C27      1.0000 0.92230  0.52109  0.17720  Biso   1.000  C
  C28      1.0000 0.92230  0.97891  0.67720  Biso   1.000  C
  C29      1.0000 0.18030  0.53658  0.83220  Biso   1.000  C
  C30      1.0000 0.18030  0.96342  0.33220  Biso   1.000  C
  C31      1.0000 0.81970  0.46342  0.16780  Biso   1.000  C
  C32      1.0000 0.81970  0.03658  0.66780  Biso   1.000  C
  C33      1.0000 0.31630  0.51530  0.82650  Biso   1.000  C
  C34      1.0000 0.31630  0.98470  0.32650  Biso   1.000  C
  C35      1.0000 0.68370  0.48470  0.17350  Biso   1.000  C
  C36      1.0000 0.68370  0.01530  0.67350  Biso   1.000  C
  C37      1.0000 0.43370  0.57264  0.83440  Biso   1.000  C
  C38      1.0000 0.43370  0.92736  0.33440  Biso   1.000  C
  C39      1.0000 0.56630  0.42736  0.16560  Biso   1.000  C
  C40      1.0000 0.56630  0.07264  0.66560  Biso   1.000  C
  C41      1.0000 0.41860  0.65305  0.84610  Biso   1.000  C
  C42      1.0000 0.41860  0.84695  0.34610  Biso   1.000  C
  C43      1.0000 0.58140  0.34695  0.15390  Biso   1.000  C
  C44      1.0000 0.58140  0.15305  0.65390  Biso   1.000  C
  C45      1.0000 0.53490  0.70126  0.85300  Biso   1.000  C
  C46      1.0000 0.53490  0.79874  0.35300  Biso   1.000  C
  C47      1.0000 0.46510  0.29874  0.14700  Biso   1.000  C
  C48      1.0000 0.46510  0.20126  0.64700  Biso   1.000  C
  C49      1.0000 0.66330  0.66838  0.84740  Biso   1.000  C
  C50      1.0000 0.66330  0.83162  0.34740  Biso   1.000  C
  C51      1.0000 0.33670  0.33162  0.15260  Biso   1.000  C
  C52      1.0000 0.33670  0.16838  0.65260  Biso   1.000  C
  C53      1.0000 0.67070  0.58812  0.83480  Biso   1.000  C
  C54      1.0000 0.67070  0.91188  0.33480  Biso   1.000  C
  C55      1.0000 0.32930  0.41188  0.16520  Biso   1.000  C
  C56      1.0000 0.32930  0.08812  0.66520  Biso   1.000  C
  H1       1.0000 0.61100  0.20750  0.97300  Biso   1.000  H
  H2       1.0000 0.61100  0.29250  0.47300  Biso   1.000  H
  H3       1.0000 0.38900  0.79250  0.02700  Biso   1.000  H
  H4       1.0000 0.38900  0.70750  0.52700  Biso   1.000  H
  H5       1.0000 0.74800  0.69840  0.86000  Biso   1.000  H
  H6       1.0000 0.74800  0.80160  0.36000  Biso   1.000  H
  H7       1.0000 0.25200  0.30160  0.14000  Biso   1.000  H
  H8       1.0000 0.25200  0.19840  0.64000  Biso   1.000  H
  H9       1.0000 0.32700  0.67670  0.85000  Biso   1.000  H
  H10      1.0000 0.32700  0.82330  0.35000  Biso   1.000  H
  H11      1.0000 0.67300  0.32330  0.15000  Biso   1.000  H
  H12      1.0000 0.67300  0.17670  0.65000  Biso   1.000  H
  H13      1.0000 0.75700  0.56270  0.82500  Biso   1.000  H
  H14      1.0000 0.75700  0.93730  0.32500  Biso   1.000  H
  H15      1.0000 0.24300  0.43730  0.17500  Biso   1.000  H
  H16      1.0000 0.24300  0.06270  0.67500  Biso   1.000  H
  H17      1.0000 0.15900  0.59050  0.84200  Biso   1.000  H
  H18      1.0000 0.15900  0.90950  0.34200  Biso   1.000  H
  H19      1.0000 0.84100  0.40950  0.15800  Biso   1.000  H
  H20      1.0000 0.84100  0.09050  0.65800  Biso   1.000  H
  H21      1.0000 0.52900  0.75700  0.86400  Biso   1.000  H
  H22      1.0000 0.52900  0.74300  0.36400  Biso   1.000  H
  H23      1.0000 0.47100  0.24300  0.13600  Biso   1.000  H
  H24      1.0000 0.47100  0.25700  0.63600  Biso   1.000  H
  H25      1.0000 0.04300  0.36200  0.79700  Biso   1.000  H
  H26      1.0000 0.04300  0.13800  0.29700  Biso   1.000  H
  H27      1.0000 0.95700  0.63800  0.20300  Biso   1.000  H
  H28      1.0000 0.95700  0.86200  0.70300  Biso   1.000  H
  H29      1.0000 0.88000  0.03440  0.02200  Biso   1.000  H
  H30      1.0000 0.88000  0.46560  0.52200  Biso   1.000  H
  H31      1.0000 0.12000  0.96560  0.97800  Biso   1.000  H
  H32      1.0000 0.12000  0.53440  0.47800  Biso   1.000  H
  H33      1.0000 0.99000  0.49420  0.82600  Biso   1.000  H
  H34      1.0000 0.99000  0.00580  0.32600  Biso   1.000  H
  H35      1.0000 0.01000  0.50580  0.17400  Biso   1.000  H
  H36      1.0000 0.01000  0.99420  0.67400  Biso   1.000  H
  H37      1.0000 0.27700  0.33700  0.79900  Biso   1.000  H
  H38      1.0000 0.27700  0.16300  0.29900  Biso   1.000  H
  H39      1.0000 0.72300  0.66300  0.20100  Biso   1.000  H
  H40      1.0000 0.72300  0.83700  0.70100  Biso   1.000  H
