data_image0
_cell_length_a       8.542
_cell_length_b       9.802
_cell_length_c       20.439
_cell_angle_alpha    82.468
_cell_angle_beta     83.126
_cell_angle_gamma    79.832

_symmetry_space_group_name_H-M    "P 1"
_symmetry_int_tables_number       1

loop_
  _symmetry_equiv_pos_as_xyz
  'x, y, z'

loop_
  _atom_site_label
  _atom_site_occupancy
  _atom_site_fract_x
  _atom_site_fract_y
  _atom_site_fract_z
  _atom_site_thermal_displace_type
  _atom_site_B_iso_or_equiv
  _atom_site_type_symbol
  Cu1      1.0000 0.88857  0.15004  0.45030  Biso   1.000  Cu
  Cu2      1.0000 0.11143  0.84996  0.54970  Biso   1.000  Cu
  Cu3      1.0000 0.69491  0.63737  0.37658  Biso   1.000  Cu
  Cu4      1.0000 0.30509  0.36263  0.62342  Biso   1.000  Cu
  Cu5      1.0000 0.76044  0.97636  0.14020  Biso   1.000  Cu
  Cu6      1.0000 0.23956  0.02364  0.85980  Biso   1.000  Cu
  Cu7      1.0000 0.60585  0.58710  0.05037  Biso   1.000  Cu
  Cu8      1.0000 0.39415  0.41290  0.94963  Biso   1.000  Cu
  Cu9      1.0000 0.45539  0.02194  0.22678  Biso   1.000  Cu
  Cu10     1.0000 0.54461  0.97806  0.77322  Biso   1.000  Cu
  Cu11     1.0000 0.01890  0.19839  0.28790  Biso   1.000  Cu
  Cu12     1.0000 0.98110  0.80161  0.71210  Biso   1.000  Cu
  N1       1.0000 0.19100  0.23680  0.58145  Biso   1.000  N
  N2       1.0000 0.80900  0.76320  0.41855  Biso   1.000  N
  N3       1.0000 0.03330  0.15540  0.52141  Biso   1.000  N
  N4       1.0000 0.96670  0.84460  0.47859  Biso   1.000  N
  N5       1.0000 0.88600  0.95680  0.44051  Biso   1.000  N
  N6       1.0000 0.11400  0.04320  0.55949  Biso   1.000  N
  N7       1.0000 0.30630  0.84390  0.91909  Biso   1.000  N
  N8       1.0000 0.69370  0.15610  0.08091  Biso   1.000  N
  N9       1.0000 0.44170  0.68080  0.98752  Biso   1.000  N
  N10      1.0000 0.55830  0.31920  0.01248  Biso   1.000  N
  N11      1.0000 0.63550  0.38570  0.05154  Biso   1.000  N
  N12      1.0000 0.36450  0.61430  0.94846  Biso   1.000  N
  N13      1.0000 0.31220  0.08630  0.15274  Biso   1.000  N
  N14      1.0000 0.68780  0.91370  0.84726  Biso   1.000  N
  N15      1.0000 0.45790  0.23260  0.22202  Biso   1.000  N
  N16      1.0000 0.54210  0.76740  0.77798  Biso   1.000  N
  N17      1.0000 0.02500  0.40950  0.28218  Biso   1.000  N
  N18      1.0000 0.97500  0.59050  0.71782  Biso   1.000  N
  N19      1.0000 0.18330  0.18800  0.35172  Biso   1.000  N
  N20      1.0000 0.81670  0.81200  0.64828  Biso   1.000  N
  C1       1.0000 0.79100  0.32980  0.42027  Biso   1.000  C
  C2       1.0000 0.20900  0.67020  0.57973  Biso   1.000  C
  N21      1.0000 0.74290  0.44590  0.40429  Biso   1.000  N
  N22      1.0000 0.25710  0.55410  0.59571  Biso   1.000  N
  C3       1.0000 0.56860  0.76510  0.31743  Biso   1.000  C
  C4       1.0000 0.43140  0.23490  0.68257  Biso   1.000  C
  N23      1.0000 0.52100  0.86130  0.28174  Biso   1.000  N
  N24      1.0000 0.47900  0.13870  0.71826  Biso   1.000  N
  C5       1.0000 0.68260  0.71940  0.09174  Biso   1.000  C
  C6       1.0000 0.31740  0.28060  0.90826  Biso   1.000  C
  N25      1.0000 0.71770  0.81170  0.11207  Biso   1.000  N
  N26      1.0000 0.28230  0.18830  0.88793  Biso   1.000  N
  C7       1.0000 0.86390  0.03540  0.20680  Biso   1.000  C
  C8       1.0000 0.13610  0.96460  0.79320  Biso   1.000  C
  N27      1.0000 0.92200  0.09340  0.24044  Biso   1.000  N
  N28      1.0000 0.07800  0.90660  0.75956  Biso   1.000  N
  C9       1.0000 0.08350  0.26610  0.53650  Biso   1.000  C
  C10      1.0000 0.91650  0.73390  0.46350  Biso   1.000  C
  H1       1.0000 0.04770  0.35620  0.51780  Biso   1.000  H
  H2       1.0000 0.95230  0.64380  0.48220  Biso   1.000  H
  C11      1.0000 0.79600  0.90340  0.40544  Biso   1.000  C
  C12      1.0000 0.20400  0.09660  0.59456  Biso   1.000  C
  H3       1.0000 0.73070  0.95660  0.37500  Biso   1.000  H
  H4       1.0000 0.26930  0.04340  0.62500  Biso   1.000  H
  C13      1.0000 0.40340  0.81570  0.96810  Biso   1.000  C
  C14      1.0000 0.59660  0.18430  0.03190  Biso   1.000  C
  H5       1.0000 0.44010  0.88440  0.98660  Biso   1.000  H
  H6       1.0000 0.55990  0.11560  0.01340  Biso   1.000  H
  C15      1.0000 0.71370  0.28520  0.09103  Biso   1.000  C
  C16      1.0000 0.28630  0.71480  0.90897  Biso   1.000  C
  H7       1.0000 0.77600  0.30180  0.12250  Biso   1.000  H
  H8       1.0000 0.22400  0.69820  0.87750  Biso   1.000  H
  C17      1.0000 0.24650  0.01100  0.11680  Biso   1.000  C
  C18      1.0000 0.75350  0.98900  0.88320  Biso   1.000  C
  H9       1.0000 0.26890  0.91420  0.12450  Biso   1.000  H
  H10      1.0000 0.73110  0.08580  0.87550  Biso   1.000  H
  C19      1.0000 0.14590  0.07120  0.06820  Biso   1.000  C
  C20      1.0000 0.85410  0.92880  0.93180  Biso   1.000  C
  H11      1.0000 0.10300  0.01570  0.04380  Biso   1.000  H
  H12      1.0000 0.89700  0.98430  0.95620  Biso   1.000  H
  C21      1.0000 0.11130  0.21440  0.05710  Biso   1.000  C
  C22      1.0000 0.88870  0.78560  0.94290  Biso   1.000  C
  H13      1.0000 0.04440  0.25610  0.02480  Biso   1.000  H
  H14      1.0000 0.95560  0.74390  0.97520  Biso   1.000  H
  C23      1.0000 0.17570  0.29700  0.09371  Biso   1.000  C
  C24      1.0000 0.82430  0.70300  0.90629  Biso   1.000  C
  C25      1.0000 0.14980  0.44670  0.08430  Biso   1.000  C
  C26      1.0000 0.85020  0.55330  0.91570  Biso   1.000  C
  H15      1.0000 0.08100  0.49380  0.05380  Biso   1.000  H
  H16      1.0000 0.91900  0.50620  0.94620  Biso   1.000  H
  C27      1.0000 0.22370  0.52030  0.11890  Biso   1.000  C
  C28      1.0000 0.77630  0.47970  0.88110  Biso   1.000  C
  H17      1.0000 0.20340  0.61720  0.11200  Biso   1.000  H
  H18      1.0000 0.79660  0.38280  0.88800  Biso   1.000  H
  C29      1.0000 0.33290  0.45310  0.16630  Biso   1.000  C
  C30      1.0000 0.66710  0.54690  0.83370  Biso   1.000  C
  C31      1.0000 0.41770  0.52390  0.20260  Biso   1.000  C
  C32      1.0000 0.58230  0.47610  0.79740  Biso   1.000  C
  H19      1.0000 0.40510  0.62070  0.19670  Biso   1.000  H
  H20      1.0000 0.59490  0.37930  0.80330  Biso   1.000  H
  C33      1.0000 0.51750  0.44960  0.24590  Biso   1.000  C
  C34      1.0000 0.48250  0.55040  0.75410  Biso   1.000  C
  H21      1.0000 0.57450  0.49530  0.26960  Biso   1.000  H
  H22      1.0000 0.42550  0.50470  0.73040  Biso   1.000  H
  C35      1.0000 0.53460  0.30340  0.25496  Biso   1.000  C
  C36      1.0000 0.46540  0.69660  0.74504  Biso   1.000  C
  H23      1.0000 0.60260  0.25420  0.28540  Biso   1.000  H
  H24      1.0000 0.39740  0.74580  0.71460  Biso   1.000  H
  C37      1.0000 0.35720  0.30600  0.17797  Biso   1.000  C
  C38      1.0000 0.64280  0.69400  0.82203  Biso   1.000  C
  C39      1.0000 0.27890  0.22730  0.14097  Biso   1.000  C
  C40      1.0000 0.72110  0.77270  0.85903  Biso   1.000  C
  C41      1.0000 0.94510  0.51850  0.24675  Biso   1.000  C
  C42      1.0000 0.05490  0.48150  0.75325  Biso   1.000  C
  H25      1.0000 0.87700  0.50190  0.21750  Biso   1.000  H
  H26      1.0000 0.12300  0.49810  0.78250  Biso   1.000  H
  C43      1.0000 0.95960  0.65580  0.25190  Biso   1.000  C
  C44      1.0000 0.04040  0.34420  0.74810  Biso   1.000  C
  H27      1.0000 0.90240  0.72880  0.22630  Biso   1.000  H
  H28      1.0000 0.09760  0.27120  0.77370  Biso   1.000  H
  C45      1.0000 0.05870  0.68260  0.29500  Biso   1.000  C
  C46      1.0000 0.94130  0.31740  0.70500  Biso   1.000  C
  H29      1.0000 0.06910  0.77400  0.29890  Biso   1.000  H
  H30      1.0000 0.93090  0.22600  0.70110  Biso   1.000  H
  C47      1.0000 0.14440  0.57120  0.33321  Biso   1.000  C
  C48      1.0000 0.85560  0.42880  0.66679  Biso   1.000  C
  C49      1.0000 0.25260  0.58720  0.37935  Biso   1.000  C
  C50      1.0000 0.74740  0.41280  0.62065  Biso   1.000  C
  H31      1.0000 0.26560  0.67630  0.38620  Biso   1.000  H
  H32      1.0000 0.73440  0.32370  0.61380  Biso   1.000  H
  C51      1.0000 0.33610  0.47500  0.41300  Biso   1.000  C
  C52      1.0000 0.66390  0.52500  0.58700  Biso   1.000  C
  H33      1.0000 0.40550  0.48850  0.44240  Biso   1.000  H
  H34      1.0000 0.59450  0.51150  0.55760  Biso   1.000  H
  C53      1.0000 0.31970  0.33680  0.40426  Biso   1.000  C
  C54      1.0000 0.68030  0.66320  0.59574  Biso   1.000  C
  C55      1.0000 0.40820  0.21580  0.43556  Biso   1.000  C
  C56      1.0000 0.59180  0.78420  0.56444  Biso   1.000  C
  H35      1.0000 0.48320  0.22340  0.46370  Biso   1.000  H
  H36      1.0000 0.51680  0.77660  0.53630  Biso   1.000  H
  C57      1.0000 0.38340  0.08680  0.42430  Biso   1.000  C
  C58      1.0000 0.61660  0.91320  0.57570  Biso   1.000  C
  H37      1.0000 0.44350  0.00650  0.44380  Biso   1.000  H
  H38      1.0000 0.55650  0.99350  0.55620  Biso   1.000  H
  C59      1.0000 0.26740  0.07720  0.38350  Biso   1.000  C
  C60      1.0000 0.73260  0.92280  0.61650  Biso   1.000  C
  H39      1.0000 0.24790  0.98910  0.37820  Biso   1.000  H
  H40      1.0000 0.75210  0.01090  0.62180  Biso   1.000  H
  C61      1.0000 0.21060  0.31710  0.36143  Biso   1.000  C
  C62      1.0000 0.78940  0.68290  0.63857  Biso   1.000  C
  C63      1.0000 0.12320  0.43560  0.32485  Biso   1.000  C
  C64      1.0000 0.87680  0.56440  0.67515  Biso   1.000  C
