data_image0
_cell_length_a       11.59
_cell_length_b       20.555
_cell_length_c       16.158
_cell_angle_alpha    90
_cell_angle_beta     103.865
_cell_angle_gamma    90

_symmetry_space_group_name_H-M    "P 1"
_symmetry_int_tables_number       1

loop_
  _symmetry_equiv_pos_as_xyz
  'x, y, z'

loop_
  _atom_site_label
  _atom_site_occupancy
  _atom_site_fract_x
  _atom_site_fract_y
  _atom_site_fract_z
  _atom_site_thermal_displace_type
  _atom_site_B_iso_or_equiv
  _atom_site_type_symbol
  Cu1      1.0000 0.03670  0.08795  0.51259  Biso   1.000  Cu
  Cu2      1.0000 0.03670  0.41205  0.01259  Biso   1.000  Cu
  Cu3      1.0000 0.96330  0.91205  0.48741  Biso   1.000  Cu
  Cu4      1.0000 0.96330  0.58795  0.98741  Biso   1.000  Cu
  Cu5      1.0000 0.51815  0.82393  0.16203  Biso   1.000  Cu
  Cu6      1.0000 0.51815  0.67607  0.66203  Biso   1.000  Cu
  Cu7      1.0000 0.48185  0.17607  0.83797  Biso   1.000  Cu
  Cu8      1.0000 0.48185  0.32393  0.33797  Biso   1.000  Cu
  Cu9      1.0000 0.62260  0.05386  0.20728  Biso   1.000  Cu
  Cu10     1.0000 0.62260  0.44614  0.70728  Biso   1.000  Cu
  Cu11     1.0000 0.37740  0.94614  0.79272  Biso   1.000  Cu
  Cu12     1.0000 0.37740  0.55386  0.29272  Biso   1.000  Cu
  Cu13     1.0000 0.56173  0.28995  0.15538  Biso   1.000  Cu
  Cu14     1.0000 0.56173  0.21005  0.65538  Biso   1.000  Cu
  Cu15     1.0000 0.43827  0.71005  0.84462  Biso   1.000  Cu
  Cu16     1.0000 0.43827  0.78995  0.34462  Biso   1.000  Cu
  Cu17     1.0000 0.25715  0.41558  0.96100  Biso   1.000  Cu
  Cu18     1.0000 0.25715  0.08442  0.46100  Biso   1.000  Cu
  Cu19     1.0000 0.74285  0.58442  0.03900  Biso   1.000  Cu
  Cu20     1.0000 0.74285  0.91558  0.53900  Biso   1.000  Cu
  Cu21     1.0000 0.97556  0.52534  0.73452  Biso   1.000  Cu
  Cu22     1.0000 0.97556  0.97466  0.23452  Biso   1.000  Cu
  Cu23     1.0000 0.02444  0.47466  0.26548  Biso   1.000  Cu
  Cu24     1.0000 0.02444  0.02534  0.76548  Biso   1.000  Cu
  Cu25     1.0000 0.87861  0.47521  0.38375  Biso   1.000  Cu
  Cu26     1.0000 0.87861  0.02479  0.88375  Biso   1.000  Cu
  Cu27     1.0000 0.12139  0.52479  0.61625  Biso   1.000  Cu
  Cu28     1.0000 0.12139  0.97521  0.11625  Biso   1.000  Cu
  Cu29     1.0000 0.96763  0.32342  0.47287  Biso   1.000  Cu
  Cu30     1.0000 0.96763  0.17658  0.97287  Biso   1.000  Cu
  Cu31     1.0000 0.03237  0.67658  0.52713  Biso   1.000  Cu
  Cu32     1.0000 0.03237  0.82342  0.02713  Biso   1.000  Cu
  N1       1.0000 0.80800  0.39889  0.33268  Biso   1.000  N
  N2       1.0000 0.80800  0.10111  0.83268  Biso   1.000  N
  N3       1.0000 0.19200  0.60111  0.66732  Biso   1.000  N
  N4       1.0000 0.19200  0.89889  0.16732  Biso   1.000  N
  N5       1.0000 0.84060  0.33690  0.36515  Biso   1.000  N
  N6       1.0000 0.84060  0.16310  0.86515  Biso   1.000  N
  N7       1.0000 0.15940  0.66310  0.63485  Biso   1.000  N
  N8       1.0000 0.15940  0.83690  0.13485  Biso   1.000  N
  N9       1.0000 0.69800  0.32708  0.24542  Biso   1.000  N
  N10      1.0000 0.69800  0.17292  0.74542  Biso   1.000  N
  N11      1.0000 0.30200  0.67292  0.75458  Biso   1.000  N
  N12      1.0000 0.30200  0.82708  0.25458  Biso   1.000  N
  N13      1.0000 0.10220  0.95470  0.57010  Biso   1.000  N
  N14      1.0000 0.10220  0.54530  0.07010  Biso   1.000  N
  N15      1.0000 0.89780  0.04530  0.42990  Biso   1.000  N
  N16      1.0000 0.89780  0.45470  0.92990  Biso   1.000  N
  N17      1.0000 0.24060  0.96679  0.69193  Biso   1.000  N
  N18      1.0000 0.24060  0.53321  0.19193  Biso   1.000  N
  N19      1.0000 0.75940  0.03321  0.30807  Biso   1.000  N
  N20      1.0000 0.75940  0.46679  0.80807  Biso   1.000  N
  N21      1.0000 0.12910  0.02023  0.58131  Biso   1.000  N
  N22      1.0000 0.12910  0.47977  0.08131  Biso   1.000  N
  N23      1.0000 0.87090  0.97977  0.41869  Biso   1.000  N
  N24      1.0000 0.87090  0.52023  0.91869  Biso   1.000  N
  N25      1.0000 0.59840  0.74206  0.22122  Biso   1.000  N
  N26      1.0000 0.59840  0.75794  0.72122  Biso   1.000  N
  N27      1.0000 0.40160  0.25794  0.77878  Biso   1.000  N
  N28      1.0000 0.40160  0.24206  0.27878  Biso   1.000  N
  N29      1.0000 0.42240  0.75613  0.08123  Biso   1.000  N
  N30      1.0000 0.42240  0.74387  0.58123  Biso   1.000  N
  N31      1.0000 0.57760  0.24387  0.91877  Biso   1.000  N
  N32      1.0000 0.57760  0.25613  0.41877  Biso   1.000  N
  N33      1.0000 0.83850  0.52614  0.63090  Biso   1.000  N
  N34      1.0000 0.83850  0.97386  0.13090  Biso   1.000  N
  N35      1.0000 0.16150  0.47386  0.36910  Biso   1.000  N
  N36      1.0000 0.16150  0.02614  0.86910  Biso   1.000  N
  N37      1.0000 0.94310  0.62499  0.72929  Biso   1.000  N
  N38      1.0000 0.94310  0.87501  0.22929  Biso   1.000  N
  N39      1.0000 0.05690  0.37501  0.27071  Biso   1.000  N
  N40      1.0000 0.05690  0.12499  0.77071  Biso   1.000  N
  C1       1.0000 0.00370  0.23363  0.49437  Biso   1.000  C
  C2       1.0000 0.00370  0.26637  0.99437  Biso   1.000  C
  C3       1.0000 0.99630  0.76637  0.50563  Biso   1.000  C
  C4       1.0000 0.99630  0.73363  0.00563  Biso   1.000  C
  N41      1.0000 0.02450  0.17835  0.50412  Biso   1.000  N
  N42      1.0000 0.02450  0.32165  0.00412  Biso   1.000  N
  N43      1.0000 0.97550  0.82165  0.49588  Biso   1.000  N
  N44      1.0000 0.97550  0.67835  0.99588  Biso   1.000  N
  C5       1.0000 0.53520  0.91354  0.17437  Biso   1.000  C
  C6       1.0000 0.53520  0.58646  0.67437  Biso   1.000  C
  C7       1.0000 0.46480  0.08646  0.82563  Biso   1.000  C
  C8       1.0000 0.46480  0.41354  0.32563  Biso   1.000  C
  N45      1.0000 0.55220  0.96903  0.18270  Biso   1.000  N
  N46      1.0000 0.55220  0.53097  0.68270  Biso   1.000  N
  N47      1.0000 0.44780  0.03097  0.81730  Biso   1.000  N
  N48      1.0000 0.44780  0.46903  0.31730  Biso   1.000  N
  C9       1.0000 0.60190  0.14161  0.17541  Biso   1.000  C
  C10      1.0000 0.60190  0.35839  0.67541  Biso   1.000  C
  C11      1.0000 0.39810  0.85839  0.82459  Biso   1.000  C
  C12      1.0000 0.39810  0.64161  0.32459  Biso   1.000  C
  N49      1.0000 0.58910  0.19704  0.16289  Biso   1.000  N
  N50      1.0000 0.58910  0.30296  0.66289  Biso   1.000  N
  N51      1.0000 0.41090  0.80296  0.83711  Biso   1.000  N
  N52      1.0000 0.41090  0.69704  0.33711  Biso   1.000  N
  C13      1.0000 0.44230  0.34225  0.08796  Biso   1.000  C
  C14      1.0000 0.44230  0.15775  0.58796  Biso   1.000  C
  C15      1.0000 0.55770  0.65775  0.91204  Biso   1.000  C
  C16      1.0000 0.55770  0.84225  0.41204  Biso   1.000  C
  N53      1.0000 0.36930  0.37302  0.04293  Biso   1.000  N
  N54      1.0000 0.36930  0.12698  0.54293  Biso   1.000  N
  N55      1.0000 0.63070  0.62698  0.95707  Biso   1.000  N
  N56      1.0000 0.63070  0.87302  0.45707  Biso   1.000  N
  C17      1.0000 0.15920  0.45592  0.86891  Biso   1.000  C
  C18      1.0000 0.15920  0.04408  0.36891  Biso   1.000  C
  C19      1.0000 0.84080  0.54408  0.13109  Biso   1.000  C
  C20      1.0000 0.84080  0.95592  0.63109  Biso   1.000  C
  N57      1.0000 0.09020  0.48075  0.81468  Biso   1.000  N
  N58      1.0000 0.09020  0.01925  0.31468  Biso   1.000  N
  N59      1.0000 0.90980  0.51925  0.18532  Biso   1.000  N
  N60      1.0000 0.90980  0.98075  0.68532  Biso   1.000  N
  C21      1.0000 0.93470  0.55404  0.43074  Biso   1.000  C
  C22      1.0000 0.93470  0.94596  0.93074  Biso   1.000  C
  C23      1.0000 0.06530  0.44596  0.56926  Biso   1.000  C
  C24      1.0000 0.06530  0.05404  0.06926  Biso   1.000  C
  N61      1.0000 0.97330  0.60080  0.46595  Biso   1.000  N
  N62      1.0000 0.97330  0.89920  0.96595  Biso   1.000  N
  N63      1.0000 0.02670  0.39920  0.53405  Biso   1.000  N
  N64      1.0000 0.02670  0.10080  0.03405  Biso   1.000  N
  C25      1.0000 0.72390  0.39023  0.26225  Biso   1.000  C
  C26      1.0000 0.72390  0.10977  0.76225  Biso   1.000  C
  C27      1.0000 0.27610  0.60977  0.73775  Biso   1.000  C
  C28      1.0000 0.27610  0.89023  0.23775  Biso   1.000  C
  H1       1.0000 0.68660  0.42420  0.22800  Biso   1.000  H
  H2       1.0000 0.68660  0.07580  0.72800  Biso   1.000  H
  H3       1.0000 0.31340  0.57580  0.77200  Biso   1.000  H
  H4       1.0000 0.31340  0.92420  0.27200  Biso   1.000  H
  C29      1.0000 0.77330  0.29672  0.31096  Biso   1.000  C
  C30      1.0000 0.77330  0.20328  0.81096  Biso   1.000  C
  C31      1.0000 0.22670  0.70328  0.68904  Biso   1.000  C
  C32      1.0000 0.22670  0.79672  0.18904  Biso   1.000  C
  H5       1.0000 0.77700  0.25170  0.31710  Biso   1.000  H
  H6       1.0000 0.77700  0.24830  0.81710  Biso   1.000  H
  H7       1.0000 0.22300  0.74830  0.68290  Biso   1.000  H
  H8       1.0000 0.22300  0.75170  0.18290  Biso   1.000  H
  C33      1.0000 0.17090  0.92571  0.63724  Biso   1.000  C
  C34      1.0000 0.17090  0.57429  0.13724  Biso   1.000  C
  C35      1.0000 0.82910  0.07429  0.36276  Biso   1.000  C
  C36      1.0000 0.82910  0.42571  0.86276  Biso   1.000  C
  H9       1.0000 0.17090  0.88100  0.64580  Biso   1.000  H
  H10      1.0000 0.17090  0.61900  0.14580  Biso   1.000  H
  H11      1.0000 0.82910  0.11900  0.35420  Biso   1.000  H
  H12      1.0000 0.82910  0.38100  0.85420  Biso   1.000  H
  C37      1.0000 0.21110  0.02472  0.65401  Biso   1.000  C
  C38      1.0000 0.21110  0.47528  0.15401  Biso   1.000  C
  C39      1.0000 0.78890  0.97528  0.34599  Biso   1.000  C
  C40      1.0000 0.78890  0.52472  0.84599  Biso   1.000  C
  H13      1.0000 0.24480  0.06390  0.67650  Biso   1.000  H
  H14      1.0000 0.24480  0.43610  0.17650  Biso   1.000  H
  H15      1.0000 0.75520  0.93610  0.32350  Biso   1.000  H
  H16      1.0000 0.75520  0.56390  0.82350  Biso   1.000  H
  C41      1.0000 0.68610  0.73634  0.29088  Biso   1.000  C
  C42      1.0000 0.68610  0.76366  0.79088  Biso   1.000  C
  C43      1.0000 0.31390  0.26366  0.70912  Biso   1.000  C
  C44      1.0000 0.31390  0.23634  0.20912  Biso   1.000  C
  H17      1.0000 0.71640  0.77380  0.32060  Biso   1.000  H
  H18      1.0000 0.71640  0.72620  0.82060  Biso   1.000  H
  H19      1.0000 0.28360  0.22620  0.67940  Biso   1.000  H
  H20      1.0000 0.28360  0.27380  0.17940  Biso   1.000  H
  C45      1.0000 0.73470  0.67555  0.32140  Biso   1.000  C
  C46      1.0000 0.73470  0.82445  0.82140  Biso   1.000  C
  C47      1.0000 0.26530  0.32445  0.67860  Biso   1.000  C
  C48      1.0000 0.26530  0.17555  0.17860  Biso   1.000  C
  H21      1.0000 0.79660  0.67310  0.37000  Biso   1.000  H
  H22      1.0000 0.79660  0.82690  0.87000  Biso   1.000  H
  H23      1.0000 0.20340  0.32690  0.63000  Biso   1.000  H
  H24      1.0000 0.20340  0.17310  0.13000  Biso   1.000  H
  C49      1.0000 0.69010  0.62068  0.27890  Biso   1.000  C
  C50      1.0000 0.69010  0.87932  0.77890  Biso   1.000  C
  C51      1.0000 0.30990  0.37932  0.72110  Biso   1.000  C
  C52      1.0000 0.30990  0.12068  0.22110  Biso   1.000  C
  H25      1.0000 0.72220  0.58040  0.29830  Biso   1.000  H
  H26      1.0000 0.72220  0.91960  0.79830  Biso   1.000  H
  H27      1.0000 0.27780  0.41960  0.70170  Biso   1.000  H
  H28      1.0000 0.27780  0.08040  0.20170  Biso   1.000  H
  C53      1.0000 0.59560  0.62423  0.20580  Biso   1.000  C
  C54      1.0000 0.59560  0.87577  0.70580  Biso   1.000  C
  C55      1.0000 0.40440  0.37577  0.79420  Biso   1.000  C
  C56      1.0000 0.40440  0.12423  0.29420  Biso   1.000  C
  C57      1.0000 0.53920  0.56882  0.15890  Biso   1.000  C
  C58      1.0000 0.53920  0.93118  0.65890  Biso   1.000  C
  C59      1.0000 0.46080  0.43118  0.84110  Biso   1.000  C
  C60      1.0000 0.46080  0.06882  0.34110  Biso   1.000  C
  H29      1.0000 0.56700  0.52730  0.17600  Biso   1.000  H
  H30      1.0000 0.56700  0.97270  0.67600  Biso   1.000  H
  H31      1.0000 0.43300  0.47270  0.82400  Biso   1.000  H
  H32      1.0000 0.43300  0.02730  0.32400  Biso   1.000  H
  C61      1.0000 0.44640  0.57560  0.09050  Biso   1.000  C
  C62      1.0000 0.44640  0.92440  0.59050  Biso   1.000  C
  C63      1.0000 0.55360  0.42440  0.90950  Biso   1.000  C
  C64      1.0000 0.55360  0.07560  0.40950  Biso   1.000  C
  H33      1.0000 0.41080  0.53880  0.06200  Biso   1.000  H
  H34      1.0000 0.41080  0.96120  0.56200  Biso   1.000  H
  H35      1.0000 0.58920  0.46120  0.93800  Biso   1.000  H
  H36      1.0000 0.58920  0.03880  0.43800  Biso   1.000  H
  C65      1.0000 0.40190  0.63913  0.06090  Biso   1.000  C
  C66      1.0000 0.40190  0.86087  0.56090  Biso   1.000  C
  C67      1.0000 0.59810  0.36087  0.93910  Biso   1.000  C
  C68      1.0000 0.59810  0.13913  0.43910  Biso   1.000  C
  C69      1.0000 0.30700  0.64958  0.98980  Biso   1.000  C
  C70      1.0000 0.30700  0.85042  0.48980  Biso   1.000  C
  C71      1.0000 0.69300  0.35042  0.01020  Biso   1.000  C
  C72      1.0000 0.69300  0.14958  0.51020  Biso   1.000  C
  H37      1.0000 0.26720  0.61450  0.95940  Biso   1.000  H
  H38      1.0000 0.26720  0.88550  0.45940  Biso   1.000  H
  H39      1.0000 0.73280  0.38550  0.04060  Biso   1.000  H
  H40      1.0000 0.73280  0.11450  0.54060  Biso   1.000  H
  C73      1.0000 0.27380  0.71194  0.96560  Biso   1.000  C
  C74      1.0000 0.27380  0.78806  0.46560  Biso   1.000  C
  C75      1.0000 0.72620  0.28806  0.03440  Biso   1.000  C
  C76      1.0000 0.72620  0.21194  0.53440  Biso   1.000  C
  H41      1.0000 0.21170  0.71960  0.91820  Biso   1.000  H
  H42      1.0000 0.21170  0.78040  0.41820  Biso   1.000  H
  H43      1.0000 0.78830  0.28040  0.08180  Biso   1.000  H
  H44      1.0000 0.78830  0.21960  0.58180  Biso   1.000  H
  C77      1.0000 0.33350  0.76388  0.01249  Biso   1.000  C
  C78      1.0000 0.33350  0.73612  0.51249  Biso   1.000  C
  C79      1.0000 0.66650  0.23612  0.98751  Biso   1.000  C
  C80      1.0000 0.66650  0.26388  0.48751  Biso   1.000  C
  H45      1.0000 0.31020  0.80600  0.99490  Biso   1.000  H
  H46      1.0000 0.31020  0.69400  0.49490  Biso   1.000  H
  H47      1.0000 0.68980  0.19400  0.00510  Biso   1.000  H
  H48      1.0000 0.68980  0.30600  0.50510  Biso   1.000  H
  C81      1.0000 0.45640  0.69397  0.10463  Biso   1.000  C
  C82      1.0000 0.45640  0.80603  0.60463  Biso   1.000  C
  C83      1.0000 0.54360  0.30603  0.89537  Biso   1.000  C
  C84      1.0000 0.54360  0.19397  0.39537  Biso   1.000  C
  C85      1.0000 0.55330  0.68668  0.17904  Biso   1.000  C
  C86      1.0000 0.55330  0.81332  0.67904  Biso   1.000  C
  C87      1.0000 0.44670  0.31332  0.82096  Biso   1.000  C
  C88      1.0000 0.44670  0.18668  0.32096  Biso   1.000  C
  C89      1.0000 0.78320  0.47624  0.58488  Biso   1.000  C
  C90      1.0000 0.78320  0.02376  0.08488  Biso   1.000  C
  C91      1.0000 0.21680  0.52376  0.41512  Biso   1.000  C
  C92      1.0000 0.21680  0.97624  0.91512  Biso   1.000  C
  H49      1.0000 0.80880  0.43420  0.60090  Biso   1.000  H
  H50      1.0000 0.80880  0.06580  0.10090  Biso   1.000  H
  H51      1.0000 0.19120  0.56580  0.39910  Biso   1.000  H
  H52      1.0000 0.19120  0.93420  0.89910  Biso   1.000  H
  C93      1.0000 0.68760  0.48471  0.51300  Biso   1.000  C
  C94      1.0000 0.68760  0.01529  0.01300  Biso   1.000  C
  C95      1.0000 0.31240  0.51529  0.48700  Biso   1.000  C
  C96      1.0000 0.31240  0.98471  0.98700  Biso   1.000  C
  H53      1.0000 0.65110  0.44880  0.48270  Biso   1.000  H
  H54      1.0000 0.65110  0.05120  0.98270  Biso   1.000  H
  H55      1.0000 0.34890  0.55120  0.51730  Biso   1.000  H
  H56      1.0000 0.34890  0.94880  0.01730  Biso   1.000  H
  C97      1.0000 0.64890  0.54657  0.48831  Biso   1.000  C
  C98      1.0000 0.64890  0.95343  0.98831  Biso   1.000  C
  C99      1.0000 0.35110  0.45343  0.51169  Biso   1.000  C
  C100     1.0000 0.35110  0.04657  0.01169  Biso   1.000  C
  H57      1.0000 0.58620  0.55270  0.44090  Biso   1.000  H
  H58      1.0000 0.58620  0.94730  0.94090  Biso   1.000  H
  H59      1.0000 0.41380  0.44730  0.55910  Biso   1.000  H
  H60      1.0000 0.41380  0.05270  0.05910  Biso   1.000  H
  C101     1.0000 0.70460  0.60053  0.53508  Biso   1.000  C
  C102     1.0000 0.70460  0.89947  0.03508  Biso   1.000  C
  C103     1.0000 0.29540  0.39947  0.46492  Biso   1.000  C
  C104     1.0000 0.29540  0.10053  0.96492  Biso   1.000  C
  C105     1.0000 0.67130  0.66673  0.51413  Biso   1.000  C
  C106     1.0000 0.67130  0.83327  0.01413  Biso   1.000  C
  C107     1.0000 0.32870  0.33327  0.48587  Biso   1.000  C
  C108     1.0000 0.32870  0.16673  0.98587  Biso   1.000  C
  H61      1.0000 0.60810  0.67550  0.46790  Biso   1.000  H
  H62      1.0000 0.60810  0.82450  0.96790  Biso   1.000  H
  H63      1.0000 0.39190  0.32450  0.53210  Biso   1.000  H
  H64      1.0000 0.39190  0.17550  0.03210  Biso   1.000  H
  C109     1.0000 0.72990  0.71663  0.56016  Biso   1.000  C
  C110     1.0000 0.72990  0.78337  0.06016  Biso   1.000  C
  C111     1.0000 0.27010  0.28337  0.43984  Biso   1.000  C
  C112     1.0000 0.27010  0.21663  0.93984  Biso   1.000  C
  H65      1.0000 0.70850  0.75920  0.54370  Biso   1.000  H
  H66      1.0000 0.70850  0.74080  0.04370  Biso   1.000  H
  H67      1.0000 0.29150  0.24080  0.45630  Biso   1.000  H
  H68      1.0000 0.29150  0.25920  0.95630  Biso   1.000  H
  C113     1.0000 0.82530  0.70502  0.63459  Biso   1.000  C
  C114     1.0000 0.82530  0.79498  0.13459  Biso   1.000  C
  C115     1.0000 0.17470  0.29498  0.36541  Biso   1.000  C
  C116     1.0000 0.17470  0.20502  0.86541  Biso   1.000  C
  C117     1.0000 0.88720  0.75492  0.68650  Biso   1.000  C
  C118     1.0000 0.88720  0.74508  0.18650  Biso   1.000  C
  C119     1.0000 0.11280  0.24508  0.31350  Biso   1.000  C
  C120     1.0000 0.11280  0.25492  0.81350  Biso   1.000  C
  H69      1.0000 0.87080  0.79830  0.67200  Biso   1.000  H
  H70      1.0000 0.87080  0.70170  0.17200  Biso   1.000  H
  H71      1.0000 0.12920  0.20170  0.32800  Biso   1.000  H
  H72      1.0000 0.12920  0.29830  0.82800  Biso   1.000  H
  C121     1.0000 0.97230  0.73883  0.75900  Biso   1.000  C
  C122     1.0000 0.97230  0.76117  0.25900  Biso   1.000  C
  C123     1.0000 0.02770  0.26117  0.24100  Biso   1.000  C
  C124     1.0000 0.02770  0.23883  0.74100  Biso   1.000  C
  H73      1.0000 0.01270  0.77120  0.79460  Biso   1.000  H
  H74      1.0000 0.01270  0.72880  0.29460  Biso   1.000  H
  H75      1.0000 0.98730  0.22880  0.20540  Biso   1.000  H
  H76      1.0000 0.98730  0.27120  0.70540  Biso   1.000  H
  C125     1.0000 0.99700  0.67315  0.77844  Biso   1.000  C
  C126     1.0000 0.99700  0.82685  0.27844  Biso   1.000  C
  C127     1.0000 0.00300  0.32685  0.22156  Biso   1.000  C
  C128     1.0000 0.00300  0.17315  0.72156  Biso   1.000  C
  H77      1.0000 0.05380  0.66280  0.82790  Biso   1.000  H
  H78      1.0000 0.05380  0.83720  0.32790  Biso   1.000  H
  H79      1.0000 0.94620  0.33720  0.17210  Biso   1.000  H
  H80      1.0000 0.94620  0.16280  0.67210  Biso   1.000  H
  C129     1.0000 0.85850  0.64060  0.65828  Biso   1.000  C
  C130     1.0000 0.85850  0.85940  0.15828  Biso   1.000  C
  C131     1.0000 0.14150  0.35940  0.34172  Biso   1.000  C
  C132     1.0000 0.14150  0.14060  0.84172  Biso   1.000  C
  C133     1.0000 0.79880  0.58722  0.60634  Biso   1.000  C
  C134     1.0000 0.79880  0.91278  0.10634  Biso   1.000  C
  C135     1.0000 0.20120  0.41278  0.39366  Biso   1.000  C
  C136     1.0000 0.20120  0.08722  0.89366  Biso   1.000  C
