data_image0
_cell_length_a       9.1183
_cell_length_b       9.9838
_cell_length_c       12.7545
_cell_angle_alpha    94.206
_cell_angle_beta     90.492
_cell_angle_gamma    112.534

_symmetry_space_group_name_H-M    "P 1"
_symmetry_int_tables_number       1

loop_
  _symmetry_equiv_pos_as_xyz
  'x, y, z'

loop_
  _atom_site_label
  _atom_site_occupancy
  _atom_site_fract_x
  _atom_site_fract_y
  _atom_site_fract_z
  _atom_site_thermal_displace_type
  _atom_site_B_iso_or_equiv
  _atom_site_type_symbol
  Cu1      1.0000 0.50000  0.00000  0.50000  Biso   1.000  Cu
  Cu2      1.0000 0.56327  0.24993  0.84802  Biso   1.000  Cu
  Cu3      1.0000 0.43673  0.75007  0.15198  Biso   1.000  Cu
  Cu4      1.0000 0.18575  0.36698  0.07679  Biso   1.000  Cu
  Cu5      1.0000 0.81425  0.63302  0.92321  Biso   1.000  Cu
  Cu6      1.0000 0.90678  0.39354  0.27217  Biso   1.000  Cu
  Cu7      1.0000 0.09322  0.60646  0.72783  Biso   1.000  Cu
  Cu8      1.0000 0.50000  0.50000  0.50000  Biso   1.000  Cu
  Cu9      1.0000 0.38654  0.20377  0.42598  Biso   1.000  Cu
  Cu10     1.0000 0.61346  0.79623  0.57402  Biso   1.000  Cu
  N1       1.0000 0.73520  0.30200  0.95890  Biso   1.000  N
  N2       1.0000 0.26480  0.69800  0.04110  Biso   1.000  N
  N3       1.0000 0.96130  0.33880  0.04520  Biso   1.000  N
  N4       1.0000 0.03870  0.66120  0.95480  Biso   1.000  N
  N5       1.0000 0.85820  0.35950  0.11740  Biso   1.000  N
  N6       1.0000 0.14180  0.64050  0.88260  Biso   1.000  N
  N7       1.0000 0.23850  0.43890  0.22810  Biso   1.000  N
  N8       1.0000 0.76150  0.56110  0.77190  Biso   1.000  N
  N9       1.0000 0.13640  0.46030  0.30070  Biso   1.000  N
  N10      1.0000 0.86360  0.53970  0.69930  Biso   1.000  N
  N11      1.0000 0.36330  0.49500  0.38550  Biso   1.000  N
  N12      1.0000 0.63670  0.50500  0.61450  Biso   1.000  N
  C1       1.0000 0.54000  0.09820  0.63150  Biso   1.000  C
  C2       1.0000 0.46000  0.90180  0.36850  Biso   1.000  C
  N13      1.0000 0.55440  0.15780  0.71360  Biso   1.000  N
  N14      1.0000 0.44560  0.84220  0.28640  Biso   1.000  N
  C3       1.0000 0.39830  0.29200  0.92110  Biso   1.000  C
  C4       1.0000 0.60170  0.70800  0.07890  Biso   1.000  C
  N15      1.0000 0.31640  0.32010  0.98000  Biso   1.000  N
  N16      1.0000 0.68360  0.67990  0.02000  Biso   1.000  N
  C5       1.0000 0.72180  0.33180  0.35180  Biso   1.000  C
  C6       1.0000 0.27820  0.66820  0.64820  Biso   1.000  C
  N17      1.0000 0.59700  0.27930  0.38590  Biso   1.000  N
  N18      1.0000 0.40300  0.72070  0.61410  Biso   1.000  N
  C7       1.0000 0.88470  0.30530  0.95360  Biso   1.000  C
  C8       1.0000 0.11530  0.69470  0.04640  Biso   1.000  C
  H1       1.0000 0.92840  0.28580  0.89150  Biso   1.000  H
  H2       1.0000 0.07160  0.71420  0.10850  Biso   1.000  H
  C9       1.0000 0.72690  0.33680  0.06180  Biso   1.000  C
  C10      1.0000 0.27310  0.66320  0.93820  Biso   1.000  C
  H3       1.0000 0.63700  0.34430  0.09110  Biso   1.000  H
  H4       1.0000 0.36300  0.65570  0.90890  Biso   1.000  H
  C11      1.0000 0.37190  0.46130  0.28190  Biso   1.000  C
  C12      1.0000 0.62810  0.53870  0.71810  Biso   1.000  C
  H5       1.0000 0.46150  0.45450  0.25160  Biso   1.000  H
  H6       1.0000 0.53850  0.54550  0.74840  Biso   1.000  H
  C13      1.0000 0.21590  0.49470  0.39280  Biso   1.000  C
  C14      1.0000 0.78410  0.50530  0.60720  Biso   1.000  C
  H7       1.0000 0.17450  0.51610  0.45530  Biso   1.000  H
  H8       1.0000 0.82550  0.48390  0.54470  Biso   1.000  H
  N19      1.0000 0.18990  0.11350  0.32260  Biso   1.000  N
  N20      1.0000 0.81010  0.88650  0.67740  Biso   1.000  N
  N21      1.0000 0.21570  0.20320  0.52490  Biso   1.000  N
  N22      1.0000 0.78430  0.79680  0.47510  Biso   1.000  N
  C15      1.0000 0.18710  0.06660  0.22170  Biso   1.000  C
  C16      1.0000 0.81290  0.93340  0.77830  Biso   1.000  C
  H9       1.0000 0.27880  0.06030  0.19450  Biso   1.000  H
  H10      1.0000 0.72120  0.93970  0.80550  Biso   1.000  H
  C17      1.0000 0.05290  0.02690  0.15570  Biso   1.000  C
  C18      1.0000 0.94710  0.97310  0.84430  Biso   1.000  C
  H11      1.0000 0.05550  0.99610  0.08540  Biso   1.000  H
  H12      1.0000 0.94450  0.00390  0.91460  Biso   1.000  H
  C19      1.0000 0.91600  0.03360  0.19540  Biso   1.000  C
  C20      1.0000 0.08400  0.96640  0.80460  Biso   1.000  C
  H13      1.0000 0.82450  0.00650  0.15260  Biso   1.000  H
  H14      1.0000 0.17550  0.99350  0.84740  Biso   1.000  H
  C21      1.0000 0.91660  0.08230  0.30190  Biso   1.000  C
  C22      1.0000 0.08340  0.91770  0.69810  Biso   1.000  C
  H15      1.0000 0.82590  0.08850  0.33080  Biso   1.000  H
  H16      1.0000 0.17410  0.91150  0.66920  Biso   1.000  H
  C23      1.0000 0.05670  0.12110  0.36310  Biso   1.000  C
  C24      1.0000 0.94330  0.87890  0.63690  Biso   1.000  C
  C25      1.0000 0.07210  0.17400  0.47680  Biso   1.000  C
  C26      1.0000 0.92790  0.82600  0.52320  Biso   1.000  C
  C27      1.0000 0.94810  0.19360  0.53060  Biso   1.000  C
  C28      1.0000 0.05190  0.80640  0.46940  Biso   1.000  C
  H17      1.0000 0.85020  0.17230  0.49660  Biso   1.000  H
  H18      1.0000 0.14980  0.82770  0.50340  Biso   1.000  H
  C29      1.0000 0.97400  0.24570  0.63630  Biso   1.000  C
  C30      1.0000 0.02600  0.75430  0.36370  Biso   1.000  C
  H19      1.0000 0.89340  0.26020  0.67370  Biso   1.000  H
  H20      1.0000 0.10660  0.73980  0.32630  Biso   1.000  H
  C31      1.0000 0.12100  0.27590  0.68530  Biso   1.000  C
  C32      1.0000 0.87900  0.72410  0.31470  Biso   1.000  C
  H21      1.0000 0.14070  0.31090  0.75570  Biso   1.000  H
  H22      1.0000 0.85930  0.68910  0.24430  Biso   1.000  H
  C33      1.0000 0.23820  0.25270  0.62670  Biso   1.000  C
  C34      1.0000 0.76180  0.74730  0.37330  Biso   1.000  C
  H23      1.0000 0.33650  0.27240  0.65960  Biso   1.000  H
  H24      1.0000 0.66350  0.72760  0.34040  Biso   1.000  H
