data_image0
_cell_length_a       25.29
_cell_length_b       8.5496
_cell_length_c       30.769
_cell_angle_alpha    90
_cell_angle_beta     127.255
_cell_angle_gamma    90

_symmetry_space_group_name_H-M    "P 1"
_symmetry_int_tables_number       1

loop_
  _symmetry_equiv_pos_as_xyz
  'x, y, z'

loop_
  _atom_site_label
  _atom_site_occupancy
  _atom_site_fract_x
  _atom_site_fract_y
  _atom_site_fract_z
  _atom_site_thermal_displace_type
  _atom_site_B_iso_or_equiv
  _atom_site_type_symbol
  Mo1      1.0000 0.42966  0.45732  0.22176  Biso   1.000  Mo
  Mo2      1.0000 0.57034  0.45732  0.27824  Biso   1.000  Mo
  Mo3      1.0000 0.57034  0.54268  0.77824  Biso   1.000  Mo
  Mo4      1.0000 0.42966  0.54268  0.72176  Biso   1.000  Mo
  Cu1      1.0000 0.51287  0.24526  0.30392  Biso   1.000  Cu
  Cu2      1.0000 0.48713  0.24526  0.19608  Biso   1.000  Cu
  Cu3      1.0000 0.48713  0.75474  0.69608  Biso   1.000  Cu
  Cu4      1.0000 0.51287  0.75474  0.80392  Biso   1.000  Cu
  S1       1.0000 0.41113  0.19939  0.21397  Biso   1.000  S
  S2       1.0000 0.58887  0.19939  0.28603  Biso   1.000  S
  S3       1.0000 0.58887  0.80061  0.78603  Biso   1.000  S
  S4       1.0000 0.41113  0.80061  0.71397  Biso   1.000  S
  S5       1.0000 0.51287  0.50675  0.31391  Biso   1.000  S
  S6       1.0000 0.48713  0.50675  0.18609  Biso   1.000  S
  S7       1.0000 0.48713  0.49325  0.68609  Biso   1.000  S
  S8       1.0000 0.51287  0.49325  0.81391  Biso   1.000  S
  N1       1.0000 0.51570  0.13620  0.36080  Biso   1.000  N
  N2       1.0000 0.48430  0.13620  0.13920  Biso   1.000  N
  N3       1.0000 0.48430  0.86380  0.63920  Biso   1.000  N
  N4       1.0000 0.51570  0.86380  0.86080  Biso   1.000  N
  C1       1.0000 0.37640  0.68080  0.22380  Biso   1.000  C
  C2       1.0000 0.62360  0.68080  0.27620  Biso   1.000  C
  C3       1.0000 0.62360  0.31920  0.77620  Biso   1.000  C
  C4       1.0000 0.37640  0.31920  0.72380  Biso   1.000  C
  C5       1.0000 0.36650  0.67910  0.17340  Biso   1.000  C
  C6       1.0000 0.63350  0.67910  0.32660  Biso   1.000  C
  C7       1.0000 0.63350  0.32090  0.82660  Biso   1.000  C
  C8       1.0000 0.36650  0.32090  0.67340  Biso   1.000  C
  C9       1.0000 0.32750  0.54650  0.14270  Biso   1.000  C
  C10      1.0000 0.67250  0.54650  0.35730  Biso   1.000  C
  C11      1.0000 0.67250  0.45350  0.85730  Biso   1.000  C
  C12      1.0000 0.32750  0.45350  0.64270  Biso   1.000  C
  C13      1.0000 0.31170  0.46700  0.17450  Biso   1.000  C
  C14      1.0000 0.68830  0.46700  0.32550  Biso   1.000  C
  C15      1.0000 0.68830  0.53300  0.82550  Biso   1.000  C
  C16      1.0000 0.31170  0.53300  0.67450  Biso   1.000  C
  C17      1.0000 0.34410  0.54700  0.22510  Biso   1.000  C
  C18      1.0000 0.65590  0.54700  0.27490  Biso   1.000  C
  C19      1.0000 0.65590  0.45300  0.77490  Biso   1.000  C
  C20      1.0000 0.34410  0.45300  0.72510  Biso   1.000  C
  C21      1.0000 0.40970  0.80970  0.26600  Biso   1.000  C
  C22      1.0000 0.59030  0.80970  0.23400  Biso   1.000  C
  C23      1.0000 0.59030  0.19030  0.73400  Biso   1.000  C
  C24      1.0000 0.40970  0.19030  0.76600  Biso   1.000  C
  H1       1.0000 0.37710  0.89130  0.25660  Biso   1.000  H
  H2       1.0000 0.62290  0.89130  0.24340  Biso   1.000  H
  H3       1.0000 0.62290  0.10870  0.74340  Biso   1.000  H
  H4       1.0000 0.37710  0.10870  0.75660  Biso   1.000  H
  H5       1.0000 0.44590  0.85470  0.26680  Biso   1.000  H
  H6       1.0000 0.55410  0.85470  0.23320  Biso   1.000  H
  H7       1.0000 0.55410  0.14530  0.73320  Biso   1.000  H
  H8       1.0000 0.44590  0.14530  0.76680  Biso   1.000  H
  H9       1.0000 0.42760  0.76660  0.30200  Biso   1.000  H
  H10      1.0000 0.57240  0.76660  0.19800  Biso   1.000  H
  H11      1.0000 0.57240  0.23340  0.69800  Biso   1.000  H
  H12      1.0000 0.42760  0.23340  0.80200  Biso   1.000  H
  C25      1.0000 0.38820  0.80620  0.15320  Biso   1.000  C
  C26      1.0000 0.61180  0.80620  0.34680  Biso   1.000  C
  C27      1.0000 0.61180  0.19380  0.84680  Biso   1.000  C
  C28      1.0000 0.38820  0.19380  0.65320  Biso   1.000  C
  H13      1.0000 0.43310  0.84110  0.18310  Biso   1.000  H
  H14      1.0000 0.56690  0.84110  0.31690  Biso   1.000  H
  H15      1.0000 0.56690  0.15890  0.81690  Biso   1.000  H
  H16      1.0000 0.43310  0.15890  0.68310  Biso   1.000  H
  H17      1.0000 0.35740  0.89470  0.13980  Biso   1.000  H
  H18      1.0000 0.64260  0.89470  0.36020  Biso   1.000  H
  H19      1.0000 0.64260  0.10530  0.86020  Biso   1.000  H
  H20      1.0000 0.35740  0.10530  0.63980  Biso   1.000  H
  H21      1.0000 0.38810  0.76530  0.12340  Biso   1.000  H
  H22      1.0000 0.61190  0.76530  0.37660  Biso   1.000  H
  H23      1.0000 0.61190  0.23470  0.87660  Biso   1.000  H
  H24      1.0000 0.38810  0.23470  0.62340  Biso   1.000  H
  C29      1.0000 0.30130  0.50600  0.08580  Biso   1.000  C
  C30      1.0000 0.69870  0.50600  0.41420  Biso   1.000  C
  C31      1.0000 0.69870  0.49400  0.91420  Biso   1.000  C
  C32      1.0000 0.30130  0.49400  0.58580  Biso   1.000  C
  H25      1.0000 0.33660  0.51880  0.08170  Biso   1.000  H
  H26      1.0000 0.66340  0.51880  0.41830  Biso   1.000  H
  H27      1.0000 0.66340  0.48120  0.91830  Biso   1.000  H
  H28      1.0000 0.33660  0.48120  0.58170  Biso   1.000  H
  H29      1.0000 0.26410  0.57540  0.06010  Biso   1.000  H
  H30      1.0000 0.73590  0.57540  0.43990  Biso   1.000  H
  H31      1.0000 0.73590  0.42460  0.93990  Biso   1.000  H
  H32      1.0000 0.26410  0.42460  0.56010  Biso   1.000  H
  H33      1.0000 0.28600  0.39720  0.07810  Biso   1.000  H
  H34      1.0000 0.71400  0.39720  0.42190  Biso   1.000  H
  H35      1.0000 0.71400  0.60280  0.92190  Biso   1.000  H
  H36      1.0000 0.28600  0.60280  0.57810  Biso   1.000  H
  C33      1.0000 0.26530  0.33410  0.15520  Biso   1.000  C
  C34      1.0000 0.73470  0.33410  0.34480  Biso   1.000  C
  C35      1.0000 0.73470  0.66590  0.84480  Biso   1.000  C
  C36      1.0000 0.26530  0.66590  0.65520  Biso   1.000  C
  H37      1.0000 0.22150  0.37250  0.14230  Biso   1.000  H
  H38      1.0000 0.77850  0.37250  0.35770  Biso   1.000  H
  H39      1.0000 0.77850  0.62750  0.85770  Biso   1.000  H
  H40      1.0000 0.22150  0.62750  0.64230  Biso   1.000  H
  H41      1.0000 0.28200  0.26030  0.18530  Biso   1.000  H
  H42      1.0000 0.71800  0.26030  0.31470  Biso   1.000  H
  H43      1.0000 0.71800  0.73970  0.81470  Biso   1.000  H
  H44      1.0000 0.28200  0.73970  0.68530  Biso   1.000  H
  H45      1.0000 0.26160  0.28120  0.12520  Biso   1.000  H
  H46      1.0000 0.73840  0.28120  0.37480  Biso   1.000  H
  H47      1.0000 0.73840  0.71880  0.87480  Biso   1.000  H
  H48      1.0000 0.26160  0.71880  0.62520  Biso   1.000  H
  C37      1.0000 0.33710  0.51400  0.26920  Biso   1.000  C
  C38      1.0000 0.66290  0.51400  0.23080  Biso   1.000  C
  C39      1.0000 0.66290  0.48600  0.73080  Biso   1.000  C
  C40      1.0000 0.33710  0.48600  0.76920  Biso   1.000  C
  H49      1.0000 0.32630  0.40330  0.26810  Biso   1.000  H
  H50      1.0000 0.67370  0.40330  0.23190  Biso   1.000  H
  H51      1.0000 0.67370  0.59670  0.73190  Biso   1.000  H
  H52      1.0000 0.32630  0.59670  0.76810  Biso   1.000  H
  H53      1.0000 0.30150  0.57880  0.26360  Biso   1.000  H
  H54      1.0000 0.69850  0.57880  0.23640  Biso   1.000  H
  H55      1.0000 0.69850  0.42120  0.73640  Biso   1.000  H
  H56      1.0000 0.30150  0.42120  0.76360  Biso   1.000  H
  H57      1.0000 0.37900  0.53830  0.30490  Biso   1.000  H
  H58      1.0000 0.62100  0.53830  0.19510  Biso   1.000  H
  H59      1.0000 0.62100  0.46170  0.69510  Biso   1.000  H
  H60      1.0000 0.37900  0.46170  0.80490  Biso   1.000  H
  C41      1.0000 0.57230  0.08590  0.40690  Biso   1.000  C
  C42      1.0000 0.42770  0.08590  0.09310  Biso   1.000  C
  C43      1.0000 0.42770  0.91410  0.59310  Biso   1.000  C
  C44      1.0000 0.57230  0.91410  0.90690  Biso   1.000  C
  H61      1.0000 0.61140  0.08270  0.40900  Biso   1.000  H
  H62      1.0000 0.38860  0.08270  0.09100  Biso   1.000  H
  H63      1.0000 0.38860  0.91730  0.59100  Biso   1.000  H
  H64      1.0000 0.61140  0.91730  0.90900  Biso   1.000  H
  C45      1.0000 0.57580  0.03820  0.45150  Biso   1.000  C
  C46      1.0000 0.42420  0.03820  0.04850  Biso   1.000  C
  C47      1.0000 0.42420  0.96180  0.54850  Biso   1.000  C
  C48      1.0000 0.57580  0.96180  0.95150  Biso   1.000  C
  H65      1.0000 0.61670  0.00170  0.48340  Biso   1.000  H
  H66      1.0000 0.38330  0.00170  0.01660  Biso   1.000  H
  H67      1.0000 0.38330  0.99830  0.51660  Biso   1.000  H
  H68      1.0000 0.61670  0.99830  0.98340  Biso   1.000  H
  C49      1.0000 0.52020  0.04340  0.45010  Biso   1.000  C
  C50      1.0000 0.47980  0.04340  0.04990  Biso   1.000  C
  C51      1.0000 0.47980  0.95660  0.54990  Biso   1.000  C
  C52      1.0000 0.52020  0.95660  0.95010  Biso   1.000  C
  C53      1.0000 0.46140  0.09450  0.40140  Biso   1.000  C
  C54      1.0000 0.53860  0.09450  0.09860  Biso   1.000  C
  C55      1.0000 0.53860  0.90550  0.59860  Biso   1.000  C
  C56      1.0000 0.46140  0.90550  0.90140  Biso   1.000  C
  H69      1.0000 0.42150  0.09970  0.39810  Biso   1.000  H
  H70      1.0000 0.57850  0.09970  0.10190  Biso   1.000  H
  H71      1.0000 0.57850  0.90030  0.60190  Biso   1.000  H
  H72      1.0000 0.42150  0.90030  0.89810  Biso   1.000  H
  C57      1.0000 0.46130  0.13720  0.35850  Biso   1.000  C
  C58      1.0000 0.53870  0.13720  0.14150  Biso   1.000  C
  C59      1.0000 0.53870  0.86280  0.64150  Biso   1.000  C
  C60      1.0000 0.46130  0.86280  0.85850  Biso   1.000  C
  H73      1.0000 0.42060  0.16910  0.32540  Biso   1.000  H
  H74      1.0000 0.57940  0.16910  0.17460  Biso   1.000  H
  H75      1.0000 0.57940  0.83090  0.67460  Biso   1.000  H
  H76      1.0000 0.42060  0.83090  0.82540  Biso   1.000  H
  C61      1.0000 0.52480  0.00270  0.49830  Biso   1.000  C
  C62      1.0000 0.47520  0.00270  0.00170  Biso   1.000  C
  C63      1.0000 0.47520  0.99730  0.50170  Biso   1.000  C
  C64      1.0000 0.52480  0.99730  0.99830  Biso   1.000  C
  H77      1.0000 0.56770  0.97750  0.53050  Biso   1.000  H
  H78      1.0000 0.43230  0.97750  0.96950  Biso   1.000  H
  H79      1.0000 0.43230  0.02250  0.46950  Biso   1.000  H
  H80      1.0000 0.56770  0.02250  0.03050  Biso   1.000  H
  Mo5      1.0000 0.07024  0.44276  0.29228  Biso   1.000  Mo
  Mo6      1.0000 0.92976  0.44276  0.20772  Biso   1.000  Mo
  Mo7      1.0000 0.92976  0.55724  0.70772  Biso   1.000  Mo
  Mo8      1.0000 0.07024  0.55724  0.79228  Biso   1.000  Mo
  Cu5      1.0000 0.01329  0.23142  0.20941  Biso   1.000  Cu
  Cu6      1.0000 0.98671  0.23142  0.29059  Biso   1.000  Cu
  Cu7      1.0000 0.98671  0.76858  0.79059  Biso   1.000  Cu
  Cu8      1.0000 0.01329  0.76858  0.70941  Biso   1.000  Cu
  S9       1.0000 0.08817  0.18416  0.30276  Biso   1.000  S
  S10      1.0000 0.91183  0.18416  0.19724  Biso   1.000  S
  S11      1.0000 0.91183  0.81584  0.69724  Biso   1.000  S
  S12      1.0000 0.08817  0.81584  0.80276  Biso   1.000  S
  S13      1.0000 0.01399  0.49233  0.19966  Biso   1.000  S
  S14      1.0000 0.98601  0.49233  0.30034  Biso   1.000  S
  S15      1.0000 0.98601  0.50767  0.80034  Biso   1.000  S
  S16      1.0000 0.01399  0.50767  0.69966  Biso   1.000  S
  N5       1.0000 0.01760  0.12680  0.15580  Biso   1.000  N
  N6       1.0000 0.98240  0.12680  0.34420  Biso   1.000  N
  N7       1.0000 0.98240  0.87320  0.84420  Biso   1.000  N
  N8       1.0000 0.01760  0.87320  0.65580  Biso   1.000  N
  C65      1.0000 0.12330  0.66530  0.34750  Biso   1.000  C
  C66      1.0000 0.87670  0.66530  0.15250  Biso   1.000  C
  C67      1.0000 0.87670  0.33470  0.65250  Biso   1.000  C
  C68      1.0000 0.12330  0.33470  0.84750  Biso   1.000  C
  C69      1.0000 0.15510  0.52920  0.38140  Biso   1.000  C
  C70      1.0000 0.84490  0.52920  0.11860  Biso   1.000  C
  C71      1.0000 0.84490  0.47080  0.61860  Biso   1.000  C
  C72      1.0000 0.15510  0.47080  0.88140  Biso   1.000  C
  C73      1.0000 0.18780  0.45120  0.36380  Biso   1.000  C
  C74      1.0000 0.81220  0.45120  0.13620  Biso   1.000  C
  C75      1.0000 0.81220  0.54880  0.63620  Biso   1.000  C
  C76      1.0000 0.18780  0.54880  0.86380  Biso   1.000  C
  C77      1.0000 0.17340  0.53260  0.31670  Biso   1.000  C
  C78      1.0000 0.82660  0.53260  0.18330  Biso   1.000  C
  C79      1.0000 0.82660  0.46740  0.68330  Biso   1.000  C
  C80      1.0000 0.17340  0.46740  0.81670  Biso   1.000  C
  C81      1.0000 0.13470  0.66550  0.30800  Biso   1.000  C
  C82      1.0000 0.86530  0.66550  0.19200  Biso   1.000  C
  C83      1.0000 0.86530  0.33450  0.69200  Biso   1.000  C
  C84      1.0000 0.13470  0.33450  0.80800  Biso   1.000  C
  C85      1.0000 0.08970  0.79230  0.35610  Biso   1.000  C
  C86      1.0000 0.91030  0.79230  0.14390  Biso   1.000  C
  C87      1.0000 0.91030  0.20770  0.64390  Biso   1.000  C
  C88      1.0000 0.08970  0.20770  0.85610  Biso   1.000  C
  H81      1.0000 0.05170  0.83200  0.32070  Biso   1.000  H
  H82      1.0000 0.94830  0.83200  0.17930  Biso   1.000  H
  H83      1.0000 0.94830  0.16800  0.67930  Biso   1.000  H
  H84      1.0000 0.05170  0.16800  0.82070  Biso   1.000  H
  H85      1.0000 0.12120  0.87760  0.37710  Biso   1.000  H
  H86      1.0000 0.87880  0.87760  0.12290  Biso   1.000  H
  H87      1.0000 0.87880  0.12240  0.62290  Biso   1.000  H
  H88      1.0000 0.12120  0.12240  0.87710  Biso   1.000  H
  H89      1.0000 0.07430  0.75040  0.37630  Biso   1.000  H
  H90      1.0000 0.92570  0.75040  0.12370  Biso   1.000  H
  H91      1.0000 0.92570  0.24960  0.62370  Biso   1.000  H
  H92      1.0000 0.07430  0.24960  0.87630  Biso   1.000  H
  C89      1.0000 0.15880  0.49250  0.43110  Biso   1.000  C
  C90      1.0000 0.84120  0.49250  0.06890  Biso   1.000  C
  C91      1.0000 0.84120  0.50750  0.56890  Biso   1.000  C
  C92      1.0000 0.15880  0.50750  0.93110  Biso   1.000  C
  H93      1.0000 0.19290  0.55810  0.46170  Biso   1.000  H
  H94      1.0000 0.80710  0.55810  0.03830  Biso   1.000  H
  H95      1.0000 0.80710  0.44190  0.53830  Biso   1.000  H
  H96      1.0000 0.19290  0.44190  0.96170  Biso   1.000  H
  H97      1.0000 0.17030  0.38200  0.44080  Biso   1.000  H
  H98      1.0000 0.82970  0.38200  0.05920  Biso   1.000  H
  H99      1.0000 0.82970  0.61800  0.55920  Biso   1.000  H
  H100     1.0000 0.17030  0.61800  0.94080  Biso   1.000  H
  H101     1.0000 0.11570  0.51350  0.42320  Biso   1.000  H
  H102     1.0000 0.88430  0.51350  0.07680  Biso   1.000  H
  H103     1.0000 0.88430  0.48650  0.57680  Biso   1.000  H
  H104     1.0000 0.11570  0.48650  0.92320  Biso   1.000  H
  C93      1.0000 0.23420  0.31400  0.39160  Biso   1.000  C
  C94      1.0000 0.76580  0.31400  0.10840  Biso   1.000  C
  C95      1.0000 0.76580  0.68600  0.60840  Biso   1.000  C
  C96      1.0000 0.23420  0.68600  0.89160  Biso   1.000  C
  H105     1.0000 0.22750  0.26480  0.41670  Biso   1.000  H
  H106     1.0000 0.77250  0.26480  0.08330  Biso   1.000  H
  H107     1.0000 0.77250  0.73520  0.58330  Biso   1.000  H
  H108     1.0000 0.22750  0.73520  0.91670  Biso   1.000  H
  H109     1.0000 0.28020  0.35020  0.41210  Biso   1.000  H
  H110     1.0000 0.71980  0.35020  0.08790  Biso   1.000  H
  H111     1.0000 0.71980  0.64980  0.58790  Biso   1.000  H
  H112     1.0000 0.28020  0.64980  0.91210  Biso   1.000  H
  H113     1.0000 0.22510  0.23770  0.36400  Biso   1.000  H
  H114     1.0000 0.77490  0.23770  0.13600  Biso   1.000  H
  H115     1.0000 0.77490  0.76230  0.63600  Biso   1.000  H
  H116     1.0000 0.22510  0.76230  0.86400  Biso   1.000  H
  C97      1.0000 0.20100  0.49300  0.28650  Biso   1.000  C
  C98      1.0000 0.79900  0.49300  0.21350  Biso   1.000  C
  C99      1.0000 0.79900  0.50700  0.71350  Biso   1.000  C
  C100     1.0000 0.20100  0.50700  0.78650  Biso   1.000  C
  H117     1.0000 0.24960  0.49210  0.31200  Biso   1.000  H
  H118     1.0000 0.75040  0.49210  0.18800  Biso   1.000  H
  H119     1.0000 0.75040  0.50790  0.68800  Biso   1.000  H
  H120     1.0000 0.24960  0.50790  0.81200  Biso   1.000  H
  H121     1.0000 0.18630  0.57130  0.25800  Biso   1.000  H
  H122     1.0000 0.81370  0.57130  0.24200  Biso   1.000  H
  H123     1.0000 0.81370  0.42870  0.74200  Biso   1.000  H
  H124     1.0000 0.18630  0.42870  0.75800  Biso   1.000  H
  H125     1.0000 0.18500  0.38950  0.26970  Biso   1.000  H
  H126     1.0000 0.81500  0.38950  0.23030  Biso   1.000  H
  H127     1.0000 0.81500  0.61050  0.73030  Biso   1.000  H
  H128     1.0000 0.18500  0.61050  0.76970  Biso   1.000  H
  C101     1.0000 0.11520  0.79030  0.26710  Biso   1.000  C
  C102     1.0000 0.88480  0.79030  0.23290  Biso   1.000  C
  C103     1.0000 0.88480  0.20970  0.73290  Biso   1.000  C
  C104     1.0000 0.11520  0.20970  0.76710  Biso   1.000  C
  H129     1.0000 0.14910  0.87250  0.28380  Biso   1.000  H
  H130     1.0000 0.85090  0.87250  0.21620  Biso   1.000  H
  H131     1.0000 0.85090  0.12750  0.71620  Biso   1.000  H
  H132     1.0000 0.14910  0.12750  0.78380  Biso   1.000  H
  H133     1.0000 0.07250  0.83510  0.25460  Biso   1.000  H
  H134     1.0000 0.92750  0.83510  0.24540  Biso   1.000  H
  H135     1.0000 0.92750  0.16490  0.74540  Biso   1.000  H
  H136     1.0000 0.07250  0.16490  0.75460  Biso   1.000  H
  H137     1.0000 0.11120  0.74560  0.23590  Biso   1.000  H
  H138     1.0000 0.88880  0.74560  0.26410  Biso   1.000  H
  H139     1.0000 0.88880  0.25440  0.76410  Biso   1.000  H
  H140     1.0000 0.11120  0.25440  0.73590  Biso   1.000  H
  C105     1.0000 0.07500  0.09960  0.16460  Biso   1.000  C
  C106     1.0000 0.92500  0.09960  0.33540  Biso   1.000  C
  C107     1.0000 0.92500  0.90040  0.83540  Biso   1.000  C
  C108     1.0000 0.07500  0.90040  0.66460  Biso   1.000  C
  H141     1.0000 0.11500  0.11070  0.20060  Biso   1.000  H
  H142     1.0000 0.88500  0.11070  0.29940  Biso   1.000  H
  H143     1.0000 0.88500  0.88930  0.79940  Biso   1.000  H
  H144     1.0000 0.11500  0.88930  0.70060  Biso   1.000  H
  C109     1.0000 0.07890  0.05590  0.12340  Biso   1.000  C
  C110     1.0000 0.92110  0.05590  0.37660  Biso   1.000  C
  C111     1.0000 0.92110  0.94410  0.87660  Biso   1.000  C
  C112     1.0000 0.07890  0.94410  0.62340  Biso   1.000  C
  H145     1.0000 0.12100  0.03720  0.13140  Biso   1.000  H
  H146     1.0000 0.87900  0.03720  0.36860  Biso   1.000  H
  H147     1.0000 0.87900  0.96280  0.86860  Biso   1.000  H
  H148     1.0000 0.12100  0.96280  0.63140  Biso   1.000  H
  C113     1.0000 0.02120  0.03920  0.07040  Biso   1.000  C
  C114     1.0000 0.97880  0.03920  0.42960  Biso   1.000  C
  C115     1.0000 0.97880  0.96080  0.92960  Biso   1.000  C
  C116     1.0000 0.02120  0.96080  0.57040  Biso   1.000  C
  C117     1.0000 0.96120  0.06090  0.06190  Biso   1.000  C
  C118     1.0000 0.03880  0.06090  0.43810  Biso   1.000  C
  C119     1.0000 0.03880  0.93910  0.93810  Biso   1.000  C
  C120     1.0000 0.96120  0.93910  0.56190  Biso   1.000  C
  H149     1.0000 0.92030  0.04640  0.02670  Biso   1.000  H
  H150     1.0000 0.07970  0.04640  0.47330  Biso   1.000  H
  H151     1.0000 0.07970  0.95360  0.97330  Biso   1.000  H
  H152     1.0000 0.92030  0.95360  0.52670  Biso   1.000  H
  C121     1.0000 0.96170  0.10350  0.10520  Biso   1.000  C
  C122     1.0000 0.03830  0.10350  0.39480  Biso   1.000  C
  C123     1.0000 0.03830  0.89650  0.89480  Biso   1.000  C
  C124     1.0000 0.96170  0.89650  0.60520  Biso   1.000  C
  H153     1.0000 0.92030  0.11720  0.09900  Biso   1.000  H
  H154     1.0000 0.07970  0.11720  0.40100  Biso   1.000  H
  H155     1.0000 0.07970  0.88280  0.90100  Biso   1.000  H
  H156     1.0000 0.92030  0.88280  0.59900  Biso   1.000  H
  C125     1.0000 0.02520  0.99890  0.02630  Biso   1.000  C
  C126     1.0000 0.97480  0.99890  0.47370  Biso   1.000  C
  C127     1.0000 0.97480  0.00110  0.97370  Biso   1.000  C
  C128     1.0000 0.02520  0.00110  0.52630  Biso   1.000  C
  H157     1.0000 0.06740  0.96870  0.03620  Biso   1.000  H
  H158     1.0000 0.93260  0.96870  0.46380  Biso   1.000  H
  H159     1.0000 0.93260  0.03130  0.96380  Biso   1.000  H
  H160     1.0000 0.06740  0.03130  0.53620  Biso   1.000  H
  N9       1.0000 0.21390  0.84840  0.12960  Biso   1.000  N
  N10      1.0000 0.78610  0.84840  0.37040  Biso   1.000  N
  N11      1.0000 0.78610  0.15160  0.87040  Biso   1.000  N
  N12      1.0000 0.21390  0.15160  0.62960  Biso   1.000  N
  H161     1.0000 0.22460  0.89080  0.10980  Biso   1.000  H
  H162     1.0000 0.77540  0.89080  0.39020  Biso   1.000  H
  H163     1.0000 0.77540  0.10920  0.89020  Biso   1.000  H
  H164     1.0000 0.22460  0.10920  0.60980  Biso   1.000  H
  H165     1.0000 0.23050  0.88650  0.16210  Biso   1.000  H
  H166     1.0000 0.76950  0.88650  0.33790  Biso   1.000  H
  H167     1.0000 0.76950  0.11350  0.83790  Biso   1.000  H
  H168     1.0000 0.23050  0.11350  0.66210  Biso   1.000  H
  C129     1.0000 0.17140  0.72300  0.10970  Biso   1.000  C
  C130     1.0000 0.82860  0.72300  0.39030  Biso   1.000  C
  C131     1.0000 0.82860  0.27700  0.89030  Biso   1.000  C
  C132     1.0000 0.17140  0.27700  0.60970  Biso   1.000  C
  C133     1.0000 0.15320  0.66840  0.14040  Biso   1.000  C
  C134     1.0000 0.84680  0.66840  0.35960  Biso   1.000  C
  C135     1.0000 0.84680  0.33160  0.85960  Biso   1.000  C
  C136     1.0000 0.15320  0.33160  0.64040  Biso   1.000  C
  H169     1.0000 0.17080  0.71210  0.17510  Biso   1.000  H
  H170     1.0000 0.82920  0.71210  0.32490  Biso   1.000  H
  H171     1.0000 0.82920  0.28790  0.82490  Biso   1.000  H
  H172     1.0000 0.17080  0.28790  0.67510  Biso   1.000  H
  C137     1.0000 0.10840  0.54800  0.11910  Biso   1.000  C
  C138     1.0000 0.89160  0.54800  0.38090  Biso   1.000  C
  C139     1.0000 0.89160  0.45200  0.88090  Biso   1.000  C
  C140     1.0000 0.10840  0.45200  0.61910  Biso   1.000  C
  H173     1.0000 0.09370  0.50910  0.13920  Biso   1.000  H
  H174     1.0000 0.90630  0.50910  0.36080  Biso   1.000  H
  H175     1.0000 0.90630  0.49090  0.86080  Biso   1.000  H
  H176     1.0000 0.09370  0.49090  0.63920  Biso   1.000  H
  C141     1.0000 0.08300  0.47800  0.06740  Biso   1.000  C
  C142     1.0000 0.91700  0.47800  0.43260  Biso   1.000  C
  C143     1.0000 0.91700  0.52200  0.93260  Biso   1.000  C
  C144     1.0000 0.08300  0.52200  0.56740  Biso   1.000  C
  H177     1.0000 0.05480  0.38930  0.05360  Biso   1.000  H
  H178     1.0000 0.94520  0.38930  0.44640  Biso   1.000  H
  H179     1.0000 0.94520  0.61070  0.94640  Biso   1.000  H
  H180     1.0000 0.05480  0.61070  0.55360  Biso   1.000  H
  C145     1.0000 0.10320  0.55300  0.03860  Biso   1.000  C
  C146     1.0000 0.89680  0.55300  0.46140  Biso   1.000  C
  C147     1.0000 0.89680  0.44700  0.96140  Biso   1.000  C
  C148     1.0000 0.10320  0.44700  0.53860  Biso   1.000  C
  H181     1.0000 0.08450  0.51930  0.00250  Biso   1.000  H
  H182     1.0000 0.91550  0.51930  0.49750  Biso   1.000  H
  H183     1.0000 0.91550  0.48070  0.99750  Biso   1.000  H
  H184     1.0000 0.08450  0.48070  0.50250  Biso   1.000  H
  C149     1.0000 0.14660  0.66600  0.05990  Biso   1.000  C
  C150     1.0000 0.85340  0.66600  0.44010  Biso   1.000  C
  C151     1.0000 0.85340  0.33400  0.94010  Biso   1.000  C
  C152     1.0000 0.14660  0.33400  0.55990  Biso   1.000  C
  H185     1.0000 0.16090  0.70920  0.04010  Biso   1.000  H
  H186     1.0000 0.83910  0.70920  0.45990  Biso   1.000  H
  H187     1.0000 0.83910  0.29080  0.95990  Biso   1.000  H
  H188     1.0000 0.16090  0.29080  0.54010  Biso   1.000  H
  N13      1.0000 0.28930  0.82060  0.41280  Biso   1.000  N
  N14      1.0000 0.71070  0.82060  0.08720  Biso   1.000  N
  N15      1.0000 0.71070  0.17940  0.58720  Biso   1.000  N
  N16      1.0000 0.28930  0.17940  0.91280  Biso   1.000  N
  H189     1.0000 0.26930  0.85700  0.42620  Biso   1.000  H
  H190     1.0000 0.73070  0.85700  0.07380  Biso   1.000  H
  H191     1.0000 0.73070  0.14300  0.57380  Biso   1.000  H
  H192     1.0000 0.26930  0.14300  0.92620  Biso   1.000  H
  H193     1.0000 0.28210  0.86430  0.38370  Biso   1.000  H
  H194     1.0000 0.71790  0.86430  0.11630  Biso   1.000  H
  H195     1.0000 0.71790  0.13570  0.61630  Biso   1.000  H
  H196     1.0000 0.28210  0.13570  0.88370  Biso   1.000  H
  C153     1.0000 0.33210  0.69470  0.43750  Biso   1.000  C
  C154     1.0000 0.66790  0.69470  0.06250  Biso   1.000  C
  C155     1.0000 0.66790  0.30530  0.56250  Biso   1.000  C
  C156     1.0000 0.33210  0.30530  0.93750  Biso   1.000  C
  C157     1.0000 0.36550  0.62800  0.41800  Biso   1.000  C
  C158     1.0000 0.63450  0.62800  0.08200  Biso   1.000  C
  C159     1.0000 0.63450  0.37200  0.58200  Biso   1.000  C
  C160     1.0000 0.36550  0.37200  0.91800  Biso   1.000  C
  H197     1.0000 0.35720  0.66910  0.38570  Biso   1.000  H
  H198     1.0000 0.64280  0.66910  0.11430  Biso   1.000  H
  H199     1.0000 0.64280  0.33090  0.61430  Biso   1.000  H
  H200     1.0000 0.35720  0.33090  0.88570  Biso   1.000  H
  C161     1.0000 0.40800  0.51000  0.44340  Biso   1.000  C
  C162     1.0000 0.59200  0.51000  0.05660  Biso   1.000  C
  C163     1.0000 0.59200  0.49000  0.55660  Biso   1.000  C
  C164     1.0000 0.40800  0.49000  0.94340  Biso   1.000  C
  H201     1.0000 0.43070  0.47320  0.42970  Biso   1.000  H
  H202     1.0000 0.56930  0.47320  0.07030  Biso   1.000  H
  H203     1.0000 0.56930  0.52680  0.57030  Biso   1.000  H
  H204     1.0000 0.43070  0.52680  0.92970  Biso   1.000  H
  C165     1.0000 0.42010  0.44000  0.48820  Biso   1.000  C
  C166     1.0000 0.57990  0.44000  0.01180  Biso   1.000  C
  C167     1.0000 0.57990  0.56000  0.51180  Biso   1.000  C
  C168     1.0000 0.42010  0.56000  0.98820  Biso   1.000  C
  H205     1.0000 0.45000  0.35460  0.50530  Biso   1.000  H
  H206     1.0000 0.55000  0.35460  0.99470  Biso   1.000  H
  H207     1.0000 0.55000  0.64540  0.49470  Biso   1.000  H
  H208     1.0000 0.45000  0.64540  0.00530  Biso   1.000  H
  C169     1.0000 0.38680  0.49900  0.50830  Biso   1.000  C
  C170     1.0000 0.61320  0.49900  0.99170  Biso   1.000  C
  C171     1.0000 0.61320  0.50100  0.49170  Biso   1.000  C
  C172     1.0000 0.38680  0.50100  0.00830  Biso   1.000  C
  H209     1.0000 0.39380  0.45210  0.53940  Biso   1.000  H
  H210     1.0000 0.60620  0.45210  0.96060  Biso   1.000  H
  H211     1.0000 0.60620  0.54790  0.46060  Biso   1.000  H
  H212     1.0000 0.39380  0.54790  0.03940  Biso   1.000  H
  C173     1.0000 0.34480  0.62230  0.48370  Biso   1.000  C
  C174     1.0000 0.65520  0.62230  0.01630  Biso   1.000  C
  C175     1.0000 0.65520  0.37770  0.51630  Biso   1.000  C
  C176     1.0000 0.34480  0.37770  0.98370  Biso   1.000  C
  H213     1.0000 0.32330  0.66060  0.49830  Biso   1.000  H
  H214     1.0000 0.67670  0.66060  0.00170  Biso   1.000  H
  H215     1.0000 0.67670  0.33940  0.50170  Biso   1.000  H
  H216     1.0000 0.32330  0.33940  0.99830  Biso   1.000  H
  Cl1      1.0000 0.26962  0.01810  0.28186  Biso   1.000  Cl
  Cl2      1.0000 0.73038  0.01810  0.21814  Biso   1.000  Cl
  Cl3      1.0000 0.73038  0.98190  0.71814  Biso   1.000  Cl
  Cl4      1.0000 0.26962  0.98190  0.78186  Biso   1.000  Cl
  O1       1.0000 0.22580  0.90110  0.23530  Biso   1.000  O
  O2       1.0000 0.77420  0.90110  0.26470  Biso   1.000  O
  O3       1.0000 0.77420  0.09890  0.76470  Biso   1.000  O
  O4       1.0000 0.22580  0.09890  0.73530  Biso   1.000  O
  O5       1.0000 0.30460  0.09960  0.26930  Biso   1.000  O
  O6       1.0000 0.69540  0.09960  0.23070  Biso   1.000  O
  O7       1.0000 0.69540  0.90040  0.73070  Biso   1.000  O
  O8       1.0000 0.30460  0.90040  0.76930  Biso   1.000  O
  O9       1.0000 0.31030  0.91280  0.32850  Biso   1.000  O
  O10      1.0000 0.68970  0.91280  0.17150  Biso   1.000  O
  O11      1.0000 0.68970  0.08720  0.67150  Biso   1.000  O
  O12      1.0000 0.31030  0.08720  0.82850  Biso   1.000  O
  O13      1.0000 0.21840  0.08400  0.28080  Biso   1.000  O
  O14      1.0000 0.78160  0.08400  0.21920  Biso   1.000  O
  O15      1.0000 0.78160  0.91600  0.71920  Biso   1.000  O
  O16      1.0000 0.21840  0.91600  0.78080  Biso   1.000  O
  Cl5      1.0000 0.24000  0.99230  0.01130  Biso   1.000  Cl
  Cl6      1.0000 0.76000  0.99230  0.48870  Biso   1.000  Cl
  Cl7      1.0000 0.76000  0.00770  0.98870  Biso   1.000  Cl
  Cl8      1.0000 0.24000  0.00770  0.51130  Biso   1.000  Cl
  O17      1.0000 0.29220  0.89700  0.01780  Biso   1.000  O
  O18      1.0000 0.70780  0.89700  0.48220  Biso   1.000  O
  O19      1.0000 0.70780  0.10300  0.98220  Biso   1.000  O
  O20      1.0000 0.29220  0.10300  0.51780  Biso   1.000  O
  O21      1.0000 0.28150  0.09000  0.06150  Biso   1.000  O
  O22      1.0000 0.71850  0.09000  0.43850  Biso   1.000  O
  O23      1.0000 0.71850  0.91000  0.93850  Biso   1.000  O
  O24      1.0000 0.28150  0.91000  0.56150  Biso   1.000  O
  O25      1.0000 0.20580  0.88300  0.01940  Biso   1.000  O
  O26      1.0000 0.79420  0.88300  0.48060  Biso   1.000  O
  O27      1.0000 0.79420  0.11700  0.98060  Biso   1.000  O
  O28      1.0000 0.20580  0.11700  0.51940  Biso   1.000  O
  O29      1.0000 0.20440  0.03800  0.96110  Biso   1.000  O
  O30      1.0000 0.79560  0.03800  0.53890  Biso   1.000  O
  O31      1.0000 0.79560  0.96200  0.03890  Biso   1.000  O
  O32      1.0000 0.20440  0.96200  0.46110  Biso   1.000  O
  Cl9      1.0000 0.22640  0.04930  0.01200  Biso   1.000  Cl
  Cl10     1.0000 0.77360  0.04930  0.48800  Biso   1.000  Cl
  Cl11     1.0000 0.77360  0.95070  0.98800  Biso   1.000  Cl
  Cl12     1.0000 0.22640  0.95070  0.51200  Biso   1.000  Cl
  O33      1.0000 0.23560  0.04710  0.22610  Biso   1.000  O
  O34      1.0000 0.76440  0.04710  0.27390  Biso   1.000  O
  O35      1.0000 0.76440  0.95290  0.77390  Biso   1.000  O
  O36      1.0000 0.23560  0.95290  0.72610  Biso   1.000  O
  O37      1.0000 0.31150  0.16800  0.30510  Biso   1.000  O
  O38      1.0000 0.68850  0.16800  0.19490  Biso   1.000  O
  O39      1.0000 0.68850  0.83200  0.69490  Biso   1.000  O
  O40      1.0000 0.31150  0.83200  0.80510  Biso   1.000  O
  O41      1.0000 0.31570  0.90400  0.30670  Biso   1.000  O
  O42      1.0000 0.68430  0.90400  0.19330  Biso   1.000  O
  O43      1.0000 0.68430  0.09600  0.69330  Biso   1.000  O
  O44      1.0000 0.31570  0.09600  0.80670  Biso   1.000  O
  O45      1.0000 0.23130  0.05000  0.30140  Biso   1.000  O
  O46      1.0000 0.76870  0.05000  0.19860  Biso   1.000  O
  O47      1.0000 0.76870  0.95000  0.69860  Biso   1.000  O
  O48      1.0000 0.23130  0.95000  0.80140  Biso   1.000  O
  O49      1.0000 0.17200  0.15430  0.99730  Biso   1.000  O
  O50      1.0000 0.82800  0.15430  0.50270  Biso   1.000  O
  O51      1.0000 0.82800  0.84570  0.00270  Biso   1.000  O
  O52      1.0000 0.17200  0.84570  0.49730  Biso   1.000  O
  O53      1.0000 0.19090  0.91350  0.98390  Biso   1.000  O
  O54      1.0000 0.80910  0.91350  0.51610  Biso   1.000  O
  O55      1.0000 0.80910  0.08650  0.01610  Biso   1.000  O
  O56      1.0000 0.19090  0.08650  0.48390  Biso   1.000  O
  O57      1.0000 0.25380  0.13500  0.99070  Biso   1.000  O
  O58      1.0000 0.74620  0.13500  0.50930  Biso   1.000  O
  O59      1.0000 0.74620  0.86500  0.00930  Biso   1.000  O
  O60      1.0000 0.25380  0.86500  0.49070  Biso   1.000  O
  O61      1.0000 0.26580  0.04450  0.06760  Biso   1.000  O
  O62      1.0000 0.73420  0.04450  0.43240  Biso   1.000  O
  O63      1.0000 0.73420  0.95550  0.93240  Biso   1.000  O
  O64      1.0000 0.26580  0.95550  0.56760  Biso   1.000  O
