data_image0
_cell_length_a       12.586
_cell_length_b       18.997
_cell_length_c       8.143
_cell_angle_alpha    90
_cell_angle_beta     90
_cell_angle_gamma    90

_symmetry_space_group_name_H-M    "P 1"
_symmetry_int_tables_number       1

loop_
  _symmetry_equiv_pos_as_xyz
  'x, y, z'

loop_
  _atom_site_label
  _atom_site_occupancy
  _atom_site_fract_x
  _atom_site_fract_y
  _atom_site_fract_z
  _atom_site_thermal_displace_type
  _atom_site_B_iso_or_equiv
  _atom_site_type_symbol
  Cu1      1.0000 0.18742  0.89915  0.82594  Biso   1.000  Cu
  Cu2      1.0000 0.81258  0.10085  0.82594  Biso   1.000  Cu
  Cu3      1.0000 0.43742  0.35085  0.07594  Biso   1.000  Cu
  Cu4      1.0000 0.06258  0.14915  0.07594  Biso   1.000  Cu
  Cu5      1.0000 0.18742  0.39915  0.32594  Biso   1.000  Cu
  Cu6      1.0000 0.81258  0.60085  0.32594  Biso   1.000  Cu
  Cu7      1.0000 0.43742  0.85085  0.57594  Biso   1.000  Cu
  Cu8      1.0000 0.06258  0.64915  0.57594  Biso   1.000  Cu
  Cu9      1.0000 0.68742  0.89915  0.32594  Biso   1.000  Cu
  Cu10     1.0000 0.31258  0.10085  0.32594  Biso   1.000  Cu
  Cu11     1.0000 0.93742  0.35085  0.57594  Biso   1.000  Cu
  Cu12     1.0000 0.56258  0.14915  0.57594  Biso   1.000  Cu
  Cu13     1.0000 0.68742  0.39915  0.82594  Biso   1.000  Cu
  Cu14     1.0000 0.31258  0.60085  0.82594  Biso   1.000  Cu
  Cu15     1.0000 0.93742  0.85085  0.07594  Biso   1.000  Cu
  Cu16     1.0000 0.56258  0.64915  0.07594  Biso   1.000  Cu
  S1       1.0000 0.24605  0.87641  0.55687  Biso   1.000  S
  S2       1.0000 0.75395  0.12359  0.55687  Biso   1.000  S
  S3       1.0000 0.49605  0.37359  0.80687  Biso   1.000  S
  S4       1.0000 0.00395  0.12641  0.80687  Biso   1.000  S
  S5       1.0000 0.24605  0.37641  0.05687  Biso   1.000  S
  S6       1.0000 0.75395  0.62359  0.05687  Biso   1.000  S
  S7       1.0000 0.49605  0.87359  0.30687  Biso   1.000  S
  S8       1.0000 0.00395  0.62641  0.30687  Biso   1.000  S
  S9       1.0000 0.74605  0.87641  0.05687  Biso   1.000  S
  S10      1.0000 0.25395  0.12359  0.05687  Biso   1.000  S
  S11      1.0000 0.99605  0.37359  0.30687  Biso   1.000  S
  S12      1.0000 0.50395  0.12641  0.30687  Biso   1.000  S
  S13      1.0000 0.74605  0.37641  0.55687  Biso   1.000  S
  S14      1.0000 0.25395  0.62359  0.55687  Biso   1.000  S
  S15      1.0000 0.99605  0.87359  0.80687  Biso   1.000  S
  S16      1.0000 0.50395  0.62641  0.80687  Biso   1.000  S
  N1       1.0000 0.23451  0.81180  0.96080  Biso   1.000  N
  N2       1.0000 0.76549  0.18820  0.96080  Biso   1.000  N
  N3       1.0000 0.48451  0.43820  0.21080  Biso   1.000  N
  N4       1.0000 0.01549  0.06180  0.21080  Biso   1.000  N
  N5       1.0000 0.23451  0.31180  0.46080  Biso   1.000  N
  N6       1.0000 0.76549  0.68820  0.46080  Biso   1.000  N
  N7       1.0000 0.48451  0.93820  0.71080  Biso   1.000  N
  N8       1.0000 0.01549  0.56180  0.71080  Biso   1.000  N
  N9       1.0000 0.73451  0.81180  0.46080  Biso   1.000  N
  N10      1.0000 0.26549  0.18820  0.46080  Biso   1.000  N
  N11      1.0000 0.98451  0.43820  0.71080  Biso   1.000  N
  N12      1.0000 0.51549  0.06180  0.71080  Biso   1.000  N
  N13      1.0000 0.73451  0.31180  0.96080  Biso   1.000  N
  N14      1.0000 0.26549  0.68820  0.96080  Biso   1.000  N
  N15      1.0000 0.98451  0.93820  0.21080  Biso   1.000  N
  N16      1.0000 0.51549  0.56180  0.21080  Biso   1.000  N
  N17      1.0000 0.28124  0.01082  0.42230  Biso   1.000  N
  N18      1.0000 0.71876  0.98918  0.42230  Biso   1.000  N
  N19      1.0000 0.53124  0.23918  0.67230  Biso   1.000  N
  N20      1.0000 0.96876  0.26082  0.67230  Biso   1.000  N
  N21      1.0000 0.28124  0.51082  0.92230  Biso   1.000  N
  N22      1.0000 0.71876  0.48918  0.92230  Biso   1.000  N
  N23      1.0000 0.53124  0.73918  0.17230  Biso   1.000  N
  N24      1.0000 0.96876  0.76082  0.17230  Biso   1.000  N
  N25      1.0000 0.78124  0.01082  0.92230  Biso   1.000  N
  N26      1.0000 0.21876  0.98918  0.92230  Biso   1.000  N
  N27      1.0000 0.03124  0.23918  0.17230  Biso   1.000  N
  N28      1.0000 0.46876  0.26082  0.17230  Biso   1.000  N
  N29      1.0000 0.78124  0.51082  0.42230  Biso   1.000  N
  N30      1.0000 0.21876  0.48918  0.42230  Biso   1.000  N
  N31      1.0000 0.03124  0.73918  0.67230  Biso   1.000  N
  N32      1.0000 0.46876  0.76082  0.67230  Biso   1.000  N
  C1       1.0000 0.23520  0.81139  0.12510  Biso   1.000  C
  C2       1.0000 0.76480  0.18861  0.12510  Biso   1.000  C
  C3       1.0000 0.48520  0.43861  0.37510  Biso   1.000  C
  C4       1.0000 0.01480  0.06139  0.37510  Biso   1.000  C
  C5       1.0000 0.23520  0.31139  0.62510  Biso   1.000  C
  C6       1.0000 0.76480  0.68861  0.62510  Biso   1.000  C
  C7       1.0000 0.48520  0.93861  0.87510  Biso   1.000  C
  C8       1.0000 0.01480  0.56139  0.87510  Biso   1.000  C
  C9       1.0000 0.73520  0.81139  0.62510  Biso   1.000  C
  C10      1.0000 0.26480  0.18861  0.62510  Biso   1.000  C
  C11      1.0000 0.98520  0.43861  0.87510  Biso   1.000  C
  C12      1.0000 0.51480  0.06139  0.87510  Biso   1.000  C
  C13      1.0000 0.73520  0.31139  0.12510  Biso   1.000  C
  C14      1.0000 0.26480  0.68861  0.12510  Biso   1.000  C
  C15      1.0000 0.98520  0.93861  0.37510  Biso   1.000  C
  C16      1.0000 0.51480  0.56139  0.37510  Biso   1.000  C
  H1       1.0000 0.22550  0.85340  0.18180  Biso   1.000  H
  H2       1.0000 0.77450  0.14660  0.18180  Biso   1.000  H
  H3       1.0000 0.47550  0.39660  0.43180  Biso   1.000  H
  H4       1.0000 0.02450  0.10340  0.43180  Biso   1.000  H
  H5       1.0000 0.22550  0.35340  0.68180  Biso   1.000  H
  H6       1.0000 0.77450  0.64660  0.68180  Biso   1.000  H
  H7       1.0000 0.47550  0.89660  0.93180  Biso   1.000  H
  H8       1.0000 0.02450  0.60340  0.93180  Biso   1.000  H
  H9       1.0000 0.72550  0.85340  0.68180  Biso   1.000  H
  H10      1.0000 0.27450  0.14660  0.68180  Biso   1.000  H
  H11      1.0000 0.97550  0.39660  0.93180  Biso   1.000  H
  H12      1.0000 0.52450  0.10340  0.93180  Biso   1.000  H
  H13      1.0000 0.72550  0.35340  0.18180  Biso   1.000  H
  H14      1.0000 0.27450  0.64660  0.18180  Biso   1.000  H
  H15      1.0000 0.97550  0.89660  0.43180  Biso   1.000  H
  H16      1.0000 0.52450  0.60340  0.43180  Biso   1.000  H
  C17      1.0000 0.25000  0.75000  0.21180  Biso   1.000  C
  C18      1.0000 0.75000  0.25000  0.21180  Biso   1.000  C
  C19      1.0000 0.50000  0.50000  0.46180  Biso   1.000  C
  C20      1.0000 0.00000  0.00000  0.46180  Biso   1.000  C
  C21      1.0000 0.25000  0.25000  0.71180  Biso   1.000  C
  C22      1.0000 0.75000  0.75000  0.71180  Biso   1.000  C
  C23      1.0000 0.50000  0.00000  0.96180  Biso   1.000  C
  C24      1.0000 0.00000  0.50000  0.96180  Biso   1.000  C
  H17      1.0000 0.25000  0.75000  0.32600  Biso   1.000  H
  H18      1.0000 0.75000  0.25000  0.32600  Biso   1.000  H
  H19      1.0000 0.50000  0.50000  0.57600  Biso   1.000  H
  H20      1.0000 0.00000  0.00000  0.57600  Biso   1.000  H
  H21      1.0000 0.25000  0.25000  0.82600  Biso   1.000  H
  H22      1.0000 0.75000  0.75000  0.82600  Biso   1.000  H
  H23      1.0000 0.50000  0.00000  0.07600  Biso   1.000  H
  H24      1.0000 0.00000  0.50000  0.07600  Biso   1.000  H
  C25      1.0000 0.25000  0.75000  0.88640  Biso   1.000  C
  C26      1.0000 0.75000  0.25000  0.88640  Biso   1.000  C
  C27      1.0000 0.50000  0.50000  0.13640  Biso   1.000  C
  C28      1.0000 0.00000  0.00000  0.13640  Biso   1.000  C
  C29      1.0000 0.25000  0.25000  0.38640  Biso   1.000  C
  C30      1.0000 0.75000  0.75000  0.38640  Biso   1.000  C
  C31      1.0000 0.50000  0.00000  0.63640  Biso   1.000  C
  C32      1.0000 0.00000  0.50000  0.63640  Biso   1.000  C
  H25      1.0000 0.25000  0.75000  0.77220  Biso   1.000  H
  H26      1.0000 0.75000  0.25000  0.77220  Biso   1.000  H
  H27      1.0000 0.50000  0.50000  0.02220  Biso   1.000  H
  H28      1.0000 0.00000  0.00000  0.02220  Biso   1.000  H
  H29      1.0000 0.25000  0.25000  0.27220  Biso   1.000  H
  H30      1.0000 0.75000  0.75000  0.27220  Biso   1.000  H
  H31      1.0000 0.50000  0.00000  0.52220  Biso   1.000  H
  H32      1.0000 0.00000  0.50000  0.52220  Biso   1.000  H
  C33      1.0000 0.26598  0.95645  0.47880  Biso   1.000  C
  C34      1.0000 0.73402  0.04355  0.47880  Biso   1.000  C
  C35      1.0000 0.51598  0.29355  0.72880  Biso   1.000  C
  C36      1.0000 0.98402  0.20645  0.72880  Biso   1.000  C
  C37      1.0000 0.26598  0.45645  0.97880  Biso   1.000  C
  C38      1.0000 0.73402  0.54355  0.97880  Biso   1.000  C
  C39      1.0000 0.51598  0.79355  0.22880  Biso   1.000  C
  C40      1.0000 0.98402  0.70645  0.22880  Biso   1.000  C
  C41      1.0000 0.76598  0.95645  0.97880  Biso   1.000  C
  C42      1.0000 0.23402  0.04355  0.97880  Biso   1.000  C
  C43      1.0000 0.01598  0.29355  0.22880  Biso   1.000  C
  C44      1.0000 0.48402  0.20645  0.22880  Biso   1.000  C
  C45      1.0000 0.76598  0.45645  0.47880  Biso   1.000  C
  C46      1.0000 0.23402  0.54355  0.47880  Biso   1.000  C
  C47      1.0000 0.01598  0.79355  0.72880  Biso   1.000  C
  C48      1.0000 0.48402  0.70645  0.72880  Biso   1.000  C
