data_image0
_cell_length_a       12.56
_cell_length_b       18.943
_cell_length_c       8.136
_cell_angle_alpha    90
_cell_angle_beta     90
_cell_angle_gamma    90

_symmetry_space_group_name_H-M    "P 1"
_symmetry_int_tables_number       1

loop_
  _symmetry_equiv_pos_as_xyz
  'x, y, z'

loop_
  _atom_site_label
  _atom_site_occupancy
  _atom_site_fract_x
  _atom_site_fract_y
  _atom_site_fract_z
  _atom_site_thermal_displace_type
  _atom_site_B_iso_or_equiv
  _atom_site_type_symbol
  Cu1      1.0000 0.06261  0.14914  0.65978  Biso   1.000  Cu
  Cu2      1.0000 0.93739  0.85086  0.65978  Biso   1.000  Cu
  Cu3      1.0000 0.18739  0.39914  0.90978  Biso   1.000  Cu
  Cu4      1.0000 0.81261  0.60086  0.90978  Biso   1.000  Cu
  Cu5      1.0000 0.06261  0.64914  0.15978  Biso   1.000  Cu
  Cu6      1.0000 0.93739  0.35086  0.15978  Biso   1.000  Cu
  Cu7      1.0000 0.18739  0.89914  0.40978  Biso   1.000  Cu
  Cu8      1.0000 0.81261  0.10086  0.40978  Biso   1.000  Cu
  Cu9      1.0000 0.56261  0.14914  0.15978  Biso   1.000  Cu
  Cu10     1.0000 0.43739  0.85086  0.15978  Biso   1.000  Cu
  Cu11     1.0000 0.68739  0.39914  0.40978  Biso   1.000  Cu
  Cu12     1.0000 0.31261  0.60086  0.40978  Biso   1.000  Cu
  Cu13     1.0000 0.56261  0.64914  0.65978  Biso   1.000  Cu
  Cu14     1.0000 0.43739  0.35086  0.65978  Biso   1.000  Cu
  Cu15     1.0000 0.68739  0.89914  0.90978  Biso   1.000  Cu
  Cu16     1.0000 0.31261  0.10086  0.90978  Biso   1.000  Cu
  S1       1.0000 0.00378  0.12653  0.39032  Biso   1.000  S
  S2       1.0000 0.99622  0.87347  0.39032  Biso   1.000  S
  S3       1.0000 0.24622  0.37653  0.64032  Biso   1.000  S
  S4       1.0000 0.75378  0.62347  0.64032  Biso   1.000  S
  S5       1.0000 0.00378  0.62653  0.89032  Biso   1.000  S
  S6       1.0000 0.99622  0.37347  0.89032  Biso   1.000  S
  S7       1.0000 0.24622  0.87653  0.14032  Biso   1.000  S
  S8       1.0000 0.75378  0.12347  0.14032  Biso   1.000  S
  S9       1.0000 0.50378  0.12653  0.89032  Biso   1.000  S
  S10      1.0000 0.49622  0.87347  0.89032  Biso   1.000  S
  S11      1.0000 0.74622  0.37653  0.14032  Biso   1.000  S
  S12      1.0000 0.25378  0.62347  0.14032  Biso   1.000  S
  S13      1.0000 0.50378  0.62653  0.39032  Biso   1.000  S
  S14      1.0000 0.49622  0.37347  0.39032  Biso   1.000  S
  S15      1.0000 0.74622  0.87653  0.64032  Biso   1.000  S
  S16      1.0000 0.25378  0.12347  0.64032  Biso   1.000  S
  C1       1.0000 0.98430  0.20690  0.31300  Biso   1.000  C
  C2       1.0000 0.01570  0.79310  0.31300  Biso   1.000  C
  C3       1.0000 0.26570  0.45690  0.56300  Biso   1.000  C
  C4       1.0000 0.73430  0.54310  0.56300  Biso   1.000  C
  C5       1.0000 0.98430  0.70690  0.81300  Biso   1.000  C
  C6       1.0000 0.01570  0.29310  0.81300  Biso   1.000  C
  C7       1.0000 0.26570  0.95690  0.06300  Biso   1.000  C
  C8       1.0000 0.73430  0.04310  0.06300  Biso   1.000  C
  C9       1.0000 0.48430  0.20690  0.81300  Biso   1.000  C
  C10      1.0000 0.51570  0.79310  0.81300  Biso   1.000  C
  C11      1.0000 0.76570  0.45690  0.06300  Biso   1.000  C
  C12      1.0000 0.23430  0.54310  0.06300  Biso   1.000  C
  C13      1.0000 0.48430  0.70690  0.31300  Biso   1.000  C
  C14      1.0000 0.51570  0.29310  0.31300  Biso   1.000  C
  C15      1.0000 0.76570  0.95690  0.56300  Biso   1.000  C
  C16      1.0000 0.23430  0.04310  0.56300  Biso   1.000  C
  N1       1.0000 0.03130  0.23920  0.75680  Biso   1.000  N
  N2       1.0000 0.96870  0.76080  0.75680  Biso   1.000  N
  N3       1.0000 0.21870  0.48920  0.00680  Biso   1.000  N
  N4       1.0000 0.78130  0.51080  0.00680  Biso   1.000  N
  N5       1.0000 0.03130  0.73920  0.25680  Biso   1.000  N
  N6       1.0000 0.96870  0.26080  0.25680  Biso   1.000  N
  N7       1.0000 0.21870  0.98920  0.50680  Biso   1.000  N
  N8       1.0000 0.78130  0.01080  0.50680  Biso   1.000  N
  N9       1.0000 0.53130  0.23920  0.25680  Biso   1.000  N
  N10      1.0000 0.46870  0.76080  0.25680  Biso   1.000  N
  N11      1.0000 0.71870  0.48920  0.50680  Biso   1.000  N
  N12      1.0000 0.28130  0.51080  0.50680  Biso   1.000  N
  N13      1.0000 0.53130  0.73920  0.75680  Biso   1.000  N
  N14      1.0000 0.46870  0.26080  0.75680  Biso   1.000  N
  N15      1.0000 0.71870  0.98920  0.00680  Biso   1.000  N
  N16      1.0000 0.28130  0.01080  0.00680  Biso   1.000  N
  C17      1.0000 0.00000  0.00000  0.72070  Biso   1.000  C
  C18      1.0000 0.25000  0.25000  0.97070  Biso   1.000  C
  C19      1.0000 0.75000  0.75000  0.97070  Biso   1.000  C
  C20      1.0000 0.00000  0.50000  0.22070  Biso   1.000  C
  C21      1.0000 0.25000  0.75000  0.47070  Biso   1.000  C
  C22      1.0000 0.75000  0.25000  0.47070  Biso   1.000  C
  C23      1.0000 0.50000  0.00000  0.22070  Biso   1.000  C
  C24      1.0000 0.50000  0.50000  0.72070  Biso   1.000  C
  H1       1.0000 0.00000  0.00000  0.60640  Biso   1.000  H
  H2       1.0000 0.25000  0.25000  0.85640  Biso   1.000  H
  H3       1.0000 0.75000  0.75000  0.85640  Biso   1.000  H
  H4       1.0000 0.00000  0.50000  0.10640  Biso   1.000  H
  H5       1.0000 0.25000  0.75000  0.35640  Biso   1.000  H
  H6       1.0000 0.75000  0.25000  0.35640  Biso   1.000  H
  H7       1.0000 0.50000  0.00000  0.10640  Biso   1.000  H
  H8       1.0000 0.50000  0.50000  0.60640  Biso   1.000  H
  N17      1.0000 0.01540  0.06170  0.79360  Biso   1.000  N
  N18      1.0000 0.98460  0.93830  0.79360  Biso   1.000  N
  N19      1.0000 0.23460  0.31170  0.04360  Biso   1.000  N
  N20      1.0000 0.76540  0.68830  0.04360  Biso   1.000  N
  N21      1.0000 0.01540  0.56170  0.29360  Biso   1.000  N
  N22      1.0000 0.98460  0.43830  0.29360  Biso   1.000  N
  N23      1.0000 0.23460  0.81170  0.54360  Biso   1.000  N
  N24      1.0000 0.76540  0.18830  0.54360  Biso   1.000  N
  N25      1.0000 0.51540  0.06170  0.29360  Biso   1.000  N
  N26      1.0000 0.48460  0.93830  0.29360  Biso   1.000  N
  N27      1.0000 0.73460  0.31170  0.54360  Biso   1.000  N
  N28      1.0000 0.26540  0.68830  0.54360  Biso   1.000  N
  N29      1.0000 0.51540  0.56170  0.79360  Biso   1.000  N
  N30      1.0000 0.48460  0.43830  0.79360  Biso   1.000  N
  N31      1.0000 0.73460  0.81170  0.04360  Biso   1.000  N
  N32      1.0000 0.26540  0.18830  0.04360  Biso   1.000  N
  C25      1.0000 0.00000  0.00000  0.04420  Biso   1.000  C
  C26      1.0000 0.25000  0.25000  0.29420  Biso   1.000  C
  C27      1.0000 0.75000  0.75000  0.29420  Biso   1.000  C
  C28      1.0000 0.00000  0.50000  0.54420  Biso   1.000  C
  C29      1.0000 0.25000  0.75000  0.79420  Biso   1.000  C
  C30      1.0000 0.75000  0.25000  0.79420  Biso   1.000  C
  C31      1.0000 0.50000  0.00000  0.54420  Biso   1.000  C
  C32      1.0000 0.50000  0.50000  0.04420  Biso   1.000  C
  H9       1.0000 0.00000  0.00000  0.15850  Biso   1.000  H
  H10      1.0000 0.25000  0.25000  0.40850  Biso   1.000  H
  H11      1.0000 0.75000  0.75000  0.40850  Biso   1.000  H
  H12      1.0000 0.00000  0.50000  0.65850  Biso   1.000  H
  H13      1.0000 0.25000  0.75000  0.90850  Biso   1.000  H
  H14      1.0000 0.75000  0.25000  0.90850  Biso   1.000  H
  H15      1.0000 0.50000  0.00000  0.65850  Biso   1.000  H
  H16      1.0000 0.50000  0.50000  0.15850  Biso   1.000  H
  C33      1.0000 0.01500  0.06160  0.95980  Biso   1.000  C
  C34      1.0000 0.98500  0.93840  0.95980  Biso   1.000  C
  C35      1.0000 0.23500  0.31160  0.20980  Biso   1.000  C
  C36      1.0000 0.76500  0.68840  0.20980  Biso   1.000  C
  C37      1.0000 0.01500  0.56160  0.45980  Biso   1.000  C
  C38      1.0000 0.98500  0.43840  0.45980  Biso   1.000  C
  C39      1.0000 0.23500  0.81160  0.70980  Biso   1.000  C
  C40      1.0000 0.76500  0.18840  0.70980  Biso   1.000  C
  C41      1.0000 0.51500  0.06160  0.45980  Biso   1.000  C
  C42      1.0000 0.48500  0.93840  0.45980  Biso   1.000  C
  C43      1.0000 0.73500  0.31160  0.70980  Biso   1.000  C
  C44      1.0000 0.26500  0.68840  0.70980  Biso   1.000  C
  C45      1.0000 0.51500  0.56160  0.95980  Biso   1.000  C
  C46      1.0000 0.48500  0.43840  0.95980  Biso   1.000  C
  C47      1.0000 0.73500  0.81160  0.20980  Biso   1.000  C
  C48      1.0000 0.26500  0.18840  0.20980  Biso   1.000  C
  H17      1.0000 0.02500  0.10360  0.01690  Biso   1.000  H
  H18      1.0000 0.97500  0.89640  0.01690  Biso   1.000  H
  H19      1.0000 0.22500  0.35360  0.26690  Biso   1.000  H
  H20      1.0000 0.77500  0.64640  0.26690  Biso   1.000  H
  H21      1.0000 0.02500  0.60360  0.51690  Biso   1.000  H
  H22      1.0000 0.97500  0.39640  0.51690  Biso   1.000  H
  H23      1.0000 0.22500  0.85360  0.76690  Biso   1.000  H
  H24      1.0000 0.77500  0.14640  0.76690  Biso   1.000  H
  H25      1.0000 0.52500  0.10360  0.51690  Biso   1.000  H
  H26      1.0000 0.47500  0.89640  0.51690  Biso   1.000  H
  H27      1.0000 0.72500  0.35360  0.76690  Biso   1.000  H
  H28      1.0000 0.27500  0.64640  0.76690  Biso   1.000  H
  H29      1.0000 0.52500  0.60360  0.01690  Biso   1.000  H
  H30      1.0000 0.47500  0.39640  0.01690  Biso   1.000  H
  H31      1.0000 0.72500  0.85360  0.26690  Biso   1.000  H
  H32      1.0000 0.27500  0.14640  0.26690  Biso   1.000  H
