data_image0
_cell_length_a       12.587
_cell_length_b       19.005
_cell_length_c       8.152
_cell_angle_alpha    90
_cell_angle_beta     90
_cell_angle_gamma    90

_symmetry_space_group_name_H-M    "P 1"
_symmetry_int_tables_number       1

loop_
  _symmetry_equiv_pos_as_xyz
  'x, y, z'

loop_
  _atom_site_label
  _atom_site_occupancy
  _atom_site_fract_x
  _atom_site_fract_y
  _atom_site_fract_z
  _atom_site_thermal_displace_type
  _atom_site_B_iso_or_equiv
  _atom_site_type_symbol
  Cu1      1.0000 0.06237  0.35078  0.20300  Biso   1.000  Cu
  Cu2      1.0000 0.93763  0.64922  0.20300  Biso   1.000  Cu
  Cu3      1.0000 0.31237  0.89922  0.45300  Biso   1.000  Cu
  Cu4      1.0000 0.18763  0.60078  0.45300  Biso   1.000  Cu
  Cu5      1.0000 0.06237  0.85078  0.70300  Biso   1.000  Cu
  Cu6      1.0000 0.93763  0.14922  0.70300  Biso   1.000  Cu
  Cu7      1.0000 0.56237  0.35078  0.70300  Biso   1.000  Cu
  Cu8      1.0000 0.43763  0.64922  0.70300  Biso   1.000  Cu
  Cu9      1.0000 0.56237  0.85078  0.20300  Biso   1.000  Cu
  Cu10     1.0000 0.43763  0.14922  0.20300  Biso   1.000  Cu
  S1       1.0000 0.00440  0.37356  0.47270  Biso   1.000  S
  S2       1.0000 0.99560  0.62644  0.47270  Biso   1.000  S
  S3       1.0000 0.25440  0.87644  0.72270  Biso   1.000  S
  S4       1.0000 0.24560  0.62356  0.72270  Biso   1.000  S
  S5       1.0000 0.00440  0.87356  0.97270  Biso   1.000  S
  S6       1.0000 0.99560  0.12644  0.97270  Biso   1.000  S
  S7       1.0000 0.50440  0.37356  0.97270  Biso   1.000  S
  S8       1.0000 0.49560  0.62644  0.97270  Biso   1.000  S
  S9       1.0000 0.50440  0.87356  0.47270  Biso   1.000  S
  S10      1.0000 0.49560  0.12644  0.47270  Biso   1.000  S
  N1       1.0000 0.01510  0.43730  0.06970  Biso   1.000  N
  N2       1.0000 0.98490  0.56270  0.06970  Biso   1.000  N
  N3       1.0000 0.26510  0.81270  0.31970  Biso   1.000  N
  N4       1.0000 0.23490  0.68730  0.31970  Biso   1.000  N
  N5       1.0000 0.01510  0.93730  0.56970  Biso   1.000  N
  N6       1.0000 0.98490  0.06270  0.56970  Biso   1.000  N
  N7       1.0000 0.51510  0.43730  0.56970  Biso   1.000  N
  N8       1.0000 0.48490  0.56270  0.56970  Biso   1.000  N
  N9       1.0000 0.51510  0.93730  0.06970  Biso   1.000  N
  N10      1.0000 0.48490  0.06270  0.06970  Biso   1.000  N
  C1       1.0000 0.00000  0.50000  0.13580  Biso   1.000  C
  C2       1.0000 0.25000  0.75000  0.38580  Biso   1.000  C
  C3       1.0000 0.00000  0.00000  0.63580  Biso   1.000  C
  C4       1.0000 0.50000  0.50000  0.63580  Biso   1.000  C
  C5       1.0000 0.50000  0.00000  0.13580  Biso   1.000  C
  H1       1.0000 0.00000  0.50000  0.24990  Biso   1.000  H
  H2       1.0000 0.25000  0.75000  0.49990  Biso   1.000  H
  H3       1.0000 0.00000  0.00000  0.74990  Biso   1.000  H
  H4       1.0000 0.50000  0.50000  0.74990  Biso   1.000  H
  H5       1.0000 0.50000  0.00000  0.24990  Biso   1.000  H
  C6       1.0000 0.01550  0.43820  0.90180  Biso   1.000  C
  C7       1.0000 0.98450  0.56180  0.90180  Biso   1.000  C
  C8       1.0000 0.26550  0.81180  0.15180  Biso   1.000  C
  C9       1.0000 0.23450  0.68820  0.15180  Biso   1.000  C
  C10      1.0000 0.01550  0.93820  0.40180  Biso   1.000  C
  C11      1.0000 0.98450  0.06180  0.40180  Biso   1.000  C
  C12      1.0000 0.51550  0.43820  0.40180  Biso   1.000  C
  C13      1.0000 0.48450  0.56180  0.40180  Biso   1.000  C
  C14      1.0000 0.51550  0.93820  0.90180  Biso   1.000  C
  C15      1.0000 0.48450  0.06180  0.90180  Biso   1.000  C
  H6       1.0000 0.02640  0.39660  0.84410  Biso   1.000  H
  H7       1.0000 0.97360  0.60340  0.84410  Biso   1.000  H
  H8       1.0000 0.27640  0.85340  0.09410  Biso   1.000  H
  H9       1.0000 0.22360  0.64660  0.09410  Biso   1.000  H
  H10      1.0000 0.02640  0.89660  0.34410  Biso   1.000  H
  H11      1.0000 0.97360  0.10340  0.34410  Biso   1.000  H
  H12      1.0000 0.52640  0.39660  0.34410  Biso   1.000  H
  H13      1.0000 0.47360  0.60340  0.34410  Biso   1.000  H
  H14      1.0000 0.52640  0.89660  0.84410  Biso   1.000  H
  H15      1.0000 0.47360  0.10340  0.84410  Biso   1.000  H
  C16      1.0000 0.00000  0.50000  0.81800  Biso   1.000  C
  C17      1.0000 0.25000  0.75000  0.06800  Biso   1.000  C
  C18      1.0000 0.00000  0.00000  0.31800  Biso   1.000  C
  C19      1.0000 0.50000  0.50000  0.31800  Biso   1.000  C
  C20      1.0000 0.50000  0.00000  0.81800  Biso   1.000  C
  H16      1.0000 0.00000  0.50000  0.70390  Biso   1.000  H
  H17      1.0000 0.25000  0.75000  0.95390  Biso   1.000  H
  H18      1.0000 0.00000  0.00000  0.20390  Biso   1.000  H
  H19      1.0000 0.50000  0.50000  0.20390  Biso   1.000  H
  H20      1.0000 0.50000  0.00000  0.70390  Biso   1.000  H
  C21      1.0000 0.98430  0.29380  0.55110  Biso   1.000  C
  C22      1.0000 0.01570  0.70620  0.55110  Biso   1.000  C
  C23      1.0000 0.23430  0.95620  0.80110  Biso   1.000  C
  C24      1.0000 0.26570  0.54380  0.80110  Biso   1.000  C
  C25      1.0000 0.98430  0.79380  0.05110  Biso   1.000  C
  C26      1.0000 0.01570  0.20620  0.05110  Biso   1.000  C
  C27      1.0000 0.48430  0.29380  0.05110  Biso   1.000  C
  C28      1.0000 0.51570  0.70620  0.05110  Biso   1.000  C
  C29      1.0000 0.48430  0.79380  0.55110  Biso   1.000  C
  C30      1.0000 0.51570  0.20620  0.55110  Biso   1.000  C
  N11      1.0000 0.96840  0.23860  0.60710  Biso   1.000  N
  N12      1.0000 0.03160  0.76140  0.60710  Biso   1.000  N
  N13      1.0000 0.21840  0.01140  0.85710  Biso   1.000  N
  N14      1.0000 0.28160  0.48860  0.85710  Biso   1.000  N
  N15      1.0000 0.96840  0.73860  0.10710  Biso   1.000  N
  N16      1.0000 0.03160  0.26140  0.10710  Biso   1.000  N
  N17      1.0000 0.46840  0.23860  0.10710  Biso   1.000  N
  N18      1.0000 0.53160  0.76140  0.10710  Biso   1.000  N
  N19      1.0000 0.46840  0.73860  0.60710  Biso   1.000  N
  N20      1.0000 0.53160  0.26140  0.60710  Biso   1.000  N
  S11      1.0000 0.25440  0.37644  0.22270  Biso   1.000  S
  S12      1.0000 0.74560  0.62356  0.22270  Biso   1.000  S
  S13      1.0000 0.74560  0.12356  0.72270  Biso   1.000  S
  S14      1.0000 0.75440  0.37644  0.72270  Biso   1.000  S
  S15      1.0000 0.75440  0.87644  0.22270  Biso   1.000  S
  S16      1.0000 0.24560  0.12356  0.22270  Biso   1.000  S
  Cu11     1.0000 0.81237  0.39922  0.45300  Biso   1.000  Cu
  Cu12     1.0000 0.81237  0.89922  0.95300  Biso   1.000  Cu
  Cu13     1.0000 0.18763  0.10078  0.95300  Biso   1.000  Cu
  Cu14     1.0000 0.31237  0.39922  0.95300  Biso   1.000  Cu
  Cu15     1.0000 0.68763  0.60078  0.95300  Biso   1.000  Cu
  Cu16     1.0000 0.68763  0.10078  0.45300  Biso   1.000  Cu
  N21      1.0000 0.28160  0.98860  0.35710  Biso   1.000  N
  N22      1.0000 0.21840  0.51140  0.35710  Biso   1.000  N
  C31      1.0000 0.23430  0.45620  0.30110  Biso   1.000  C
  C32      1.0000 0.76570  0.54380  0.30110  Biso   1.000  C
  C33      1.0000 0.76570  0.04380  0.80110  Biso   1.000  C
  C34      1.0000 0.73430  0.45620  0.80110  Biso   1.000  C
  C35      1.0000 0.73430  0.95620  0.30110  Biso   1.000  C
  C36      1.0000 0.26570  0.04380  0.30110  Biso   1.000  C
  N23      1.0000 0.76510  0.31270  0.31970  Biso   1.000  N
  N24      1.0000 0.76510  0.81270  0.81970  Biso   1.000  N
  N25      1.0000 0.23490  0.18730  0.81970  Biso   1.000  N
  N26      1.0000 0.26510  0.31270  0.81970  Biso   1.000  N
  N27      1.0000 0.73490  0.68730  0.81970  Biso   1.000  N
  N28      1.0000 0.73490  0.18730  0.31970  Biso   1.000  N
  N29      1.0000 0.78160  0.48860  0.35710  Biso   1.000  N
  N30      1.0000 0.78160  0.98860  0.85710  Biso   1.000  N
  N31      1.0000 0.71840  0.51140  0.85710  Biso   1.000  N
  N32      1.0000 0.71840  0.01140  0.35710  Biso   1.000  N
