data_image0
_cell_length_a       14.201
_cell_length_b       8.064
_cell_length_c       16.94
_cell_angle_alpha    90
_cell_angle_beta     111.655
_cell_angle_gamma    90

_symmetry_space_group_name_H-M    "P 1"
_symmetry_int_tables_number       1

loop_
  _symmetry_equiv_pos_as_xyz
  'x, y, z'

loop_
  _atom_site_label
  _atom_site_occupancy
  _atom_site_fract_x
  _atom_site_fract_y
  _atom_site_fract_z
  _atom_site_thermal_displace_type
  _atom_site_B_iso_or_equiv
  _atom_site_type_symbol
  I1       1.0000 0.50000  0.80946  0.25000  Biso   1.000  I
  I2       1.0000 0.00000  0.30946  0.25000  Biso   1.000  I
  I3       1.0000 0.50000  0.19054  0.75000  Biso   1.000  I
  I4       1.0000 0.00000  0.69054  0.75000  Biso   1.000  I
  Cu1      1.0000 0.50000  0.12185  0.25000  Biso   1.000  Cu
  Cu2      1.0000 0.00000  0.62185  0.25000  Biso   1.000  Cu
  Cu3      1.0000 0.50000  0.87815  0.75000  Biso   1.000  Cu
  Cu4      1.0000 0.00000  0.37815  0.75000  Biso   1.000  Cu
  S1       1.0000 0.52076  0.34963  0.11434  Biso   1.000  S
  S2       1.0000 0.47924  0.34963  0.38566  Biso   1.000  S
  S3       1.0000 0.02076  0.84963  0.11434  Biso   1.000  S
  S4       1.0000 0.97924  0.84963  0.38566  Biso   1.000  S
  S5       1.0000 0.47924  0.65037  0.88566  Biso   1.000  S
  S6       1.0000 0.52076  0.65037  0.61434  Biso   1.000  S
  S7       1.0000 0.97924  0.15037  0.88566  Biso   1.000  S
  S8       1.0000 0.02076  0.15037  0.61434  Biso   1.000  S
  N1       1.0000 0.32885  0.45550  0.05807  Biso   1.000  N
  N2       1.0000 0.67115  0.45550  0.44193  Biso   1.000  N
  N3       1.0000 0.82885  0.95550  0.05807  Biso   1.000  N
  N4       1.0000 0.17115  0.95550  0.44193  Biso   1.000  N
  N5       1.0000 0.67115  0.54450  0.94193  Biso   1.000  N
  N6       1.0000 0.32885  0.54450  0.55807  Biso   1.000  N
  N7       1.0000 0.17115  0.04450  0.94193  Biso   1.000  N
  N8       1.0000 0.82885  0.04450  0.55807  Biso   1.000  N
  N9       1.0000 0.38109  0.25060  0.16787  Biso   1.000  N
  N10      1.0000 0.61891  0.25060  0.33213  Biso   1.000  N
  N11      1.0000 0.88109  0.75060  0.16787  Biso   1.000  N
  N12      1.0000 0.11891  0.75060  0.33213  Biso   1.000  N
  N13      1.0000 0.61891  0.74940  0.83213  Biso   1.000  N
  N14      1.0000 0.38109  0.74940  0.66787  Biso   1.000  N
  N15      1.0000 0.11891  0.24940  0.83213  Biso   1.000  N
  N16      1.0000 0.88109  0.24940  0.66787  Biso   1.000  N
  C1       1.0000 0.21161  0.34840  0.11508  Biso   1.000  C
  C2       1.0000 0.78839  0.34840  0.38492  Biso   1.000  C
  C3       1.0000 0.71161  0.84840  0.11508  Biso   1.000  C
  C4       1.0000 0.28839  0.84840  0.38492  Biso   1.000  C
  C5       1.0000 0.78839  0.65160  0.88492  Biso   1.000  C
  C6       1.0000 0.21161  0.65160  0.61508  Biso   1.000  C
  C7       1.0000 0.28839  0.15160  0.88492  Biso   1.000  C
  C8       1.0000 0.71161  0.15160  0.61508  Biso   1.000  C
  H1       1.0000 0.14660  0.34680  0.11610  Biso   1.000  H
  H2       1.0000 0.85340  0.34680  0.38390  Biso   1.000  H
  H3       1.0000 0.64660  0.84680  0.11610  Biso   1.000  H
  H4       1.0000 0.35340  0.84680  0.38390  Biso   1.000  H
  H5       1.0000 0.85340  0.65320  0.88390  Biso   1.000  H
  H6       1.0000 0.14660  0.65320  0.61610  Biso   1.000  H
  H7       1.0000 0.35340  0.15320  0.88390  Biso   1.000  H
  H8       1.0000 0.64660  0.15320  0.61610  Biso   1.000  H
  C9       1.0000 0.23460  0.45300  0.06006  Biso   1.000  C
  C10      1.0000 0.76540  0.45300  0.43994  Biso   1.000  C
  C11      1.0000 0.73460  0.95300  0.06006  Biso   1.000  C
  C12      1.0000 0.26540  0.95300  0.43994  Biso   1.000  C
  C13      1.0000 0.76540  0.54700  0.93994  Biso   1.000  C
  C14      1.0000 0.23460  0.54700  0.56006  Biso   1.000  C
  C15      1.0000 0.26540  0.04700  0.93994  Biso   1.000  C
  C16      1.0000 0.73460  0.04700  0.56006  Biso   1.000  C
  C17      1.0000 0.28616  0.24630  0.16853  Biso   1.000  C
  C18      1.0000 0.71384  0.24630  0.33147  Biso   1.000  C
  C19      1.0000 0.78616  0.74630  0.16853  Biso   1.000  C
  C20      1.0000 0.21384  0.74630  0.33147  Biso   1.000  C
  C21      1.0000 0.71384  0.75370  0.83147  Biso   1.000  C
  C22      1.0000 0.28616  0.75370  0.66853  Biso   1.000  C
  C23      1.0000 0.21384  0.25370  0.83147  Biso   1.000  C
  C24      1.0000 0.78616  0.25370  0.66853  Biso   1.000  C
  C25      1.0000 0.52381  0.52140  0.04659  Biso   1.000  C
  C26      1.0000 0.47619  0.52140  0.45341  Biso   1.000  C
  C27      1.0000 0.02381  0.02140  0.04659  Biso   1.000  C
  C28      1.0000 0.97619  0.02140  0.45341  Biso   1.000  C
  C29      1.0000 0.47619  0.47860  0.95341  Biso   1.000  C
  C30      1.0000 0.52381  0.47860  0.54659  Biso   1.000  C
  C31      1.0000 0.97619  0.97860  0.95341  Biso   1.000  C
  C32      1.0000 0.02381  0.97860  0.54659  Biso   1.000  C
  H9       1.0000 0.48810  0.61490  0.05840  Biso   1.000  H
  H10      1.0000 0.51190  0.61490  0.44160  Biso   1.000  H
  H11      1.0000 0.98810  0.11490  0.05840  Biso   1.000  H
  H12      1.0000 0.01190  0.11490  0.44160  Biso   1.000  H
  H13      1.0000 0.51190  0.38510  0.94160  Biso   1.000  H
  H14      1.0000 0.48810  0.38510  0.55840  Biso   1.000  H
  H15      1.0000 0.01190  0.88510  0.94160  Biso   1.000  H
  H16      1.0000 0.98810  0.88510  0.55840  Biso   1.000  H
  H17      1.0000 0.59360  0.55450  0.05970  Biso   1.000  H
  H18      1.0000 0.40640  0.55450  0.44030  Biso   1.000  H
  H19      1.0000 0.09360  0.05450  0.05970  Biso   1.000  H
  H20      1.0000 0.90640  0.05450  0.44030  Biso   1.000  H
  H21      1.0000 0.40640  0.44550  0.94030  Biso   1.000  H
  H22      1.0000 0.59360  0.44550  0.55970  Biso   1.000  H
  H23      1.0000 0.90640  0.94550  0.94030  Biso   1.000  H
  H24      1.0000 0.09360  0.94550  0.55970  Biso   1.000  H
  C33      1.0000 0.39619  0.35590  0.11190  Biso   1.000  C
  C34      1.0000 0.60381  0.35590  0.38810  Biso   1.000  C
  C35      1.0000 0.89619  0.85590  0.11190  Biso   1.000  C
  C36      1.0000 0.10381  0.85590  0.38810  Biso   1.000  C
  C37      1.0000 0.60381  0.64410  0.88810  Biso   1.000  C
  C38      1.0000 0.39619  0.64410  0.61190  Biso   1.000  C
  C39      1.0000 0.10381  0.14410  0.88810  Biso   1.000  C
  C40      1.0000 0.89619  0.14410  0.61190  Biso   1.000  C
  C41      1.0000 0.15807  0.56690  0.00052  Biso   1.000  C
  C42      1.0000 0.84193  0.56690  0.49948  Biso   1.000  C
  C43      1.0000 0.65807  0.06690  0.00052  Biso   1.000  C
  C44      1.0000 0.34193  0.06690  0.49948  Biso   1.000  C
  C45      1.0000 0.84193  0.43310  0.99948  Biso   1.000  C
  C46      1.0000 0.15807  0.43310  0.50052  Biso   1.000  C
  C47      1.0000 0.34193  0.93310  0.99948  Biso   1.000  C
  C48      1.0000 0.65807  0.93310  0.50052  Biso   1.000  C
  H25      1.0000 0.17290  0.67910  0.02020  Biso   1.000  H
  H26      1.0000 0.82710  0.67910  0.47980  Biso   1.000  H
  H27      1.0000 0.67290  0.17910  0.02020  Biso   1.000  H
  H28      1.0000 0.32710  0.17910  0.47980  Biso   1.000  H
  H29      1.0000 0.82710  0.32090  0.97980  Biso   1.000  H
  H30      1.0000 0.17290  0.32090  0.52020  Biso   1.000  H
  H31      1.0000 0.32710  0.82090  0.97980  Biso   1.000  H
  H32      1.0000 0.67290  0.82090  0.52020  Biso   1.000  H
  H33      1.0000 0.09160  0.53740  0.99830  Biso   1.000  H
  H34      1.0000 0.90840  0.53740  0.50170  Biso   1.000  H
  H35      1.0000 0.59160  0.03740  0.99830  Biso   1.000  H
  H36      1.0000 0.40840  0.03740  0.50170  Biso   1.000  H
  H37      1.0000 0.90840  0.46260  0.00170  Biso   1.000  H
  H38      1.0000 0.09160  0.46260  0.49830  Biso   1.000  H
  H39      1.0000 0.40840  0.96260  0.00170  Biso   1.000  H
  H40      1.0000 0.59160  0.96260  0.49830  Biso   1.000  H
  H41      1.0000 0.16050  0.55750  0.94480  Biso   1.000  H
  H42      1.0000 0.83950  0.55750  0.55520  Biso   1.000  H
  H43      1.0000 0.66050  0.05750  0.94480  Biso   1.000  H
  H44      1.0000 0.33950  0.05750  0.55520  Biso   1.000  H
  H45      1.0000 0.83950  0.44250  0.05520  Biso   1.000  H
  H46      1.0000 0.16050  0.44250  0.44480  Biso   1.000  H
  H47      1.0000 0.33950  0.94250  0.05520  Biso   1.000  H
  H48      1.0000 0.66050  0.94250  0.44480  Biso   1.000  H
  C49      1.0000 0.26594  0.12820  0.22824  Biso   1.000  C
  C50      1.0000 0.73406  0.12820  0.27176  Biso   1.000  C
  C51      1.0000 0.76594  0.62820  0.22824  Biso   1.000  C
  C52      1.0000 0.23406  0.62820  0.27176  Biso   1.000  C
  C53      1.0000 0.73406  0.87180  0.77176  Biso   1.000  C
  C54      1.0000 0.26594  0.87180  0.72824  Biso   1.000  C
  C55      1.0000 0.23406  0.37180  0.77176  Biso   1.000  C
  C56      1.0000 0.76594  0.37180  0.72824  Biso   1.000  C
  H49      1.0000 0.27540  0.01650  0.21280  Biso   1.000  H
  H50      1.0000 0.72460  0.01650  0.28720  Biso   1.000  H
  H51      1.0000 0.77540  0.51650  0.21280  Biso   1.000  H
  H52      1.0000 0.22460  0.51650  0.28720  Biso   1.000  H
  H53      1.0000 0.72460  0.98350  0.78720  Biso   1.000  H
  H54      1.0000 0.27540  0.98350  0.71280  Biso   1.000  H
  H55      1.0000 0.22460  0.48350  0.78720  Biso   1.000  H
  H56      1.0000 0.77540  0.48350  0.71280  Biso   1.000  H
  H57      1.0000 0.19750  0.14190  0.22520  Biso   1.000  H
  H58      1.0000 0.80250  0.14190  0.27480  Biso   1.000  H
  H59      1.0000 0.69750  0.64190  0.22520  Biso   1.000  H
  H60      1.0000 0.30250  0.64190  0.27480  Biso   1.000  H
  H61      1.0000 0.80250  0.85810  0.77480  Biso   1.000  H
  H62      1.0000 0.19750  0.85810  0.72520  Biso   1.000  H
  H63      1.0000 0.30250  0.35810  0.77480  Biso   1.000  H
  H64      1.0000 0.69750  0.35810  0.72520  Biso   1.000  H
  H65      1.0000 0.31190  0.15000  0.28510  Biso   1.000  H
  H66      1.0000 0.68810  0.15000  0.21490  Biso   1.000  H
  H67      1.0000 0.81190  0.65000  0.28510  Biso   1.000  H
  H68      1.0000 0.18810  0.65000  0.21490  Biso   1.000  H
  H69      1.0000 0.68810  0.85000  0.71490  Biso   1.000  H
  H70      1.0000 0.31190  0.85000  0.78510  Biso   1.000  H
  H71      1.0000 0.18810  0.35000  0.71490  Biso   1.000  H
  H72      1.0000 0.81190  0.35000  0.78510  Biso   1.000  H
