data_image0
_cell_length_a       18.775
_cell_length_b       15.626
_cell_length_c       12.872
_cell_angle_alpha    90
_cell_angle_beta     99.973
_cell_angle_gamma    90

_symmetry_space_group_name_H-M    "P 1"
_symmetry_int_tables_number       1

loop_
  _symmetry_equiv_pos_as_xyz
  'x, y, z'

loop_
  _atom_site_label
  _atom_site_occupancy
  _atom_site_fract_x
  _atom_site_fract_y
  _atom_site_fract_z
  _atom_site_thermal_displace_type
  _atom_site_B_iso_or_equiv
  _atom_site_type_symbol
  C1       1.0000 0.10230  0.76500  0.19660  Biso   1.000  C
  C2       1.0000 0.89770  0.76500  0.80340  Biso   1.000  C
  C3       1.0000 0.60230  0.26500  0.19660  Biso   1.000  C
  C4       1.0000 0.39770  0.26500  0.80340  Biso   1.000  C
  H1       1.0000 0.10300  0.82350  0.18360  Biso   1.000  H
  H2       1.0000 0.89700  0.82350  0.81640  Biso   1.000  H
  H3       1.0000 0.60300  0.32350  0.18360  Biso   1.000  H
  H4       1.0000 0.39700  0.32350  0.81640  Biso   1.000  H
  C5       1.0000 0.09950  0.70930  0.11280  Biso   1.000  C
  C6       1.0000 0.90050  0.70930  0.88720  Biso   1.000  C
  C7       1.0000 0.59950  0.20930  0.11280  Biso   1.000  C
  C8       1.0000 0.40050  0.20930  0.88720  Biso   1.000  C
  H5       1.0000 0.10050  0.73090  0.04570  Biso   1.000  H
  H6       1.0000 0.89950  0.73090  0.95430  Biso   1.000  H
  H7       1.0000 0.60050  0.23090  0.04570  Biso   1.000  H
  H8       1.0000 0.39950  0.23090  0.95430  Biso   1.000  H
  C9       1.0000 0.09520  0.62160  0.12700  Biso   1.000  C
  C10      1.0000 0.90480  0.62160  0.87300  Biso   1.000  C
  C11      1.0000 0.59520  0.12160  0.12700  Biso   1.000  C
  C12      1.0000 0.40480  0.12160  0.87300  Biso   1.000  C
  C13      1.0000 0.09490  0.59640  0.22990  Biso   1.000  C
  C14      1.0000 0.90510  0.59640  0.77010  Biso   1.000  C
  C15      1.0000 0.59490  0.09640  0.22990  Biso   1.000  C
  C16      1.0000 0.40510  0.09640  0.77010  Biso   1.000  C
  H9       1.0000 0.09070  0.53870  0.24550  Biso   1.000  H
  H10      1.0000 0.90930  0.53870  0.75450  Biso   1.000  H
  H11      1.0000 0.59070  0.03870  0.24550  Biso   1.000  H
  H12      1.0000 0.40930  0.03870  0.75450  Biso   1.000  H
  C17      1.0000 0.10100  0.65630  0.30940  Biso   1.000  C
  C18      1.0000 0.89900  0.65630  0.69060  Biso   1.000  C
  C19      1.0000 0.60100  0.15630  0.30940  Biso   1.000  C
  C20      1.0000 0.39900  0.15630  0.69060  Biso   1.000  C
  H13      1.0000 0.10290  0.63680  0.37810  Biso   1.000  H
  H14      1.0000 0.89710  0.63680  0.62190  Biso   1.000  H
  H15      1.0000 0.60290  0.13680  0.37810  Biso   1.000  H
  H16      1.0000 0.39710  0.13680  0.62190  Biso   1.000  H
  C21      1.0000 0.09200  0.56500  0.03670  Biso   1.000  C
  C22      1.0000 0.90800  0.56500  0.96330  Biso   1.000  C
  C23      1.0000 0.59200  0.06500  0.03670  Biso   1.000  C
  C24      1.0000 0.40800  0.06500  0.96330  Biso   1.000  C
  C25      1.0000 0.09320  0.52460  0.88140  Biso   1.000  C
  C26      1.0000 0.90680  0.52460  0.11860  Biso   1.000  C
  C27      1.0000 0.59320  0.02460  0.88140  Biso   1.000  C
  C28      1.0000 0.40680  0.02460  0.11860  Biso   1.000  C
  C29      1.0000 0.09490  0.52740  0.76850  Biso   1.000  C
  C30      1.0000 0.90510  0.52740  0.23150  Biso   1.000  C
  C31      1.0000 0.59490  0.02740  0.76850  Biso   1.000  C
  C32      1.0000 0.40510  0.02740  0.23150  Biso   1.000  C
  C33      1.0000 0.08710  0.60320  0.71730  Biso   1.000  C
  C34      1.0000 0.91290  0.60320  0.28270  Biso   1.000  C
  C35      1.0000 0.58710  0.10320  0.71730  Biso   1.000  C
  C36      1.0000 0.41290  0.10320  0.28270  Biso   1.000  C
  H17      1.0000 0.07910  0.65290  0.75340  Biso   1.000  H
  H18      1.0000 0.92090  0.65290  0.24660  Biso   1.000  H
  H19      1.0000 0.57910  0.15290  0.75340  Biso   1.000  H
  H20      1.0000 0.42090  0.15290  0.24660  Biso   1.000  H
  C37      1.0000 0.09090  0.60690  0.60950  Biso   1.000  C
  C38      1.0000 0.90910  0.60690  0.39050  Biso   1.000  C
  C39      1.0000 0.59090  0.10690  0.60950  Biso   1.000  C
  C40      1.0000 0.40910  0.10690  0.39050  Biso   1.000  C
  H21      1.0000 0.08540  0.66010  0.57670  Biso   1.000  H
  H22      1.0000 0.91460  0.66010  0.42330  Biso   1.000  H
  H23      1.0000 0.58540  0.16010  0.57670  Biso   1.000  H
  H24      1.0000 0.41460  0.16010  0.42330  Biso   1.000  H
  C41      1.0000 0.10790  0.46810  0.60190  Biso   1.000  C
  C42      1.0000 0.89210  0.46810  0.39810  Biso   1.000  C
  C43      1.0000 0.60790  0.96810  0.60190  Biso   1.000  C
  C44      1.0000 0.39210  0.96810  0.39810  Biso   1.000  C
  H25      1.0000 0.11380  0.41940  0.56280  Biso   1.000  H
  H26      1.0000 0.88620  0.41940  0.43720  Biso   1.000  H
  H27      1.0000 0.61380  0.91940  0.56280  Biso   1.000  H
  H28      1.0000 0.38620  0.91940  0.43720  Biso   1.000  H
  C45      1.0000 0.10660  0.45690  0.70850  Biso   1.000  C
  C46      1.0000 0.89340  0.45690  0.29150  Biso   1.000  C
  C47      1.0000 0.60660  0.95690  0.70850  Biso   1.000  C
  C48      1.0000 0.39340  0.95690  0.29150  Biso   1.000  C
  H29      1.0000 0.11340  0.40290  0.73900  Biso   1.000  H
  H30      1.0000 0.88660  0.40290  0.26100  Biso   1.000  H
  H31      1.0000 0.61340  0.90290  0.73900  Biso   1.000  H
  H32      1.0000 0.38660  0.90290  0.26100  Biso   1.000  H
  C49      1.0000 0.80260  0.35000  0.64750  Biso   1.000  C
  C50      1.0000 0.19740  0.35000  0.35250  Biso   1.000  C
  C51      1.0000 0.30260  0.85000  0.64750  Biso   1.000  C
  C52      1.0000 0.69740  0.85000  0.35250  Biso   1.000  C
  H33      1.0000 0.81580  0.38590  0.70530  Biso   1.000  H
  H34      1.0000 0.18420  0.38590  0.29470  Biso   1.000  H
  H35      1.0000 0.31580  0.88590  0.70530  Biso   1.000  H
  H36      1.0000 0.68420  0.88590  0.29470  Biso   1.000  H
  C53      1.0000 0.73390  0.35410  0.58930  Biso   1.000  C
  C54      1.0000 0.26610  0.35410  0.41070  Biso   1.000  C
  C55      1.0000 0.23390  0.85410  0.58930  Biso   1.000  C
  C56      1.0000 0.76610  0.85410  0.41070  Biso   1.000  C
  H37      1.0000 0.70250  0.39380  0.61070  Biso   1.000  H
  H38      1.0000 0.29750  0.39380  0.38930  Biso   1.000  H
  H39      1.0000 0.20250  0.89380  0.61070  Biso   1.000  H
  H40      1.0000 0.79750  0.89380  0.38930  Biso   1.000  H
  C57      1.0000 0.75590  0.25300  0.48040  Biso   1.000  C
  C58      1.0000 0.24410  0.25300  0.51960  Biso   1.000  C
  C59      1.0000 0.25590  0.75300  0.48040  Biso   1.000  C
  C60      1.0000 0.74410  0.75300  0.51960  Biso   1.000  C
  H41      1.0000 0.74150  0.21850  0.42170  Biso   1.000  H
  H42      1.0000 0.25850  0.21850  0.57830  Biso   1.000  H
  H43      1.0000 0.24150  0.71850  0.42170  Biso   1.000  H
  H44      1.0000 0.75850  0.71850  0.57830  Biso   1.000  H
  C61      1.0000 0.82440  0.24390  0.53360  Biso   1.000  C
  C62      1.0000 0.17560  0.24390  0.46640  Biso   1.000  C
  C63      1.0000 0.32440  0.74390  0.53360  Biso   1.000  C
  C64      1.0000 0.67560  0.74390  0.46640  Biso   1.000  C
  H45      1.0000 0.85420  0.20300  0.51070  Biso   1.000  H
  H46      1.0000 0.14580  0.20300  0.48930  Biso   1.000  H
  H47      1.0000 0.35420  0.70300  0.51070  Biso   1.000  H
  H48      1.0000 0.64580  0.70300  0.48930  Biso   1.000  H
  C65      1.0000 0.85130  0.29330  0.62040  Biso   1.000  C
  C66      1.0000 0.14870  0.29330  0.37960  Biso   1.000  C
  C67      1.0000 0.35130  0.79330  0.62040  Biso   1.000  C
  C68      1.0000 0.64870  0.79330  0.37960  Biso   1.000  C
  C69      1.0000 0.92420  0.27810  0.67590  Biso   1.000  C
  C70      1.0000 0.07580  0.27810  0.32410  Biso   1.000  C
  C71      1.0000 0.42420  0.77810  0.67590  Biso   1.000  C
  C72      1.0000 0.57580  0.77810  0.32410  Biso   1.000  C
  C73      1.0000 0.02510  0.22340  0.71740  Biso   1.000  C
  C74      1.0000 0.97490  0.22340  0.28260  Biso   1.000  C
  C75      1.0000 0.52510  0.72340  0.71740  Biso   1.000  C
  C76      1.0000 0.47490  0.72340  0.28260  Biso   1.000  C
  C77      1.0000 0.08720  0.16560  0.71400  Biso   1.000  C
  C78      1.0000 0.91280  0.16560  0.28600  Biso   1.000  C
  C79      1.0000 0.58720  0.66560  0.71400  Biso   1.000  C
  C80      1.0000 0.41280  0.66560  0.28600  Biso   1.000  C
  C81      1.0000 0.08380  0.10670  0.63430  Biso   1.000  C
  C82      1.0000 0.91620  0.10670  0.36570  Biso   1.000  C
  C83      1.0000 0.58380  0.60670  0.63430  Biso   1.000  C
  C84      1.0000 0.41620  0.60670  0.36570  Biso   1.000  C
  H49      1.0000 0.04320  0.10410  0.58150  Biso   1.000  H
  H50      1.0000 0.95680  0.10410  0.41850  Biso   1.000  H
  H51      1.0000 0.54320  0.60410  0.58150  Biso   1.000  H
  H52      1.0000 0.45680  0.60410  0.41850  Biso   1.000  H
  C85      1.0000 0.14090  0.05110  0.63270  Biso   1.000  C
  C86      1.0000 0.85910  0.05110  0.36730  Biso   1.000  C
  C87      1.0000 0.64090  0.55110  0.63270  Biso   1.000  C
  C88      1.0000 0.35910  0.55110  0.36730  Biso   1.000  C
  H53      1.0000 0.13790  0.01490  0.57480  Biso   1.000  H
  H54      1.0000 0.86210  0.01490  0.42520  Biso   1.000  H
  H55      1.0000 0.63790  0.51490  0.57480  Biso   1.000  H
  H56      1.0000 0.36210  0.51490  0.42520  Biso   1.000  H
  C89      1.0000 0.20150  0.10090  0.77910  Biso   1.000  C
  C90      1.0000 0.79850  0.10090  0.22090  Biso   1.000  C
  C91      1.0000 0.70150  0.60090  0.77910  Biso   1.000  C
  C92      1.0000 0.29850  0.60090  0.22090  Biso   1.000  C
  H57      1.0000 0.24260  0.10010  0.83120  Biso   1.000  H
  H58      1.0000 0.75740  0.10010  0.16880  Biso   1.000  H
  H59      1.0000 0.74260  0.60010  0.83120  Biso   1.000  H
  H60      1.0000 0.25740  0.60010  0.16880  Biso   1.000  H
  C93      1.0000 0.14860  0.16220  0.78790  Biso   1.000  C
  C94      1.0000 0.85140  0.16220  0.21210  Biso   1.000  C
  C95      1.0000 0.64860  0.66220  0.78790  Biso   1.000  C
  C96      1.0000 0.35140  0.66220  0.21210  Biso   1.000  C
  H61      1.0000 0.15540  0.20060  0.84400  Biso   1.000  H
  H62      1.0000 0.84460  0.20060  0.15600  Biso   1.000  H
  H63      1.0000 0.65540  0.70060  0.84400  Biso   1.000  H
  H64      1.0000 0.34460  0.70060  0.15600  Biso   1.000  H
  C97      1.0000 0.25800  0.36990  0.99320  Biso   1.000  C
  C98      1.0000 0.74200  0.36990  0.00680  Biso   1.000  C
  C99      1.0000 0.75800  0.86990  0.99320  Biso   1.000  C
  C100     1.0000 0.24200  0.86990  0.00680  Biso   1.000  C
  H65      1.0000 0.21700  0.37310  0.94110  Biso   1.000  H
  H66      1.0000 0.78300  0.37310  0.05890  Biso   1.000  H
  H67      1.0000 0.71700  0.87310  0.94110  Biso   1.000  H
  H68      1.0000 0.28300  0.87310  0.05890  Biso   1.000  H
  C101     1.0000 0.31820  0.42370  0.98890  Biso   1.000  C
  C102     1.0000 0.68180  0.42370  0.01110  Biso   1.000  C
  C103     1.0000 0.81820  0.92370  0.98890  Biso   1.000  C
  C104     1.0000 0.18180  0.92370  0.01110  Biso   1.000  C
  H69      1.0000 0.31380  0.46420  0.93530  Biso   1.000  H
  H70      1.0000 0.68620  0.46420  0.06470  Biso   1.000  H
  H71      1.0000 0.81380  0.96420  0.93530  Biso   1.000  H
  H72      1.0000 0.18620  0.96420  0.06470  Biso   1.000  H
  C105     1.0000 0.38010  0.36710  0.13110  Biso   1.000  C
  C106     1.0000 0.61990  0.36710  0.86890  Biso   1.000  C
  C107     1.0000 0.88010  0.86710  0.13110  Biso   1.000  C
  C108     1.0000 0.11990  0.86710  0.86890  Biso   1.000  C
  H73      1.0000 0.42260  0.36410  0.18030  Biso   1.000  H
  H74      1.0000 0.57740  0.36410  0.81970  Biso   1.000  H
  H75      1.0000 0.92260  0.86410  0.18030  Biso   1.000  H
  H76      1.0000 0.07740  0.86410  0.81970  Biso   1.000  H
  C109     1.0000 0.32330  0.31370  0.14640  Biso   1.000  C
  C110     1.0000 0.67670  0.31370  0.85360  Biso   1.000  C
  C111     1.0000 0.82330  0.81370  0.14640  Biso   1.000  C
  C112     1.0000 0.17670  0.81370  0.85360  Biso   1.000  C
  H77      1.0000 0.32770  0.27830  0.20520  Biso   1.000  H
  H78      1.0000 0.67230  0.27830  0.79480  Biso   1.000  H
  H79      1.0000 0.82770  0.77830  0.20520  Biso   1.000  H
  H80      1.0000 0.17230  0.77830  0.79480  Biso   1.000  H
  C113     1.0000 0.26080  0.31410  0.07350  Biso   1.000  C
  C114     1.0000 0.73920  0.31410  0.92650  Biso   1.000  C
  C115     1.0000 0.76080  0.81410  0.07350  Biso   1.000  C
  C116     1.0000 0.23920  0.81410  0.92650  Biso   1.000  C
  C117     1.0000 0.20160  0.25450  0.08650  Biso   1.000  C
  C118     1.0000 0.79840  0.25450  0.91350  Biso   1.000  C
  C119     1.0000 0.70160  0.75450  0.08650  Biso   1.000  C
  C120     1.0000 0.29840  0.75450  0.91350  Biso   1.000  C
  C121     1.0000 0.14660  0.15390  0.14510  Biso   1.000  C
  C122     1.0000 0.85340  0.15390  0.85490  Biso   1.000  C
  C123     1.0000 0.64660  0.65390  0.14510  Biso   1.000  C
  C124     1.0000 0.35340  0.65390  0.85490  Biso   1.000  C
  C125     1.0000 0.13470  0.08240  0.21250  Biso   1.000  C
  C126     1.0000 0.86530  0.08240  0.78750  Biso   1.000  C
  C127     1.0000 0.63470  0.58240  0.21250  Biso   1.000  C
  C128     1.0000 0.36530  0.58240  0.78750  Biso   1.000  C
  C129     1.0000 0.19490  0.04480  0.27460  Biso   1.000  C
  C130     1.0000 0.80510  0.04480  0.72540  Biso   1.000  C
  C131     1.0000 0.69490  0.54480  0.27460  Biso   1.000  C
  C132     1.0000 0.30510  0.54480  0.72540  Biso   1.000  C
  H81      1.0000 0.24110  0.06530  0.27290  Biso   1.000  H
  H82      1.0000 0.75890  0.06530  0.72710  Biso   1.000  H
  H83      1.0000 0.74110  0.56530  0.27290  Biso   1.000  H
  H84      1.0000 0.25890  0.56530  0.72710  Biso   1.000  H
  C133     1.0000 0.18470  0.97660  0.33860  Biso   1.000  C
  C134     1.0000 0.81530  0.97660  0.66140  Biso   1.000  C
  C135     1.0000 0.68470  0.47660  0.33860  Biso   1.000  C
  C136     1.0000 0.31530  0.47660  0.66140  Biso   1.000  C
  H85      1.0000 0.22530  0.95360  0.38100  Biso   1.000  H
  H86      1.0000 0.77470  0.95360  0.61900  Biso   1.000  H
  H87      1.0000 0.72530  0.45360  0.38100  Biso   1.000  H
  H88      1.0000 0.27470  0.45360  0.61900  Biso   1.000  H
  C137     1.0000 0.06490  0.98030  0.28950  Biso   1.000  C
  C138     1.0000 0.93510  0.98030  0.71050  Biso   1.000  C
  C139     1.0000 0.56490  0.48030  0.28950  Biso   1.000  C
  C140     1.0000 0.43510  0.48030  0.71050  Biso   1.000  C
  H89      1.0000 0.01930  0.96080  0.29710  Biso   1.000  H
  H90      1.0000 0.98070  0.96080  0.70290  Biso   1.000  H
  H91      1.0000 0.51930  0.46080  0.29710  Biso   1.000  H
  H92      1.0000 0.48070  0.46080  0.70290  Biso   1.000  H
  C141     1.0000 0.06870  0.04770  0.22230  Biso   1.000  C
  C142     1.0000 0.93130  0.04770  0.77770  Biso   1.000  C
  C143     1.0000 0.56870  0.54770  0.22230  Biso   1.000  C
  C144     1.0000 0.43130  0.54770  0.77770  Biso   1.000  C
  H93      1.0000 0.02650  0.07010  0.18320  Biso   1.000  H
  H94      1.0000 0.97350  0.07010  0.81680  Biso   1.000  H
  H95      1.0000 0.52650  0.57010  0.18320  Biso   1.000  H
  H96      1.0000 0.47350  0.57010  0.81680  Biso   1.000  H
  Cu1      1.0000 0.08101  0.32728  0.91829  Biso   1.000  Cu
  Cu2      1.0000 0.91899  0.32728  0.08171  Biso   1.000  Cu
  Cu3      1.0000 0.58101  0.82728  0.91829  Biso   1.000  Cu
  Cu4      1.0000 0.41899  0.82728  0.08171  Biso   1.000  Cu
  Cu5      1.0000 0.10907  0.82610  0.41894  Biso   1.000  Cu
  Cu6      1.0000 0.89093  0.82610  0.58106  Biso   1.000  Cu
  Cu7      1.0000 0.60907  0.32610  0.41894  Biso   1.000  Cu
  Cu8      1.0000 0.39093  0.32610  0.58106  Biso   1.000  Cu
  Cu9      1.0000 0.93044  0.39920  0.86003  Biso   1.000  Cu
  Cu10     1.0000 0.06956  0.39920  0.13997  Biso   1.000  Cu
  Cu11     1.0000 0.43044  0.89920  0.86003  Biso   1.000  Cu
  Cu12     1.0000 0.56956  0.89920  0.13997  Biso   1.000  Cu
  Cu13     1.0000 0.00000  0.17104  0.00000  Biso   1.000  Cu
  Cu14     1.0000 0.50000  0.67104  0.00000  Biso   1.000  Cu
  N1       1.0000 0.10400  0.73870  0.29440  Biso   1.000  N
  N2       1.0000 0.89600  0.73870  0.70560  Biso   1.000  N
  N3       1.0000 0.60400  0.23870  0.29440  Biso   1.000  N
  N4       1.0000 0.39600  0.23870  0.70560  Biso   1.000  N
  N5       1.0000 0.08730  0.48050  0.04090  Biso   1.000  N
  N6       1.0000 0.91270  0.48050  0.95910  Biso   1.000  N
  N7       1.0000 0.58730  0.98050  0.04090  Biso   1.000  N
  N8       1.0000 0.41270  0.98050  0.95910  Biso   1.000  N
  N9       1.0000 0.08780  0.45200  0.93770  Biso   1.000  N
  N10      1.0000 0.91220  0.45200  0.06230  Biso   1.000  N
  N11      1.0000 0.58780  0.95200  0.93770  Biso   1.000  N
  N12      1.0000 0.41220  0.95200  0.06230  Biso   1.000  N
  N13      1.0000 0.09560  0.59500  0.94070  Biso   1.000  N
  N14      1.0000 0.90440  0.59500  0.05930  Biso   1.000  N
  N15      1.0000 0.59560  0.09500  0.94070  Biso   1.000  N
  N16      1.0000 0.40440  0.09500  0.05930  Biso   1.000  N
  N17      1.0000 0.10170  0.54060  0.55190  Biso   1.000  N
  N18      1.0000 0.89830  0.54060  0.44810  Biso   1.000  N
  N19      1.0000 0.60170  0.04060  0.55190  Biso   1.000  N
  N20      1.0000 0.39830  0.04060  0.44810  Biso   1.000  N
  N21      1.0000 0.70860  0.30720  0.50630  Biso   1.000  N
  N22      1.0000 0.29140  0.30720  0.49370  Biso   1.000  N
  N23      1.0000 0.20860  0.80720  0.50630  Biso   1.000  N
  N24      1.0000 0.79140  0.80720  0.49370  Biso   1.000  N
  N25      1.0000 0.96660  0.22030  0.64230  Biso   1.000  N
  N26      1.0000 0.03340  0.22030  0.35770  Biso   1.000  N
  N27      1.0000 0.46660  0.72030  0.64230  Biso   1.000  N
  N28      1.0000 0.53340  0.72030  0.35770  Biso   1.000  N
  N29      1.0000 0.95480  0.31930  0.76380  Biso   1.000  N
  N30      1.0000 0.04520  0.31930  0.23620  Biso   1.000  N
  N31      1.0000 0.45480  0.81930  0.76380  Biso   1.000  N
  N32      1.0000 0.54520  0.81930  0.23620  Biso   1.000  N
  N33      1.0000 0.02270  0.28170  0.79230  Biso   1.000  N
  N34      1.0000 0.97730  0.28170  0.20770  Biso   1.000  N
  N35      1.0000 0.52270  0.78170  0.79230  Biso   1.000  N
  N36      1.0000 0.47730  0.78170  0.20770  Biso   1.000  N
  N37      1.0000 0.19780  0.04500  0.70390  Biso   1.000  N
  N38      1.0000 0.80220  0.04500  0.29610  Biso   1.000  N
  N39      1.0000 0.69780  0.54500  0.70390  Biso   1.000  N
  N40      1.0000 0.30220  0.54500  0.29610  Biso   1.000  N
  N41      1.0000 0.37820  0.42060  0.05350  Biso   1.000  N
  N42      1.0000 0.62180  0.42060  0.94650  Biso   1.000  N
  N43      1.0000 0.87820  0.92060  0.05350  Biso   1.000  N
  N44      1.0000 0.12180  0.92060  0.94650  Biso   1.000  N
  N45      1.0000 0.21120  0.19360  0.15980  Biso   1.000  N
  N46      1.0000 0.78880  0.19360  0.84020  Biso   1.000  N
  N47      1.0000 0.71120  0.69360  0.15980  Biso   1.000  N
  N48      1.0000 0.28880  0.69360  0.84020  Biso   1.000  N
  N49      1.0000 0.13410  0.25740  0.03030  Biso   1.000  N
  N50      1.0000 0.86590  0.25740  0.96970  Biso   1.000  N
  N51      1.0000 0.63410  0.75740  0.03030  Biso   1.000  N
  N52      1.0000 0.36590  0.75740  0.96970  Biso   1.000  N
  N53      1.0000 0.09810  0.18920  0.06730  Biso   1.000  N
  N54      1.0000 0.90190  0.18920  0.93270  Biso   1.000  N
  N55      1.0000 0.59810  0.68920  0.06730  Biso   1.000  N
  N56      1.0000 0.40190  0.68920  0.93270  Biso   1.000  N
  N57      1.0000 0.12130  0.94160  0.34380  Biso   1.000  N
  N58      1.0000 0.87870  0.94160  0.65620  Biso   1.000  N
  N59      1.0000 0.62130  0.44160  0.34380  Biso   1.000  N
  N60      1.0000 0.37870  0.44160  0.65620  Biso   1.000  N
  C145     1.0000 0.02680  0.82670  0.48190  Biso   1.000  C
  C146     1.0000 0.97320  0.82670  0.51810  Biso   1.000  C
  C147     1.0000 0.52680  0.32670  0.48190  Biso   1.000  C
  C148     1.0000 0.47320  0.32670  0.51810  Biso   1.000  C
  O1       1.0000 0.00000  0.01490  0.00000  Biso   1.000  O
  O2       1.0000 0.50000  0.51490  0.00000  Biso   1.000  O
