data_image0
_cell_length_a       9.5
_cell_length_b       4.1
_cell_length_c       18.781
_cell_angle_alpha    90
_cell_angle_beta     102.84
_cell_angle_gamma    90

_symmetry_space_group_name_H-M    "P 1"
_symmetry_int_tables_number       1

loop_
  _symmetry_equiv_pos_as_xyz
  'x, y, z'

loop_
  _atom_site_label
  _atom_site_occupancy
  _atom_site_fract_x
  _atom_site_fract_y
  _atom_site_fract_z
  _atom_site_thermal_displace_type
  _atom_site_B_iso_or_equiv
  _atom_site_type_symbol
  I1       1.0000 0.31333  0.11067  0.65542  Biso   1.000  I
  I2       1.0000 0.81333  0.38933  0.15542  Biso   1.000  I
  I3       1.0000 0.68667  0.88933  0.34458  Biso   1.000  I
  I4       1.0000 0.18667  0.61067  0.84458  Biso   1.000  I
  Cu1      1.0000 0.31958  0.11040  0.79620  Biso   1.000  Cu
  Cu2      1.0000 0.81958  0.38960  0.29620  Biso   1.000  Cu
  Cu3      1.0000 0.68042  0.88960  0.20380  Biso   1.000  Cu
  Cu4      1.0000 0.18042  0.61040  0.70380  Biso   1.000  Cu
  N1       1.0000 0.53290  0.08950  0.84990  Biso   1.000  N
  N2       1.0000 0.03290  0.41050  0.34990  Biso   1.000  N
  N3       1.0000 0.46710  0.91050  0.15010  Biso   1.000  N
  N4       1.0000 0.96710  0.58950  0.65010  Biso   1.000  N
  C1       1.0000 0.56880  0.94900  0.91700  Biso   1.000  C
  C2       1.0000 0.06880  0.55100  0.41700  Biso   1.000  C
  C3       1.0000 0.43120  0.05100  0.08300  Biso   1.000  C
  C4       1.0000 0.93120  0.44900  0.58300  Biso   1.000  C
  H1       1.0000 0.49580  0.85700  0.93730  Biso   1.000  H
  H2       1.0000 0.99580  0.64300  0.43730  Biso   1.000  H
  H3       1.0000 0.50420  0.14300  0.06270  Biso   1.000  H
  H4       1.0000 0.00420  0.35700  0.56270  Biso   1.000  H
  C5       1.0000 0.71160  0.93700  0.95650  Biso   1.000  C
  C6       1.0000 0.21160  0.56300  0.45650  Biso   1.000  C
  C7       1.0000 0.28840  0.06300  0.04350  Biso   1.000  C
  C8       1.0000 0.78840  0.43700  0.54350  Biso   1.000  C
  H5       1.0000 0.73290  0.83670  0.00270  Biso   1.000  H
  H6       1.0000 0.23290  0.66330  0.50270  Biso   1.000  H
  H7       1.0000 0.26710  0.16330  0.99730  Biso   1.000  H
  H8       1.0000 0.76710  0.33670  0.49730  Biso   1.000  H
  C9       1.0000 0.82430  0.07300  0.92860  Biso   1.000  C
  C10      1.0000 0.32430  0.42700  0.42860  Biso   1.000  C
  C11      1.0000 0.17570  0.92700  0.07140  Biso   1.000  C
  C12      1.0000 0.67570  0.57300  0.57140  Biso   1.000  C
  C13      1.0000 0.78330  0.21500  0.85940  Biso   1.000  C
  C14      1.0000 0.28330  0.28500  0.35940  Biso   1.000  C
  C15      1.0000 0.21670  0.78500  0.14060  Biso   1.000  C
  C16      1.0000 0.71670  0.71500  0.64060  Biso   1.000  C
  H9       1.0000 0.85380  0.30770  0.83750  Biso   1.000  H
  H10      1.0000 0.35380  0.19230  0.33750  Biso   1.000  H
  H11      1.0000 0.14620  0.69230  0.16250  Biso   1.000  H
  H12      1.0000 0.64620  0.80770  0.66250  Biso   1.000  H
  C17      1.0000 0.63760  0.22100  0.82240  Biso   1.000  C
  C18      1.0000 0.13760  0.27900  0.32240  Biso   1.000  C
  C19      1.0000 0.36240  0.77900  0.17760  Biso   1.000  C
  C20      1.0000 0.86240  0.72100  0.67760  Biso   1.000  C
  H13      1.0000 0.61290  0.32180  0.77640  Biso   1.000  H
  H14      1.0000 0.11290  0.17820  0.27640  Biso   1.000  H
  H15      1.0000 0.38710  0.67820  0.22360  Biso   1.000  H
  H16      1.0000 0.88710  0.82180  0.72360  Biso   1.000  H
  C21      1.0000 0.97240  0.06700  0.96840  Biso   1.000  C
  C22      1.0000 0.47240  0.43300  0.46840  Biso   1.000  C
  C23      1.0000 0.02760  0.93300  0.03160  Biso   1.000  C
  C24      1.0000 0.52760  0.56700  0.53160  Biso   1.000  C
  H17      1.0000 0.03840  0.17360  0.94580  Biso   1.000  H
  H18      1.0000 0.53840  0.32640  0.44580  Biso   1.000  H
  H19      1.0000 0.96160  0.82640  0.05420  Biso   1.000  H
  H20      1.0000 0.46160  0.67360  0.55420  Biso   1.000  H
