data_image0
_cell_length_a       4.1554
_cell_length_b       15.159
_cell_length_c       7.0487
_cell_angle_alpha    90
_cell_angle_beta     96.806
_cell_angle_gamma    90

_symmetry_space_group_name_H-M    "P 1"
_symmetry_int_tables_number       1

loop_
  _symmetry_equiv_pos_as_xyz
  'x, y, z'

loop_
  _atom_site_label
  _atom_site_occupancy
  _atom_site_fract_x
  _atom_site_fract_y
  _atom_site_fract_z
  _atom_site_thermal_displace_type
  _atom_site_B_iso_or_equiv
  _atom_site_type_symbol
  Cu1      1.0000 0.24530  0.44066  0.99788  Biso   1.000  Cu
  Cu2      1.0000 0.24530  0.05934  0.99788  Biso   1.000  Cu
  Cu3      1.0000 0.75470  0.55934  0.00212  Biso   1.000  Cu
  Cu4      1.0000 0.75470  0.94066  0.00212  Biso   1.000  Cu
  I1       1.0000 0.19871  0.57673  0.76719  Biso   1.000  I
  I2       1.0000 0.19871  0.92327  0.76719  Biso   1.000  I
  I3       1.0000 0.80129  0.42327  0.23281  Biso   1.000  I
  I4       1.0000 0.80129  0.07673  0.23281  Biso   1.000  I
  N1       1.0000 0.26040  0.32880  0.83370  Biso   1.000  N
  N2       1.0000 0.26040  0.17120  0.83370  Biso   1.000  N
  N3       1.0000 0.73960  0.67120  0.16630  Biso   1.000  N
  N4       1.0000 0.73960  0.82880  0.16630  Biso   1.000  N
  C1       1.0000 0.21300  0.25000  0.90770  Biso   1.000  C
  C2       1.0000 0.78700  0.75000  0.09230  Biso   1.000  C
  H1       1.0000 0.13650  0.25000  0.02650  Biso   1.000  H
  H2       1.0000 0.86350  0.75000  0.97350  Biso   1.000  H
  C3       1.0000 0.36800  0.32750  0.66150  Biso   1.000  C
  C4       1.0000 0.36800  0.17250  0.66150  Biso   1.000  C
  C5       1.0000 0.63200  0.67250  0.33850  Biso   1.000  C
  C6       1.0000 0.63200  0.82750  0.33850  Biso   1.000  C
  H3       1.0000 0.40240  0.38050  0.60060  Biso   1.000  H
  H4       1.0000 0.40240  0.11950  0.60060  Biso   1.000  H
  H5       1.0000 0.59760  0.61950  0.39940  Biso   1.000  H
  H6       1.0000 0.59760  0.88050  0.39940  Biso   1.000  H
  C7       1.0000 0.42800  0.25000  0.57450  Biso   1.000  C
  C8       1.0000 0.57200  0.75000  0.42550  Biso   1.000  C
  H7       1.0000 0.50930  0.25000  0.45700  Biso   1.000  H
  H8       1.0000 0.49070  0.75000  0.54300  Biso   1.000  H
