data_image0
_cell_length_a       4.228
_cell_length_b       14.784
_cell_length_c       19.093
_cell_angle_alpha    90
_cell_angle_beta     91.75
_cell_angle_gamma    90

_symmetry_space_group_name_H-M    "P 1"
_symmetry_int_tables_number       1

loop_
  _symmetry_equiv_pos_as_xyz
  'x, y, z'

loop_
  _atom_site_label
  _atom_site_occupancy
  _atom_site_fract_x
  _atom_site_fract_y
  _atom_site_fract_z
  _atom_site_thermal_displace_type
  _atom_site_B_iso_or_equiv
  _atom_site_type_symbol
  I1       1.0000 0.00000  0.03118  0.25000  Biso   1.000  I
  I2       1.0000 0.50000  0.53118  0.25000  Biso   1.000  I
  I3       1.0000 0.00000  0.96882  0.75000  Biso   1.000  I
  I4       1.0000 0.50000  0.46882  0.75000  Biso   1.000  I
  Cu1      1.0000 0.50000  0.92556  0.25000  Biso   1.000  Cu
  Cu2      1.0000 0.00000  0.42556  0.25000  Biso   1.000  Cu
  Cu3      1.0000 0.50000  0.07444  0.75000  Biso   1.000  Cu
  Cu4      1.0000 0.00000  0.57444  0.75000  Biso   1.000  Cu
  N1       1.0000 0.53800  0.85030  0.33980  Biso   1.000  N
  N2       1.0000 0.03800  0.35030  0.33980  Biso   1.000  N
  N3       1.0000 0.53800  0.14970  0.83980  Biso   1.000  N
  N4       1.0000 0.03800  0.64970  0.83980  Biso   1.000  N
  N5       1.0000 0.46200  0.14970  0.66020  Biso   1.000  N
  N6       1.0000 0.96200  0.64970  0.66020  Biso   1.000  N
  N7       1.0000 0.46200  0.85030  0.16020  Biso   1.000  N
  N8       1.0000 0.96200  0.35030  0.16020  Biso   1.000  N
  C1       1.0000 0.71500  0.77490  0.34250  Biso   1.000  C
  C2       1.0000 0.21500  0.27490  0.34250  Biso   1.000  C
  C3       1.0000 0.71500  0.22510  0.84250  Biso   1.000  C
  C4       1.0000 0.21500  0.72510  0.84250  Biso   1.000  C
  C5       1.0000 0.28500  0.22510  0.65750  Biso   1.000  C
  C6       1.0000 0.78500  0.72510  0.65750  Biso   1.000  C
  C7       1.0000 0.28500  0.77490  0.15750  Biso   1.000  C
  C8       1.0000 0.78500  0.27490  0.15750  Biso   1.000  C
  H1       1.0000 0.77920  0.75020  0.30050  Biso   1.000  H
  H2       1.0000 0.27920  0.25020  0.30050  Biso   1.000  H
  H3       1.0000 0.77920  0.24980  0.80050  Biso   1.000  H
  H4       1.0000 0.27920  0.74980  0.80050  Biso   1.000  H
  H5       1.0000 0.22080  0.24980  0.69950  Biso   1.000  H
  H6       1.0000 0.72080  0.74980  0.69950  Biso   1.000  H
  H7       1.0000 0.22080  0.75020  0.19950  Biso   1.000  H
  H8       1.0000 0.72080  0.25020  0.19950  Biso   1.000  H
  C9       1.0000 0.80600  0.73180  0.40400  Biso   1.000  C
  C10      1.0000 0.30600  0.23180  0.40400  Biso   1.000  C
  C11      1.0000 0.80600  0.26820  0.90400  Biso   1.000  C
  C12      1.0000 0.30600  0.76820  0.90400  Biso   1.000  C
  C13      1.0000 0.19400  0.26820  0.59600  Biso   1.000  C
  C14      1.0000 0.69400  0.76820  0.59600  Biso   1.000  C
  C15      1.0000 0.19400  0.73180  0.09600  Biso   1.000  C
  C16      1.0000 0.69400  0.23180  0.09600  Biso   1.000  C
  C17      1.0000 0.70400  0.77070  0.46690  Biso   1.000  C
  C18      1.0000 0.20400  0.27070  0.46690  Biso   1.000  C
  C19      1.0000 0.70400  0.22930  0.96690  Biso   1.000  C
  C20      1.0000 0.20400  0.72930  0.96690  Biso   1.000  C
  C21      1.0000 0.29600  0.22930  0.53310  Biso   1.000  C
  C22      1.0000 0.79600  0.72930  0.53310  Biso   1.000  C
  C23      1.0000 0.29600  0.77070  0.03310  Biso   1.000  C
  C24      1.0000 0.79600  0.27070  0.03310  Biso   1.000  C
  C25      1.0000 0.51400  0.84860  0.46480  Biso   1.000  C
  C26      1.0000 0.01400  0.34860  0.46480  Biso   1.000  C
  C27      1.0000 0.51400  0.15140  0.96480  Biso   1.000  C
  C28      1.0000 0.01400  0.65140  0.96480  Biso   1.000  C
  C29      1.0000 0.48600  0.15140  0.53520  Biso   1.000  C
  C30      1.0000 0.98600  0.65140  0.53520  Biso   1.000  C
  C31      1.0000 0.48600  0.84860  0.03520  Biso   1.000  C
  C32      1.0000 0.98600  0.34860  0.03520  Biso   1.000  C
  C33      1.0000 0.43500  0.88450  0.40010  Biso   1.000  C
  C34      1.0000 0.93500  0.38450  0.40010  Biso   1.000  C
  C35      1.0000 0.43500  0.11550  0.90010  Biso   1.000  C
  C36      1.0000 0.93500  0.61550  0.90010  Biso   1.000  C
  C37      1.0000 0.56500  0.11550  0.59990  Biso   1.000  C
  C38      1.0000 0.06500  0.61550  0.59990  Biso   1.000  C
  C39      1.0000 0.56500  0.88450  0.09990  Biso   1.000  C
  C40      1.0000 0.06500  0.38450  0.09990  Biso   1.000  C
  H9       1.0000 0.30470  0.93510  0.39800  Biso   1.000  H
  H10      1.0000 0.80470  0.43510  0.39800  Biso   1.000  H
  H11      1.0000 0.30470  0.06490  0.89800  Biso   1.000  H
  H12      1.0000 0.80470  0.56490  0.89800  Biso   1.000  H
  H13      1.0000 0.69530  0.06490  0.60200  Biso   1.000  H
  H14      1.0000 0.19530  0.56490  0.60200  Biso   1.000  H
  H15      1.0000 0.69530  0.93510  0.10200  Biso   1.000  H
  H16      1.0000 0.19530  0.43510  0.10200  Biso   1.000  H
  C41      1.0000 0.00400  0.65110  0.40720  Biso   1.000  C
  C42      1.0000 0.50400  0.15110  0.40720  Biso   1.000  C
  C43      1.0000 0.00400  0.34890  0.90720  Biso   1.000  C
  C44      1.0000 0.50400  0.84890  0.90720  Biso   1.000  C
  C45      1.0000 0.99600  0.34890  0.59280  Biso   1.000  C
  C46      1.0000 0.49600  0.84890  0.59280  Biso   1.000  C
  C47      1.0000 0.99600  0.65110  0.09280  Biso   1.000  C
  C48      1.0000 0.49600  0.15110  0.09280  Biso   1.000  C
  H17      1.0000 0.06910  0.62450  0.36590  Biso   1.000  H
  H18      1.0000 0.56910  0.12450  0.36590  Biso   1.000  H
  H19      1.0000 0.06910  0.37550  0.86590  Biso   1.000  H
  H20      1.0000 0.56910  0.87550  0.86590  Biso   1.000  H
  H21      1.0000 0.93090  0.37550  0.63410  Biso   1.000  H
  H22      1.0000 0.43090  0.87550  0.63410  Biso   1.000  H
  H23      1.0000 0.93090  0.62450  0.13410  Biso   1.000  H
  H24      1.0000 0.43090  0.12450  0.13410  Biso   1.000  H
  C49      1.0000 0.40500  0.88550  0.53040  Biso   1.000  C
  C50      1.0000 0.90500  0.38550  0.53040  Biso   1.000  C
  C51      1.0000 0.40500  0.11450  0.03040  Biso   1.000  C
  C52      1.0000 0.90500  0.61450  0.03040  Biso   1.000  C
  C53      1.0000 0.59500  0.11450  0.46960  Biso   1.000  C
  C54      1.0000 0.09500  0.61450  0.46960  Biso   1.000  C
  C55      1.0000 0.59500  0.88550  0.96960  Biso   1.000  C
  C56      1.0000 0.09500  0.38550  0.96960  Biso   1.000  C
  H25      1.0000 0.27060  0.93520  0.52950  Biso   1.000  H
  H26      1.0000 0.77060  0.43520  0.52950  Biso   1.000  H
  H27      1.0000 0.27060  0.06480  0.02950  Biso   1.000  H
  H28      1.0000 0.77060  0.56480  0.02950  Biso   1.000  H
  H29      1.0000 0.72940  0.06480  0.47050  Biso   1.000  H
  H30      1.0000 0.22940  0.56480  0.47050  Biso   1.000  H
  H31      1.0000 0.72940  0.93520  0.97050  Biso   1.000  H
  H32      1.0000 0.22940  0.43520  0.97050  Biso   1.000  H
