data_image0
_cell_length_a       34.155
_cell_length_b       4.1991
_cell_length_c       18.866
_cell_angle_alpha    90
_cell_angle_beta     96.54
_cell_angle_gamma    90

_symmetry_space_group_name_H-M    "P 1"
_symmetry_int_tables_number       1

loop_
  _symmetry_equiv_pos_as_xyz
  'x, y, z'

loop_
  _atom_site_label
  _atom_site_occupancy
  _atom_site_fract_x
  _atom_site_fract_y
  _atom_site_fract_z
  _atom_site_thermal_displace_type
  _atom_site_B_iso_or_equiv
  _atom_site_type_symbol
  Cu1      1.0000 0.48478  0.30560  0.44652  Biso   1.000  Cu
  Cu2      1.0000 0.98478  0.80560  0.44652  Biso   1.000  Cu
  Cu3      1.0000 0.48478  0.69440  0.94652  Biso   1.000  Cu
  Cu4      1.0000 0.98478  0.19440  0.94652  Biso   1.000  Cu
  Cu5      1.0000 0.51522  0.69440  0.55348  Biso   1.000  Cu
  Cu6      1.0000 0.01522  0.19440  0.55348  Biso   1.000  Cu
  Cu7      1.0000 0.51522  0.30560  0.05348  Biso   1.000  Cu
  Cu8      1.0000 0.01522  0.80560  0.05348  Biso   1.000  Cu
  Cu9      1.0000 0.28235  0.06890  0.48340  Biso   1.000  Cu
  Cu10     1.0000 0.78235  0.56890  0.48340  Biso   1.000  Cu
  Cu11     1.0000 0.28235  0.93110  0.98340  Biso   1.000  Cu
  Cu12     1.0000 0.78235  0.43110  0.98340  Biso   1.000  Cu
  Cu13     1.0000 0.71765  0.93110  0.51660  Biso   1.000  Cu
  Cu14     1.0000 0.21765  0.43110  0.51660  Biso   1.000  Cu
  Cu15     1.0000 0.71765  0.06890  0.01660  Biso   1.000  Cu
  Cu16     1.0000 0.21765  0.56890  0.01660  Biso   1.000  Cu
  I1       1.0000 0.46881  0.18802  0.57741  Biso   1.000  I
  I2       1.0000 0.96881  0.68802  0.57741  Biso   1.000  I
  I3       1.0000 0.46881  0.81198  0.07741  Biso   1.000  I
  I4       1.0000 0.96881  0.31198  0.07741  Biso   1.000  I
  I5       1.0000 0.53119  0.81198  0.42259  Biso   1.000  I
  I6       1.0000 0.03119  0.31198  0.42259  Biso   1.000  I
  I7       1.0000 0.53119  0.18802  0.92259  Biso   1.000  I
  I8       1.0000 0.03119  0.68802  0.92259  Biso   1.000  I
  I9       1.0000 0.20402  0.94336  0.43340  Biso   1.000  I
  I10      1.0000 0.70402  0.44336  0.43340  Biso   1.000  I
  I11      1.0000 0.20402  0.05664  0.93340  Biso   1.000  I
  I12      1.0000 0.70402  0.55664  0.93340  Biso   1.000  I
  I13      1.0000 0.79598  0.05664  0.56660  Biso   1.000  I
  I14      1.0000 0.29598  0.55664  0.56660  Biso   1.000  I
  I15      1.0000 0.79598  0.94336  0.06660  Biso   1.000  I
  I16      1.0000 0.29598  0.44336  0.06660  Biso   1.000  I
  N1       1.0000 0.44230  0.37500  0.36190  Biso   1.000  N
  N2       1.0000 0.94230  0.87500  0.36190  Biso   1.000  N
  N3       1.0000 0.44230  0.62500  0.86190  Biso   1.000  N
  N4       1.0000 0.94230  0.12500  0.86190  Biso   1.000  N
  N5       1.0000 0.55770  0.62500  0.63810  Biso   1.000  N
  N6       1.0000 0.05770  0.12500  0.63810  Biso   1.000  N
  N7       1.0000 0.55770  0.37500  0.13810  Biso   1.000  N
  N8       1.0000 0.05770  0.87500  0.13810  Biso   1.000  N
  C1       1.0000 0.45030  0.27800  0.29900  Biso   1.000  C
  C2       1.0000 0.95030  0.77800  0.29900  Biso   1.000  C
  C3       1.0000 0.45030  0.72200  0.79900  Biso   1.000  C
  C4       1.0000 0.95030  0.22200  0.79900  Biso   1.000  C
  C5       1.0000 0.54970  0.72200  0.70100  Biso   1.000  C
  C6       1.0000 0.04970  0.22200  0.70100  Biso   1.000  C
  C7       1.0000 0.54970  0.27800  0.20100  Biso   1.000  C
  C8       1.0000 0.04970  0.77800  0.20100  Biso   1.000  C
  H1       1.0000 0.47230  0.14550  0.29690  Biso   1.000  H
  H2       1.0000 0.97230  0.64550  0.29690  Biso   1.000  H
  H3       1.0000 0.47230  0.85450  0.79690  Biso   1.000  H
  H4       1.0000 0.97230  0.35450  0.79690  Biso   1.000  H
  H5       1.0000 0.52770  0.85450  0.70310  Biso   1.000  H
  H6       1.0000 0.02770  0.35450  0.70310  Biso   1.000  H
  H7       1.0000 0.52770  0.14550  0.20310  Biso   1.000  H
  H8       1.0000 0.02770  0.64550  0.20310  Biso   1.000  H
  C9       1.0000 0.42770  0.36200  0.23440  Biso   1.000  C
  C10      1.0000 0.92770  0.86200  0.23440  Biso   1.000  C
  C11      1.0000 0.42770  0.63800  0.73440  Biso   1.000  C
  C12      1.0000 0.92770  0.13800  0.73440  Biso   1.000  C
  C13      1.0000 0.57230  0.63800  0.76560  Biso   1.000  C
  C14      1.0000 0.07230  0.13800  0.76560  Biso   1.000  C
  C15      1.0000 0.57230  0.36200  0.26560  Biso   1.000  C
  C16      1.0000 0.07230  0.86200  0.26560  Biso   1.000  C
  H9       1.0000 0.43480  0.28860  0.19050  Biso   1.000  H
  H10      1.0000 0.93480  0.78860  0.19050  Biso   1.000  H
  H11      1.0000 0.43480  0.71140  0.69050  Biso   1.000  H
  H12      1.0000 0.93480  0.21140  0.69050  Biso   1.000  H
  H13      1.0000 0.56520  0.71140  0.80950  Biso   1.000  H
  H14      1.0000 0.06520  0.21140  0.80950  Biso   1.000  H
  H15      1.0000 0.56520  0.28860  0.30950  Biso   1.000  H
  H16      1.0000 0.06520  0.78860  0.30950  Biso   1.000  H
  C17      1.0000 0.39550  0.55100  0.23680  Biso   1.000  C
  C18      1.0000 0.89550  0.05100  0.23680  Biso   1.000  C
  C19      1.0000 0.39550  0.44900  0.73680  Biso   1.000  C
  C20      1.0000 0.89550  0.94900  0.73680  Biso   1.000  C
  C21      1.0000 0.60450  0.44900  0.76320  Biso   1.000  C
  C22      1.0000 0.10450  0.94900  0.76320  Biso   1.000  C
  C23      1.0000 0.60450  0.55100  0.26320  Biso   1.000  C
  C24      1.0000 0.10450  0.05100  0.26320  Biso   1.000  C
  H17      1.0000 0.38010  0.61220  0.19440  Biso   1.000  H
  H18      1.0000 0.88010  0.11220  0.19440  Biso   1.000  H
  H19      1.0000 0.38010  0.38780  0.69440  Biso   1.000  H
  H20      1.0000 0.88010  0.88780  0.69440  Biso   1.000  H
  H21      1.0000 0.61990  0.38780  0.80560  Biso   1.000  H
  H22      1.0000 0.11990  0.88780  0.80560  Biso   1.000  H
  H23      1.0000 0.61990  0.61220  0.30560  Biso   1.000  H
  H24      1.0000 0.11990  0.11220  0.30560  Biso   1.000  H
  C25      1.0000 0.38560  0.65300  0.30270  Biso   1.000  C
  C26      1.0000 0.88560  0.15300  0.30270  Biso   1.000  C
  C27      1.0000 0.38560  0.34700  0.80270  Biso   1.000  C
  C28      1.0000 0.88560  0.84700  0.80270  Biso   1.000  C
  C29      1.0000 0.61440  0.34700  0.69730  Biso   1.000  C
  C30      1.0000 0.11440  0.84700  0.69730  Biso   1.000  C
  C31      1.0000 0.61440  0.65300  0.19730  Biso   1.000  C
  C32      1.0000 0.11440  0.15300  0.19730  Biso   1.000  C
  N9       1.0000 0.30760  0.08100  0.39020  Biso   1.000  N
  N10      1.0000 0.80760  0.58100  0.39020  Biso   1.000  N
  N11      1.0000 0.30760  0.91900  0.89020  Biso   1.000  N
  N12      1.0000 0.80760  0.41900  0.89020  Biso   1.000  N
  N13      1.0000 0.69240  0.91900  0.60980  Biso   1.000  N
  N14      1.0000 0.19240  0.41900  0.60980  Biso   1.000  N
  N15      1.0000 0.69240  0.08100  0.10980  Biso   1.000  N
  N16      1.0000 0.19240  0.58100  0.10980  Biso   1.000  N
  C33      1.0000 0.28640  0.19700  0.33370  Biso   1.000  C
  C34      1.0000 0.78640  0.69700  0.33370  Biso   1.000  C
  C35      1.0000 0.28640  0.80300  0.83370  Biso   1.000  C
  C36      1.0000 0.78640  0.30300  0.83370  Biso   1.000  C
  C37      1.0000 0.71360  0.80300  0.66630  Biso   1.000  C
  C38      1.0000 0.21360  0.30300  0.66630  Biso   1.000  C
  C39      1.0000 0.71360  0.19700  0.16630  Biso   1.000  C
  C40      1.0000 0.21360  0.69700  0.16630  Biso   1.000  C
  H25      1.0000 0.26410  0.31860  0.34120  Biso   1.000  H
  H26      1.0000 0.76410  0.81860  0.34120  Biso   1.000  H
  H27      1.0000 0.26410  0.68140  0.84120  Biso   1.000  H
  H28      1.0000 0.76410  0.18140  0.84120  Biso   1.000  H
  H29      1.0000 0.73590  0.68140  0.65880  Biso   1.000  H
  H30      1.0000 0.23590  0.18140  0.65880  Biso   1.000  H
  H31      1.0000 0.73590  0.31860  0.15880  Biso   1.000  H
  H32      1.0000 0.23590  0.81860  0.15880  Biso   1.000  H
  C41      1.0000 0.29440  0.15500  0.26330  Biso   1.000  C
  C42      1.0000 0.79440  0.65500  0.26330  Biso   1.000  C
  C43      1.0000 0.29440  0.84500  0.76330  Biso   1.000  C
  C44      1.0000 0.79440  0.34500  0.76330  Biso   1.000  C
  C45      1.0000 0.70560  0.84500  0.73670  Biso   1.000  C
  C46      1.0000 0.20560  0.34500  0.73670  Biso   1.000  C
  C47      1.0000 0.70560  0.15500  0.23670  Biso   1.000  C
  C48      1.0000 0.20560  0.65500  0.23670  Biso   1.000  C
  H33      1.0000 0.27820  0.24730  0.22510  Biso   1.000  H
  H34      1.0000 0.77820  0.74730  0.22510  Biso   1.000  H
  H35      1.0000 0.27820  0.75270  0.72510  Biso   1.000  H
  H36      1.0000 0.77820  0.25270  0.72510  Biso   1.000  H
  H37      1.0000 0.72180  0.75270  0.77490  Biso   1.000  H
  H38      1.0000 0.22180  0.25270  0.77490  Biso   1.000  H
  H39      1.0000 0.72180  0.24730  0.27490  Biso   1.000  H
  H40      1.0000 0.22180  0.74730  0.27490  Biso   1.000  H
  C49      1.0000 0.32660  0.97400  0.25170  Biso   1.000  C
  C50      1.0000 0.82660  0.47400  0.25170  Biso   1.000  C
  C51      1.0000 0.32660  0.02600  0.75170  Biso   1.000  C
  C52      1.0000 0.82660  0.52600  0.75170  Biso   1.000  C
  C53      1.0000 0.67340  0.02600  0.74830  Biso   1.000  C
  C54      1.0000 0.17340  0.52600  0.74830  Biso   1.000  C
  C55      1.0000 0.67340  0.97400  0.24830  Biso   1.000  C
  C56      1.0000 0.17340  0.47400  0.24830  Biso   1.000  C
  H41      1.0000 0.33240  0.93450  0.20500  Biso   1.000  H
  H42      1.0000 0.83240  0.43450  0.20500  Biso   1.000  H
  H43      1.0000 0.33240  0.06550  0.70500  Biso   1.000  H
  H44      1.0000 0.83240  0.56550  0.70500  Biso   1.000  H
  H45      1.0000 0.66760  0.06550  0.79500  Biso   1.000  H
  H46      1.0000 0.16760  0.56550  0.79500  Biso   1.000  H
  H47      1.0000 0.66760  0.93450  0.29500  Biso   1.000  H
  H48      1.0000 0.16760  0.43450  0.29500  Biso   1.000  H
  C57      1.0000 0.35060  0.85000  0.31020  Biso   1.000  C
  C58      1.0000 0.85060  0.35000  0.31020  Biso   1.000  C
  C59      1.0000 0.35060  0.15000  0.81020  Biso   1.000  C
  C60      1.0000 0.85060  0.65000  0.81020  Biso   1.000  C
  C61      1.0000 0.64940  0.15000  0.68980  Biso   1.000  C
  C62      1.0000 0.14940  0.65000  0.68980  Biso   1.000  C
  C63      1.0000 0.64940  0.85000  0.18980  Biso   1.000  C
  C64      1.0000 0.14940  0.35000  0.18980  Biso   1.000  C
  C65      1.0000 0.34090  0.91900  0.37930  Biso   1.000  C
  C66      1.0000 0.84090  0.41900  0.37930  Biso   1.000  C
  C67      1.0000 0.34090  0.08100  0.87930  Biso   1.000  C
  C68      1.0000 0.84090  0.58100  0.87930  Biso   1.000  C
  C69      1.0000 0.65910  0.08100  0.62070  Biso   1.000  C
  C70      1.0000 0.15910  0.58100  0.62070  Biso   1.000  C
  C71      1.0000 0.65910  0.91900  0.12070  Biso   1.000  C
  C72      1.0000 0.15910  0.41900  0.12070  Biso   1.000  C
  C73      1.0000 0.36750  0.82800  0.44010  Biso   1.000  C
  C74      1.0000 0.86750  0.32800  0.44010  Biso   1.000  C
  C75      1.0000 0.36750  0.17200  0.94010  Biso   1.000  C
  C76      1.0000 0.86750  0.67200  0.94010  Biso   1.000  C
  C77      1.0000 0.63250  0.17200  0.55990  Biso   1.000  C
  C78      1.0000 0.13250  0.67200  0.55990  Biso   1.000  C
  C79      1.0000 0.63250  0.82800  0.05990  Biso   1.000  C
  C80      1.0000 0.13250  0.32800  0.05990  Biso   1.000  C
  H49      1.0000 0.36170  0.88430  0.48600  Biso   1.000  H
  H50      1.0000 0.86170  0.38430  0.48600  Biso   1.000  H
  H51      1.0000 0.36170  0.11570  0.98600  Biso   1.000  H
  H52      1.0000 0.86170  0.61570  0.98600  Biso   1.000  H
  H53      1.0000 0.63830  0.11570  0.51400  Biso   1.000  H
  H54      1.0000 0.13830  0.61570  0.51400  Biso   1.000  H
  H55      1.0000 0.63830  0.88430  0.01400  Biso   1.000  H
  H56      1.0000 0.13830  0.38430  0.01400  Biso   1.000  H
  C81      1.0000 0.40010  0.66500  0.43300  Biso   1.000  C
  C82      1.0000 0.90010  0.16500  0.43300  Biso   1.000  C
  C83      1.0000 0.40010  0.33500  0.93300  Biso   1.000  C
  C84      1.0000 0.90010  0.83500  0.93300  Biso   1.000  C
  C85      1.0000 0.59990  0.33500  0.56700  Biso   1.000  C
  C86      1.0000 0.09990  0.83500  0.56700  Biso   1.000  C
  C87      1.0000 0.59990  0.66500  0.06700  Biso   1.000  C
  C88      1.0000 0.09990  0.16500  0.06700  Biso   1.000  C
  H57      1.0000 0.41750  0.62000  0.47410  Biso   1.000  H
  H58      1.0000 0.91750  0.12000  0.47410  Biso   1.000  H
  H59      1.0000 0.41750  0.38000  0.97410  Biso   1.000  H
  H60      1.0000 0.91750  0.88000  0.97410  Biso   1.000  H
  H61      1.0000 0.58250  0.38000  0.52590  Biso   1.000  H
  H62      1.0000 0.08250  0.88000  0.52590  Biso   1.000  H
  H63      1.0000 0.58250  0.62000  0.02590  Biso   1.000  H
  H64      1.0000 0.08250  0.12000  0.02590  Biso   1.000  H
  C89      1.0000 0.40990  0.55500  0.36570  Biso   1.000  C
  C90      1.0000 0.90990  0.05500  0.36570  Biso   1.000  C
  C91      1.0000 0.40990  0.44500  0.86570  Biso   1.000  C
  C92      1.0000 0.90990  0.94500  0.86570  Biso   1.000  C
  C93      1.0000 0.59010  0.44500  0.63430  Biso   1.000  C
  C94      1.0000 0.09010  0.94500  0.63430  Biso   1.000  C
  C95      1.0000 0.59010  0.55500  0.13430  Biso   1.000  C
  C96      1.0000 0.09010  0.05500  0.13430  Biso   1.000  C
