data_image0
_cell_length_a       21.752
_cell_length_b       3.876
_cell_length_c       9.511
_cell_angle_alpha    90
_cell_angle_beta     90
_cell_angle_gamma    90

_symmetry_space_group_name_H-M    "P 1"
_symmetry_int_tables_number       1

loop_
  _symmetry_equiv_pos_as_xyz
  'x, y, z'

loop_
  _atom_site_label
  _atom_site_occupancy
  _atom_site_fract_x
  _atom_site_fract_y
  _atom_site_fract_z
  _atom_site_thermal_displace_type
  _atom_site_B_iso_or_equiv
  _atom_site_type_symbol
  Br1      1.0000 0.13835  0.82463  0.73650  Biso   1.000  Br
  Br2      1.0000 0.86165  0.17537  0.23650  Biso   1.000  Br
  Br3      1.0000 0.36165  0.82463  0.23650  Biso   1.000  Br
  Br4      1.0000 0.63835  0.17537  0.73650  Biso   1.000  Br
  Cu1      1.0000 0.18065  0.31001  0.86988  Biso   1.000  Cu
  Cu2      1.0000 0.81935  0.68999  0.36988  Biso   1.000  Cu
  Cu3      1.0000 0.31935  0.31001  0.36988  Biso   1.000  Cu
  Cu4      1.0000 0.68065  0.68999  0.86988  Biso   1.000  Cu
  N1       1.0000 0.27267  0.34300  0.79850  Biso   1.000  N
  N2       1.0000 0.72733  0.65700  0.29850  Biso   1.000  N
  N3       1.0000 0.22733  0.34300  0.29850  Biso   1.000  N
  N4       1.0000 0.77267  0.65700  0.79850  Biso   1.000  N
  N5       1.0000 0.32755  0.35070  0.58120  Biso   1.000  N
  N6       1.0000 0.67245  0.64930  0.08120  Biso   1.000  N
  N7       1.0000 0.17245  0.35070  0.08120  Biso   1.000  N
  N8       1.0000 0.82755  0.64930  0.58120  Biso   1.000  N
  C1       1.0000 0.28040  0.28180  0.65840  Biso   1.000  C
  C2       1.0000 0.71960  0.71820  0.15840  Biso   1.000  C
  C3       1.0000 0.21960  0.28180  0.15840  Biso   1.000  C
  C4       1.0000 0.78040  0.71820  0.65840  Biso   1.000  C
  C5       1.0000 0.31899  0.49570  0.86400  Biso   1.000  C
  C6       1.0000 0.68101  0.50430  0.36400  Biso   1.000  C
  C7       1.0000 0.18101  0.49570  0.36400  Biso   1.000  C
  C8       1.0000 0.81899  0.50430  0.86400  Biso   1.000  C
  C9       1.0000 0.37410  0.58280  0.79310  Biso   1.000  C
  C10      1.0000 0.62590  0.41720  0.29310  Biso   1.000  C
  C11      1.0000 0.12590  0.58280  0.29310  Biso   1.000  C
  C12      1.0000 0.87410  0.41720  0.79310  Biso   1.000  C
  C13      1.0000 0.42410  0.72670  0.86360  Biso   1.000  C
  C14      1.0000 0.57590  0.27330  0.36360  Biso   1.000  C
  C15      1.0000 0.07590  0.72670  0.36360  Biso   1.000  C
  C16      1.0000 0.92410  0.27330  0.86360  Biso   1.000  C
  C17      1.0000 0.47760  0.80400  0.78800  Biso   1.000  C
  C18      1.0000 0.52240  0.19600  0.28800  Biso   1.000  C
  C19      1.0000 0.02240  0.80400  0.28800  Biso   1.000  C
  C20      1.0000 0.97760  0.19600  0.78800  Biso   1.000  C
  C21      1.0000 0.47979  0.71960  0.64210  Biso   1.000  C
  C22      1.0000 0.52021  0.28040  0.14210  Biso   1.000  C
  C23      1.0000 0.02021  0.71960  0.14210  Biso   1.000  C
  C24      1.0000 0.97979  0.28040  0.64210  Biso   1.000  C
  C25      1.0000 0.43159  0.57600  0.57280  Biso   1.000  C
  C26      1.0000 0.56841  0.42400  0.07280  Biso   1.000  C
  C27      1.0000 0.06841  0.57600  0.07280  Biso   1.000  C
  C28      1.0000 0.93159  0.42400  0.57280  Biso   1.000  C
  C29      1.0000 0.37753  0.50490  0.64720  Biso   1.000  C
  C30      1.0000 0.62247  0.49510  0.14720  Biso   1.000  C
  C31      1.0000 0.12247  0.50490  0.14720  Biso   1.000  C
  C32      1.0000 0.87753  0.49510  0.64720  Biso   1.000  C
  H1       1.0000 0.24630  0.17630  0.61160  Biso   1.000  H
  H2       1.0000 0.75370  0.82370  0.11160  Biso   1.000  H
  H3       1.0000 0.25370  0.17630  0.11160  Biso   1.000  H
  H4       1.0000 0.74630  0.82370  0.61160  Biso   1.000  H
  H5       1.0000 0.31560  0.55080  0.96070  Biso   1.000  H
  H6       1.0000 0.68440  0.44920  0.46070  Biso   1.000  H
  H7       1.0000 0.18440  0.55080  0.46070  Biso   1.000  H
  H8       1.0000 0.81560  0.44920  0.96070  Biso   1.000  H
  H9       1.0000 0.42310  0.77490  0.96320  Biso   1.000  H
  H10      1.0000 0.57690  0.22510  0.46320  Biso   1.000  H
  H11      1.0000 0.07690  0.77490  0.46320  Biso   1.000  H
  H12      1.0000 0.92310  0.22510  0.96320  Biso   1.000  H
  H13      1.0000 0.51180  0.91480  0.83330  Biso   1.000  H
  H14      1.0000 0.48820  0.08520  0.33330  Biso   1.000  H
  H15      1.0000 0.98820  0.91480  0.33330  Biso   1.000  H
  H16      1.0000 0.01180  0.08520  0.83330  Biso   1.000  H
  H17      1.0000 0.51790  0.75810  0.59390  Biso   1.000  H
  H18      1.0000 0.48210  0.24190  0.09390  Biso   1.000  H
  H19      1.0000 0.98210  0.75810  0.09390  Biso   1.000  H
  H20      1.0000 0.01790  0.24190  0.59390  Biso   1.000  H
  H21      1.0000 0.43220  0.53600  0.47450  Biso   1.000  H
  H22      1.0000 0.56780  0.46400  0.97450  Biso   1.000  H
  H23      1.0000 0.06780  0.53600  0.97450  Biso   1.000  H
  H24      1.0000 0.93220  0.46400  0.47450  Biso   1.000  H
