data_image0
_cell_length_a       10.2411
_cell_length_b       12.647
_cell_length_c       14.897
_cell_angle_alpha    98.63
_cell_angle_beta     99.884
_cell_angle_gamma    104.433

_symmetry_space_group_name_H-M    "P 1"
_symmetry_int_tables_number       1

loop_
  _symmetry_equiv_pos_as_xyz
  'x, y, z'

loop_
  _atom_site_label
  _atom_site_occupancy
  _atom_site_fract_x
  _atom_site_fract_y
  _atom_site_fract_z
  _atom_site_thermal_displace_type
  _atom_site_B_iso_or_equiv
  _atom_site_type_symbol
  Cu1      1.0000 0.90853  0.43937  0.41585  Biso   1.000  Cu
  Cu2      1.0000 0.09147  0.56063  0.58415  Biso   1.000  Cu
  Cu3      1.0000 0.06687  0.58839  0.08272  Biso   1.000  Cu
  Cu4      1.0000 0.93313  0.41161  0.91728  Biso   1.000  Cu
  Br1      1.0000 0.16153  0.45485  0.45086  Biso   1.000  Br
  Br2      1.0000 0.83847  0.54515  0.54914  Biso   1.000  Br
  Br3      1.0000 0.08227  0.38938  0.06057  Biso   1.000  Br
  Br4      1.0000 0.91773  0.61062  0.93943  Biso   1.000  Br
  P1       1.0000 0.79585  0.26163  0.39887  Biso   1.000  P
  P2       1.0000 0.20415  0.73837  0.60113  Biso   1.000  P
  P3       1.0000 0.27523  0.70575  0.10849  Biso   1.000  P
  P4       1.0000 0.72477  0.29425  0.89151  Biso   1.000  P
  N1       1.0000 0.89260  0.53670  0.31850  Biso   1.000  N
  N2       1.0000 0.10740  0.46330  0.68150  Biso   1.000  N
  N3       1.0000 0.94270  0.58560  0.17770  Biso   1.000  N
  N4       1.0000 0.05730  0.41440  0.82230  Biso   1.000  N
  C1       1.0000 0.96220  0.53730  0.25010  Biso   1.000  C
  C2       1.0000 0.03780  0.46270  0.74990  Biso   1.000  C
  H1       1.0000 0.03200  0.49980  0.25380  Biso   1.000  H
  H2       1.0000 0.96800  0.50020  0.74620  Biso   1.000  H
  C3       1.0000 0.79720  0.59170  0.31400  Biso   1.000  C
  C4       1.0000 0.20280  0.40830  0.68600  Biso   1.000  C
  H3       1.0000 0.74850  0.59600  0.36260  Biso   1.000  H
  H4       1.0000 0.25150  0.40400  0.63740  Biso   1.000  H
  C5       1.0000 0.76760  0.64240  0.24110  Biso   1.000  C
  C6       1.0000 0.23240  0.35760  0.75890  Biso   1.000  C
  H5       1.0000 0.69780  0.67980  0.23790  Biso   1.000  H
  H6       1.0000 0.30220  0.32020  0.76210  Biso   1.000  H
  C7       1.0000 0.84220  0.63760  0.17220  Biso   1.000  C
  C8       1.0000 0.15780  0.36240  0.82780  Biso   1.000  C
  H7       1.0000 0.82250  0.67120  0.12050  Biso   1.000  H
  H8       1.0000 0.17750  0.32880  0.87950  Biso   1.000  H
  C9       1.0000 0.60720  0.22450  0.38880  Biso   1.000  C
  C10      1.0000 0.39280  0.77550  0.61120  Biso   1.000  C
  C11      1.0000 0.53810  0.30120  0.36530  Biso   1.000  C
  C12      1.0000 0.46190  0.69880  0.63470  Biso   1.000  C
  H9       1.0000 0.58870  0.37250  0.35870  Biso   1.000  H
  H10      1.0000 0.41130  0.62750  0.64130  Biso   1.000  H
  C13      1.0000 0.39540  0.27390  0.35140  Biso   1.000  C
  C14      1.0000 0.60460  0.72610  0.64860  Biso   1.000  C
  H11      1.0000 0.34870  0.32670  0.33490  Biso   1.000  H
  H12      1.0000 0.65130  0.67330  0.66510  Biso   1.000  H
  C15      1.0000 0.32040  0.17120  0.36140  Biso   1.000  C
  C16      1.0000 0.67960  0.82880  0.63860  Biso   1.000  C
  H13      1.0000 0.22250  0.15270  0.35030  Biso   1.000  H
  H14      1.0000 0.77750  0.84730  0.64970  Biso   1.000  H
  C17      1.0000 0.38750  0.09570  0.38730  Biso   1.000  C
  C18      1.0000 0.61250  0.90430  0.61270  Biso   1.000  C
  H15      1.0000 0.33600  0.02560  0.39550  Biso   1.000  H
  H16      1.0000 0.66400  0.97440  0.60450  Biso   1.000  H
  C19      1.0000 0.53170  0.12150  0.40170  Biso   1.000  C
  C20      1.0000 0.46830  0.87850  0.59830  Biso   1.000  C
  H17      1.0000 0.57790  0.06920  0.42010  Biso   1.000  H
  H18      1.0000 0.42210  0.93080  0.57990  Biso   1.000  H
  C21      1.0000 0.85760  0.20540  0.49860  Biso   1.000  C
  C22      1.0000 0.14240  0.79460  0.50140  Biso   1.000  C
  C23      1.0000 0.80360  0.22020  0.57900  Biso   1.000  C
  C24      1.0000 0.19640  0.77980  0.42100  Biso   1.000  C
  H19      1.0000 0.73180  0.25530  0.57990  Biso   1.000  H
  H20      1.0000 0.26820  0.74470  0.42010  Biso   1.000  H
  C25      1.0000 0.85540  0.18340  0.65610  Biso   1.000  C
  C26      1.0000 0.14460  0.81660  0.34390  Biso   1.000  C
  H21      1.0000 0.81870  0.19350  0.71020  Biso   1.000  H
  H22      1.0000 0.18130  0.80650  0.28980  Biso   1.000  H
  C27      1.0000 0.95920  0.13220  0.65650  Biso   1.000  C
  C28      1.0000 0.04080  0.86780  0.34350  Biso   1.000  C
  H23      1.0000 0.99130  0.10420  0.70920  Biso   1.000  H
  H24      1.0000 0.00870  0.89580  0.29080  Biso   1.000  H
  C29      1.0000 0.01630  0.12190  0.57880  Biso   1.000  C
  C30      1.0000 0.98370  0.87810  0.42120  Biso   1.000  C
  H25      1.0000 0.09080  0.08970  0.57960  Biso   1.000  H
  H26      1.0000 0.90920  0.91030  0.42040  Biso   1.000  H
  C31      1.0000 0.96620  0.15810  0.50030  Biso   1.000  C
  C32      1.0000 0.03380  0.84190  0.49970  Biso   1.000  C
  H27      1.0000 0.00620  0.15040  0.44760  Biso   1.000  H
  H28      1.0000 0.99380  0.84960  0.55240  Biso   1.000  H
  C33      1.0000 0.81490  0.16560  0.29970  Biso   1.000  C
  C34      1.0000 0.18510  0.83440  0.70030  Biso   1.000  C
  C35      1.0000 0.87840  0.20840  0.23400  Biso   1.000  C
  C36      1.0000 0.12160  0.79160  0.76600  Biso   1.000  C
  H29      1.0000 0.91710  0.28670  0.24280  Biso   1.000  H
  H30      1.0000 0.08290  0.71330  0.75720  Biso   1.000  H
  C37      1.0000 0.88730  0.13950  0.15470  Biso   1.000  C
  C38      1.0000 0.11270  0.86050  0.84530  Biso   1.000  C
  H31      1.0000 0.93100  0.17090  0.10960  Biso   1.000  H
  H32      1.0000 0.06900  0.82910  0.89040  Biso   1.000  H
  C39      1.0000 0.83380  0.02710  0.14140  Biso   1.000  C
  C40      1.0000 0.16620  0.97290  0.85860  Biso   1.000  C
  H33      1.0000 0.83940  0.98000  0.08700  Biso   1.000  H
  H34      1.0000 0.16060  0.02000  0.91300  Biso   1.000  H
  C41      1.0000 0.77130  0.98160  0.20720  Biso   1.000  C
  C42      1.0000 0.22870  0.01840  0.79280  Biso   1.000  C
  H35      1.0000 0.73400  0.90310  0.19840  Biso   1.000  H
  H36      1.0000 0.26600  0.09690  0.80160  Biso   1.000  H
  C43      1.0000 0.76330  0.05080  0.28600  Biso   1.000  C
  C44      1.0000 0.23670  0.94920  0.71400  Biso   1.000  C
  H37      1.0000 0.72150  0.01910  0.33160  Biso   1.000  H
  H38      1.0000 0.27850  0.98090  0.66840  Biso   1.000  H
  C45      1.0000 0.38630  0.70830  0.21890  Biso   1.000  C
  C46      1.0000 0.61370  0.29170  0.78110  Biso   1.000  C
  C47      1.0000 0.37170  0.60670  0.24890  Biso   1.000  C
  C48      1.0000 0.62830  0.39330  0.75110  Biso   1.000  C
  H39      1.0000 0.30990  0.54030  0.21010  Biso   1.000  H
  H40      1.0000 0.69010  0.45970  0.78990  Biso   1.000  H
  C49      1.0000 0.44610  0.60220  0.33410  Biso   1.000  C
  C50      1.0000 0.55390  0.39780  0.66590  Biso   1.000  C
  H41      1.0000 0.43530  0.53290  0.35350  Biso   1.000  H
  H42      1.0000 0.56470  0.46710  0.64650  Biso   1.000  H
  C51      1.0000 0.53580  0.69760  0.39100  Biso   1.000  C
  C52      1.0000 0.46420  0.30240  0.60900  Biso   1.000  C
  H43      1.0000 0.58680  0.69400  0.44940  Biso   1.000  H
  H44      1.0000 0.41320  0.30600  0.55060  Biso   1.000  H
  C53      1.0000 0.55200  0.79850  0.36350  Biso   1.000  C
  C54      1.0000 0.44800  0.20150  0.63650  Biso   1.000  C
  H45      1.0000 0.61430  0.86430  0.40270  Biso   1.000  H
  H46      1.0000 0.38570  0.13570  0.59730  Biso   1.000  H
  C55      1.0000 0.47600  0.80340  0.27730  Biso   1.000  C
  C56      1.0000 0.52400  0.19660  0.72270  Biso   1.000  C
  H47      1.0000 0.48630  0.87320  0.25870  Biso   1.000  H
  H48      1.0000 0.51370  0.12680  0.74130  Biso   1.000  H
  C57      1.0000 0.37340  0.67550  0.02100  Biso   1.000  C
  C58      1.0000 0.62660  0.32450  0.97900  Biso   1.000  C
  C59      1.0000 0.49560  0.65170  0.03690  Biso   1.000  C
  C60      1.0000 0.50440  0.34830  0.96310  Biso   1.000  C
  H49      1.0000 0.53660  0.64920  0.09850  Biso   1.000  H
  H50      1.0000 0.46340  0.35080  0.90150  Biso   1.000  H
  C61      1.0000 0.56220  0.63120  0.96670  Biso   1.000  C
  C62      1.0000 0.43780  0.36880  0.03330  Biso   1.000  C
  H51      1.0000 0.64850  0.61520  0.98010  Biso   1.000  H
  H52      1.0000 0.35150  0.38480  0.01990  Biso   1.000  H
  C63      1.0000 0.50530  0.63360  0.87790  Biso   1.000  C
  C64      1.0000 0.49470  0.36640  0.12210  Biso   1.000  C
  H53      1.0000 0.55190  0.62010  0.82930  Biso   1.000  H
  H54      1.0000 0.44810  0.37990  0.17070  Biso   1.000  H
  C65      1.0000 0.38080  0.65550  0.85890  Biso   1.000  C
  C66      1.0000 0.61920  0.34450  0.14110  Biso   1.000  C
  H55      1.0000 0.34060  0.65750  0.79700  Biso   1.000  H
  H56      1.0000 0.65940  0.34250  0.20300  Biso   1.000  H
  C67      1.0000 0.31300  0.67480  0.92990  Biso   1.000  C
  C68      1.0000 0.68700  0.32520  0.07010  Biso   1.000  C
  H57      1.0000 0.22480  0.68760  0.91620  Biso   1.000  H
  H58      1.0000 0.77520  0.31240  0.08380  Biso   1.000  H
  C69      1.0000 0.28800  0.85250  0.10870  Biso   1.000  C
  C70      1.0000 0.71200  0.14750  0.89130  Biso   1.000  C
  C71      1.0000 0.40640  0.92810  0.09850  Biso   1.000  C
  C72      1.0000 0.59360  0.07190  0.90150  Biso   1.000  C
  H59      1.0000 0.48370  0.90320  0.08800  Biso   1.000  H
  H60      1.0000 0.51630  0.09680  0.91200  Biso   1.000  H
  C73      1.0000 0.41190  0.03950  0.10350  Biso   1.000  C
  C74      1.0000 0.58810  0.96050  0.89650  Biso   1.000  C
  H61      1.0000 0.49380  0.09110  0.09800  Biso   1.000  H
  H62      1.0000 0.50620  0.90890  0.90200  Biso   1.000  H
  C75      1.0000 0.30080  0.07530  0.11650  Biso   1.000  C
  C76      1.0000 0.69920  0.92470  0.88350  Biso   1.000  C
  H63      1.0000 0.30520  0.15180  0.11950  Biso   1.000  H
  H64      1.0000 0.69480  0.84820  0.88050  Biso   1.000  H
  C77      1.0000 0.18080  0.00130  0.12520  Biso   1.000  C
  C78      1.0000 0.81920  0.99870  0.87480  Biso   1.000  C
  H65      1.0000 0.10360  0.02680  0.13490  Biso   1.000  H
  H66      1.0000 0.89640  0.97320  0.86510  Biso   1.000  H
  C79      1.0000 0.17440  0.89080  0.11990  Biso   1.000  C
  C80      1.0000 0.82560  0.10920  0.88010  Biso   1.000  C
  H67      1.0000 0.09120  0.83970  0.12390  Biso   1.000  H
  H68      1.0000 0.90880  0.16030  0.87610  Biso   1.000  H
