data_image0
_cell_length_a       10.4465
_cell_length_b       12.1583
_cell_length_c       14.7891
_cell_angle_alpha    95.289
_cell_angle_beta     103.401
_cell_angle_gamma    101.887

_symmetry_space_group_name_H-M    "P 1"
_symmetry_int_tables_number       1

loop_
  _symmetry_equiv_pos_as_xyz
  'x, y, z'

loop_
  _atom_site_label
  _atom_site_occupancy
  _atom_site_fract_x
  _atom_site_fract_y
  _atom_site_fract_z
  _atom_site_thermal_displace_type
  _atom_site_B_iso_or_equiv
  _atom_site_type_symbol
  Br1      1.0000 0.85176  0.56193  0.54604  Biso   1.000  Br
  Br2      1.0000 0.14824  0.43807  0.45396  Biso   1.000  Br
  Br3      1.0000 0.91127  0.61173  0.93165  Biso   1.000  Br
  Br4      1.0000 0.08873  0.38827  0.06835  Biso   1.000  Br
  Cu1      1.0000 0.89918  0.44458  0.41659  Biso   1.000  Cu
  Cu2      1.0000 0.10082  0.55542  0.58341  Biso   1.000  Cu
  Cu3      1.0000 0.07396  0.59443  0.08101  Biso   1.000  Cu
  Cu4      1.0000 0.92604  0.40557  0.91899  Biso   1.000  Cu
  P1       1.0000 0.78471  0.26601  0.40000  Biso   1.000  P
  P2       1.0000 0.21529  0.73399  0.60000  Biso   1.000  P
  P3       1.0000 0.27660  0.71033  0.10960  Biso   1.000  P
  P4       1.0000 0.72340  0.28967  0.89040  Biso   1.000  P
  N1       1.0000 0.89630  0.54850  0.31370  Biso   1.000  N
  N2       1.0000 0.10370  0.45150  0.68630  Biso   1.000  N
  N3       1.0000 0.95670  0.59940  0.17631  Biso   1.000  N
  N4       1.0000 0.04330  0.40060  0.82369  Biso   1.000  N
  N5       1.0000 0.78720  0.67220  0.22673  Biso   1.000  N
  N6       1.0000 0.21280  0.32780  0.77327  Biso   1.000  N
  C1       1.0000 0.86350  0.66130  0.16800  Biso   1.000  C
  C2       1.0000 0.13650  0.33870  0.83200  Biso   1.000  C
  H1       1.0000 0.85110  0.70080  0.11530  Biso   1.000  H
  H2       1.0000 0.14890  0.29920  0.88470  Biso   1.000  H
  C3       1.0000 0.96920  0.54530  0.25100  Biso   1.000  C
  C4       1.0000 0.03080  0.45470  0.74900  Biso   1.000  C
  H3       1.0000 0.03500  0.50100  0.26030  Biso   1.000  H
  H4       1.0000 0.96500  0.49900  0.73970  Biso   1.000  H
  C5       1.0000 0.80850  0.61460  0.29850  Biso   1.000  C
  C6       1.0000 0.19150  0.38540  0.70150  Biso   1.000  C
  H5       1.0000 0.75670  0.62100  0.34290  Biso   1.000  H
  H6       1.0000 0.24330  0.37900  0.65710  Biso   1.000  H
  C7       1.0000 0.80610  0.16920  0.30476  Biso   1.000  C
  C8       1.0000 0.19390  0.83080  0.69524  Biso   1.000  C
  C9       1.0000 0.88420  0.21350  0.24690  Biso   1.000  C
  C10      1.0000 0.11580  0.78650  0.75310  Biso   1.000  C
  H7       1.0000 0.92890  0.29180  0.25900  Biso   1.000  H
  H8       1.0000 0.07110  0.70820  0.74100  Biso   1.000  H
  C11      1.0000 0.89770  0.14420  0.17100  Biso   1.000  C
  C12      1.0000 0.10230  0.85580  0.82900  Biso   1.000  C
  H9       1.0000 0.95050  0.17580  0.13130  Biso   1.000  H
  H10      1.0000 0.04950  0.82420  0.86870  Biso   1.000  H
  C13      1.0000 0.83610  0.03180  0.15330  Biso   1.000  C
  C14      1.0000 0.16390  0.96820  0.84670  Biso   1.000  C
  H11      1.0000 0.84480  0.98550  0.10080  Biso   1.000  H
  H12      1.0000 0.15520  0.01450  0.89920  Biso   1.000  H
  C15      1.0000 0.76050  0.98470  0.21160  Biso   1.000  C
  C16      1.0000 0.23950  0.01530  0.78840  Biso   1.000  C
  H13      1.0000 0.71910  0.90570  0.20050  Biso   1.000  H
  H14      1.0000 0.28090  0.09430  0.79950  Biso   1.000  H
  C17      1.0000 0.74610  0.05410  0.28640  Biso   1.000  C
  C18      1.0000 0.25390  0.94590  0.71360  Biso   1.000  C
  H15      1.0000 0.69360  0.02190  0.32620  Biso   1.000  H
  H16      1.0000 0.30640  0.97810  0.67380  Biso   1.000  H
  C19      1.0000 0.60060  0.23080  0.38480  Biso   1.000  C
  C20      1.0000 0.39940  0.76920  0.61520  Biso   1.000  C
  C21      1.0000 0.52720  0.30790  0.34980  Biso   1.000  C
  C22      1.0000 0.47280  0.69210  0.65020  Biso   1.000  C
  H17      1.0000 0.57350  0.37950  0.33920  Biso   1.000  H
  H18      1.0000 0.42650  0.62050  0.66080  Biso   1.000  H
  C23      1.0000 0.38680  0.28130  0.33030  Biso   1.000  C
  C24      1.0000 0.61320  0.71870  0.66970  Biso   1.000  C
  H19      1.0000 0.33760  0.33400  0.30550  Biso   1.000  H
  H20      1.0000 0.66240  0.66600  0.69450  Biso   1.000  H
  C25      1.0000 0.31910  0.17900  0.34690  Biso   1.000  C
  C26      1.0000 0.68090  0.82100  0.65310  Biso   1.000  C
  H21      1.0000 0.22300  0.16090  0.33310  Biso   1.000  H
  H22      1.0000 0.77700  0.83910  0.66690  Biso   1.000  H
  C27      1.0000 0.39010  0.10260  0.38360  Biso   1.000  C
  C28      1.0000 0.60990  0.89740  0.61640  Biso   1.000  C
  H23      1.0000 0.34310  0.03190  0.39520  Biso   1.000  H
  H24      1.0000 0.65690  0.96810  0.60480  Biso   1.000  H
  C29      1.0000 0.52980  0.12870  0.40350  Biso   1.000  C
  C30      1.0000 0.47020  0.87130  0.59650  Biso   1.000  C
  H25      1.0000 0.57820  0.07640  0.43020  Biso   1.000  H
  H26      1.0000 0.42180  0.92360  0.56980  Biso   1.000  H
  C31      1.0000 0.84790  0.20420  0.50440  Biso   1.000  C
  C32      1.0000 0.15210  0.79580  0.49560  Biso   1.000  C
  C33      1.0000 0.79470  0.21610  0.58240  Biso   1.000  C
  C34      1.0000 0.20530  0.78390  0.41760  Biso   1.000  C
  H27      1.0000 0.72360  0.25430  0.58010  Biso   1.000  H
  H28      1.0000 0.27640  0.74570  0.41990  Biso   1.000  H
  C35      1.0000 0.84510  0.17240  0.66280  Biso   1.000  C
  C36      1.0000 0.15490  0.82760  0.33720  Biso   1.000  C
  H29      1.0000 0.80750  0.17960  0.71500  Biso   1.000  H
  H30      1.0000 0.19250  0.82040  0.28500  Biso   1.000  H
  C37      1.0000 0.95010  0.11850  0.66730  Biso   1.000  C
  C38      1.0000 0.04990  0.88150  0.33270  Biso   1.000  C
  H31      1.0000 0.98310  0.08700  0.72200  Biso   1.000  H
  H32      1.0000 0.01690  0.91300  0.27800  Biso   1.000  H
  C39      1.0000 0.00730  0.11040  0.59210  Biso   1.000  C
  C40      1.0000 0.99270  0.88960  0.40790  Biso   1.000  C
  H33      1.0000 0.08150  0.07560  0.59610  Biso   1.000  H
  H34      1.0000 0.91850  0.92440  0.40390  Biso   1.000  H
  C41      1.0000 0.95640  0.15310  0.51070  Biso   1.000  C
  C42      1.0000 0.04360  0.84690  0.48930  Biso   1.000  C
  H35      1.0000 0.99590  0.14720  0.45920  Biso   1.000  H
  H36      1.0000 0.00410  0.85280  0.54080  Biso   1.000  H
  C43      1.0000 0.38610  0.70870  0.22540  Biso   1.000  C
  C44      1.0000 0.61390  0.29130  0.77460  Biso   1.000  C
  C45      1.0000 0.37020  0.60630  0.26210  Biso   1.000  C
  C46      1.0000 0.62980  0.39370  0.73790  Biso   1.000  C
  H37      1.0000 0.30620  0.54070  0.22630  Biso   1.000  H
  H38      1.0000 0.69380  0.45930  0.77370  Biso   1.000  H
  C47      1.0000 0.44780  0.59990  0.35100  Biso   1.000  C
  C48      1.0000 0.55220  0.40010  0.64900  Biso   1.000  C
  H39      1.0000 0.43510  0.53030  0.37570  Biso   1.000  H
  H40      1.0000 0.56490  0.46970  0.62430  Biso   1.000  H
  C49      1.0000 0.54250  0.69340  0.40310  Biso   1.000  C
  C50      1.0000 0.45750  0.30660  0.59690  Biso   1.000  C
  H41      1.0000 0.59650  0.68820  0.46310  Biso   1.000  H
  H42      1.0000 0.40350  0.31180  0.53690  Biso   1.000  H
  C51      1.0000 0.55850  0.79520  0.36760  Biso   1.000  C
  C52      1.0000 0.44150  0.20480  0.63240  Biso   1.000  C
  H43      1.0000 0.62330  0.86020  0.40360  Biso   1.000  H
  H44      1.0000 0.37670  0.13980  0.59640  Biso   1.000  H
  C53      1.0000 0.48070  0.80310  0.27990  Biso   1.000  C
  C54      1.0000 0.51930  0.19690  0.72010  Biso   1.000  C
  H45      1.0000 0.49210  0.87380  0.25670  Biso   1.000  H
  H46      1.0000 0.50790  0.12620  0.74330  Biso   1.000  H
  C55      1.0000 0.37190  0.67560  0.02700  Biso   1.000  C
  C56      1.0000 0.62810  0.32440  0.97300  Biso   1.000  C
  C57      1.0000 0.50290  0.66040  0.05140  Biso   1.000  C
  C58      1.0000 0.49710  0.33960  0.94860  Biso   1.000  C
  H47      1.0000 0.55030  0.66950  0.11570  Biso   1.000  H
  H48      1.0000 0.44970  0.33050  0.88430  Biso   1.000  H
  C59      1.0000 0.56500  0.63220  0.98240  Biso   1.000  C
  C60      1.0000 0.43500  0.36780  0.01760  Biso   1.000  C
  H49      1.0000 0.65380  0.62000  0.99970  Biso   1.000  H
  H50      1.0000 0.34620  0.38000  0.00030  Biso   1.000  H
  C61      1.0000 0.49910  0.62160  0.88870  Biso   1.000  C
  C62      1.0000 0.50090  0.37840  0.11130  Biso   1.000  C
  H51      1.0000 0.54300  0.60340  0.84170  Biso   1.000  H
  H52      1.0000 0.45700  0.39660  0.15830  Biso   1.000  H
  C63      1.0000 0.36900  0.63730  0.86320  Biso   1.000  C
  C64      1.0000 0.63100  0.36270  0.13680  Biso   1.000  C
  H53      1.0000 0.32370  0.63120  0.79870  Biso   1.000  H
  H54      1.0000 0.67630  0.36880  0.20130  Biso   1.000  H
  C65      1.0000 0.30530  0.66200  0.93150  Biso   1.000  C
  C66      1.0000 0.69470  0.33800  0.06850  Biso   1.000  C
  H55      1.0000 0.21460  0.66990  0.91350  Biso   1.000  H
  H56      1.0000 0.78540  0.33010  0.08650  Biso   1.000  H
  C67      1.0000 0.28320  0.86130  0.10217  Biso   1.000  C
  C68      1.0000 0.71680  0.13870  0.89783  Biso   1.000  C
  C69      1.0000 0.39910  0.93690  0.09390  Biso   1.000  C
  C70      1.0000 0.60090  0.06310  0.90610  Biso   1.000  C
  H57      1.0000 0.47640  0.90990  0.08820  Biso   1.000  H
  H58      1.0000 0.52360  0.09010  0.91180  Biso   1.000  H
  C71      1.0000 0.40080  0.05150  0.09400  Biso   1.000  C
  C72      1.0000 0.59920  0.94850  0.90600  Biso   1.000  C
  H59      1.0000 0.48030  0.10290  0.08980  Biso   1.000  H
  H60      1.0000 0.51970  0.89710  0.91020  Biso   1.000  H
  C73      1.0000 0.28920  0.09090  0.10030  Biso   1.000  C
  C74      1.0000 0.71080  0.90910  0.89970  Biso   1.000  C
  H61      1.0000 0.29190  0.16950  0.10100  Biso   1.000  H
  H62      1.0000 0.70810  0.83050  0.89900  Biso   1.000  H
  C75      1.0000 0.17240  0.01660  0.10550  Biso   1.000  C
  C76      1.0000 0.82760  0.98340  0.89450  Biso   1.000  C
  H63      1.0000 0.09410  0.04360  0.10810  Biso   1.000  H
  H64      1.0000 0.90590  0.95640  0.89190  Biso   1.000  H
  C77      1.0000 0.17050  0.90190  0.10700  Biso   1.000  C
  C78      1.0000 0.82950  0.09810  0.89300  Biso   1.000  C
  H65      1.0000 0.09070  0.85100  0.11140  Biso   1.000  H
  H66      1.0000 0.90930  0.14900  0.88860  Biso   1.000  H
