data_image0
_cell_length_a       27.736
_cell_length_b       8.4417
_cell_length_c       21.9823
_cell_angle_alpha    90
_cell_angle_beta     121.228
_cell_angle_gamma    90

_symmetry_space_group_name_H-M    "P 1"
_symmetry_int_tables_number       1

loop_
  _symmetry_equiv_pos_as_xyz
  'x, y, z'

loop_
  _atom_site_label
  _atom_site_occupancy
  _atom_site_fract_x
  _atom_site_fract_y
  _atom_site_fract_z
  _atom_site_thermal_displace_type
  _atom_site_B_iso_or_equiv
  _atom_site_type_symbol
  Cu1      1.0000 0.49205  0.67428  0.46704  Biso   1.000  Cu
  Cu2      1.0000 0.50795  0.67428  0.03296  Biso   1.000  Cu
  Cu3      1.0000 0.99205  0.17428  0.46704  Biso   1.000  Cu
  Cu4      1.0000 0.00795  0.17428  0.03296  Biso   1.000  Cu
  Cu5      1.0000 0.50795  0.32572  0.53296  Biso   1.000  Cu
  Cu6      1.0000 0.49205  0.32572  0.96704  Biso   1.000  Cu
  Cu7      1.0000 0.00795  0.82572  0.53296  Biso   1.000  Cu
  Cu8      1.0000 0.99205  0.82572  0.96704  Biso   1.000  Cu
  I1       1.0000 0.46349  0.39625  0.39808  Biso   1.000  I
  I2       1.0000 0.53651  0.39625  0.10192  Biso   1.000  I
  I3       1.0000 0.96349  0.89625  0.39808  Biso   1.000  I
  I4       1.0000 0.03651  0.89625  0.10192  Biso   1.000  I
  I5       1.0000 0.53651  0.60375  0.60192  Biso   1.000  I
  I6       1.0000 0.46349  0.60375  0.89808  Biso   1.000  I
  I7       1.0000 0.03651  0.10375  0.60192  Biso   1.000  I
  I8       1.0000 0.96349  0.10375  0.89808  Biso   1.000  I
  S1       1.0000 0.40528  0.80400  0.41694  Biso   1.000  S
  S2       1.0000 0.59472  0.80400  0.08306  Biso   1.000  S
  S3       1.0000 0.90528  0.30400  0.41694  Biso   1.000  S
  S4       1.0000 0.09472  0.30400  0.08306  Biso   1.000  S
  S5       1.0000 0.59472  0.19600  0.58306  Biso   1.000  S
  S6       1.0000 0.40528  0.19600  0.91694  Biso   1.000  S
  S7       1.0000 0.09472  0.69600  0.58306  Biso   1.000  S
  S8       1.0000 0.90528  0.69600  0.91694  Biso   1.000  S
  S9       1.0000 0.45742  0.19270  0.57360  Biso   1.000  S
  S10      1.0000 0.54258  0.19270  0.92640  Biso   1.000  S
  S11      1.0000 0.95742  0.69270  0.57360  Biso   1.000  S
  S12      1.0000 0.04258  0.69270  0.92640  Biso   1.000  S
  S13      1.0000 0.54258  0.80730  0.42640  Biso   1.000  S
  S14      1.0000 0.45742  0.80730  0.07360  Biso   1.000  S
  S15      1.0000 0.04258  0.30730  0.42640  Biso   1.000  S
  S16      1.0000 0.95742  0.30730  0.07360  Biso   1.000  S
  O1       1.0000 0.30564  0.11070  0.52610  Biso   1.000  O
  O2       1.0000 0.69436  0.11070  0.97390  Biso   1.000  O
  O3       1.0000 0.80564  0.61070  0.52610  Biso   1.000  O
  O4       1.0000 0.19436  0.61070  0.97390  Biso   1.000  O
  O5       1.0000 0.69436  0.88930  0.47390  Biso   1.000  O
  O6       1.0000 0.30564  0.88930  0.02610  Biso   1.000  O
  O7       1.0000 0.19436  0.38930  0.47390  Biso   1.000  O
  O8       1.0000 0.80564  0.38930  0.02610  Biso   1.000  O
  O9       1.0000 0.27601  0.85240  0.43060  Biso   1.000  O
  O10      1.0000 0.72399  0.85240  0.06940  Biso   1.000  O
  O11      1.0000 0.77601  0.35240  0.43060  Biso   1.000  O
  O12      1.0000 0.22399  0.35240  0.06940  Biso   1.000  O
  O13      1.0000 0.72399  0.14760  0.56940  Biso   1.000  O
  O14      1.0000 0.27601  0.14760  0.93060  Biso   1.000  O
  O15      1.0000 0.22399  0.64760  0.56940  Biso   1.000  O
  O16      1.0000 0.77601  0.64760  0.93060  Biso   1.000  O
  N1       1.0000 0.39680  0.76700  0.63290  Biso   1.000  N
  N2       1.0000 0.60320  0.76700  0.86710  Biso   1.000  N
  N3       1.0000 0.89680  0.26700  0.63290  Biso   1.000  N
  N4       1.0000 0.10320  0.26700  0.86710  Biso   1.000  N
  N5       1.0000 0.60320  0.23300  0.36710  Biso   1.000  N
  N6       1.0000 0.39680  0.23300  0.13290  Biso   1.000  N
  N7       1.0000 0.10320  0.73300  0.36710  Biso   1.000  N
  N8       1.0000 0.89680  0.73300  0.13290  Biso   1.000  N
  C1       1.0000 0.26050  0.00410  0.50940  Biso   1.000  C
  C2       1.0000 0.73950  0.00410  0.99060  Biso   1.000  C
  C3       1.0000 0.76050  0.50410  0.50940  Biso   1.000  C
  C4       1.0000 0.23950  0.50410  0.99060  Biso   1.000  C
  C5       1.0000 0.73950  0.99590  0.49060  Biso   1.000  C
  C6       1.0000 0.26050  0.99590  0.00940  Biso   1.000  C
  C7       1.0000 0.23950  0.49590  0.49060  Biso   1.000  C
  C8       1.0000 0.76050  0.49590  0.00940  Biso   1.000  C
  H1       1.0000 0.23260  0.05550  0.51590  Biso   1.000  H
  H2       1.0000 0.76740  0.05550  0.98410  Biso   1.000  H
  H3       1.0000 0.73260  0.55550  0.51590  Biso   1.000  H
  H4       1.0000 0.26740  0.55550  0.98410  Biso   1.000  H
  H5       1.0000 0.76740  0.94450  0.48410  Biso   1.000  H
  H6       1.0000 0.23260  0.94450  0.01590  Biso   1.000  H
  H7       1.0000 0.26740  0.44450  0.48410  Biso   1.000  H
  H8       1.0000 0.73260  0.44450  0.01590  Biso   1.000  H
  H9       1.0000 0.27440  0.91340  0.54020  Biso   1.000  H
  H10      1.0000 0.72560  0.91340  0.95980  Biso   1.000  H
  H11      1.0000 0.77440  0.41340  0.54020  Biso   1.000  H
  H12      1.0000 0.22560  0.41340  0.95980  Biso   1.000  H
  H13      1.0000 0.72560  0.08660  0.45980  Biso   1.000  H
  H14      1.0000 0.27440  0.08660  0.04020  Biso   1.000  H
  H15      1.0000 0.22560  0.58660  0.45980  Biso   1.000  H
  H16      1.0000 0.77440  0.58660  0.04020  Biso   1.000  H
  C9       1.0000 0.23500  0.95350  0.43300  Biso   1.000  C
  C10      1.0000 0.76500  0.95350  0.06700  Biso   1.000  C
  C11      1.0000 0.73500  0.45350  0.43300  Biso   1.000  C
  C12      1.0000 0.26500  0.45350  0.06700  Biso   1.000  C
  C13      1.0000 0.76500  0.04650  0.56700  Biso   1.000  C
  C14      1.0000 0.23500  0.04650  0.93300  Biso   1.000  C
  C15      1.0000 0.26500  0.54650  0.56700  Biso   1.000  C
  C16      1.0000 0.73500  0.54650  0.93300  Biso   1.000  C
  H17      1.0000 0.20050  0.89690  0.41720  Biso   1.000  H
  H18      1.0000 0.79950  0.89690  0.08280  Biso   1.000  H
  H19      1.0000 0.70050  0.39690  0.41720  Biso   1.000  H
  H20      1.0000 0.29950  0.39690  0.08280  Biso   1.000  H
  H21      1.0000 0.79950  0.10310  0.58280  Biso   1.000  H
  H22      1.0000 0.20050  0.10310  0.91720  Biso   1.000  H
  H23      1.0000 0.29950  0.60310  0.58280  Biso   1.000  H
  H24      1.0000 0.70050  0.60310  0.91720  Biso   1.000  H
  H25      1.0000 0.22710  0.04430  0.40300  Biso   1.000  H
  H26      1.0000 0.77290  0.04430  0.09700  Biso   1.000  H
  H27      1.0000 0.72710  0.54430  0.40300  Biso   1.000  H
  H28      1.0000 0.27290  0.54430  0.09700  Biso   1.000  H
  H29      1.0000 0.77290  0.95570  0.59700  Biso   1.000  H
  H30      1.0000 0.22710  0.95570  0.90300  Biso   1.000  H
  H31      1.0000 0.27290  0.45570  0.59700  Biso   1.000  H
  H32      1.0000 0.72710  0.45570  0.90300  Biso   1.000  H
  C17      1.0000 0.25880  0.77010  0.36880  Biso   1.000  C
  C18      1.0000 0.74120  0.77010  0.13120  Biso   1.000  C
  C19      1.0000 0.75880  0.27010  0.36880  Biso   1.000  C
  C20      1.0000 0.24120  0.27010  0.13120  Biso   1.000  C
  C21      1.0000 0.74120  0.22990  0.63120  Biso   1.000  C
  C22      1.0000 0.25880  0.22990  0.86880  Biso   1.000  C
  C23      1.0000 0.24120  0.72990  0.63120  Biso   1.000  C
  C24      1.0000 0.75880  0.72990  0.86880  Biso   1.000  C
  C25      1.0000 0.20540  0.77850  0.30890  Biso   1.000  C
  C26      1.0000 0.79460  0.77850  0.19110  Biso   1.000  C
  C27      1.0000 0.70540  0.27850  0.30890  Biso   1.000  C
  C28      1.0000 0.29460  0.27850  0.19110  Biso   1.000  C
  C29      1.0000 0.79460  0.22150  0.69110  Biso   1.000  C
  C30      1.0000 0.20540  0.22150  0.80890  Biso   1.000  C
  C31      1.0000 0.29460  0.72150  0.69110  Biso   1.000  C
  C32      1.0000 0.70540  0.72150  0.80890  Biso   1.000  C
  H33      1.0000 0.17740  0.84740  0.30790  Biso   1.000  H
  H34      1.0000 0.82260  0.84740  0.19210  Biso   1.000  H
  H35      1.0000 0.67740  0.34740  0.30790  Biso   1.000  H
  H36      1.0000 0.32260  0.34740  0.19210  Biso   1.000  H
  H37      1.0000 0.82260  0.15260  0.69210  Biso   1.000  H
  H38      1.0000 0.17740  0.15260  0.80790  Biso   1.000  H
  H39      1.0000 0.32260  0.65260  0.69210  Biso   1.000  H
  H40      1.0000 0.67740  0.65260  0.80790  Biso   1.000  H
  C33      1.0000 0.19260  0.68610  0.25020  Biso   1.000  C
  C34      1.0000 0.80740  0.68610  0.24980  Biso   1.000  C
  C35      1.0000 0.69260  0.18610  0.25020  Biso   1.000  C
  C36      1.0000 0.30740  0.18610  0.24980  Biso   1.000  C
  C37      1.0000 0.80740  0.31390  0.74980  Biso   1.000  C
  C38      1.0000 0.19260  0.31390  0.75020  Biso   1.000  C
  C39      1.0000 0.30740  0.81390  0.74980  Biso   1.000  C
  C40      1.0000 0.69260  0.81390  0.75020  Biso   1.000  C
  H41      1.0000 0.15560  0.69130  0.20840  Biso   1.000  H
  H42      1.0000 0.84440  0.69130  0.29160  Biso   1.000  H
  H43      1.0000 0.65560  0.19130  0.20840  Biso   1.000  H
  H44      1.0000 0.34440  0.19130  0.29160  Biso   1.000  H
  H45      1.0000 0.84440  0.30870  0.79160  Biso   1.000  H
  H46      1.0000 0.15560  0.30870  0.70840  Biso   1.000  H
  H47      1.0000 0.34440  0.80870  0.79160  Biso   1.000  H
  H48      1.0000 0.65560  0.80870  0.70840  Biso   1.000  H
  C41      1.0000 0.23210  0.58790  0.25130  Biso   1.000  C
  C42      1.0000 0.76790  0.58790  0.24870  Biso   1.000  C
  C43      1.0000 0.73210  0.08790  0.25130  Biso   1.000  C
  C44      1.0000 0.26790  0.08790  0.24870  Biso   1.000  C
  C45      1.0000 0.76790  0.41210  0.74870  Biso   1.000  C
  C46      1.0000 0.23210  0.41210  0.75130  Biso   1.000  C
  C47      1.0000 0.26790  0.91210  0.74870  Biso   1.000  C
  C48      1.0000 0.73210  0.91210  0.75130  Biso   1.000  C
  H49      1.0000 0.22260  0.52280  0.21070  Biso   1.000  H
  H50      1.0000 0.77740  0.52280  0.28930  Biso   1.000  H
  H51      1.0000 0.72260  0.02280  0.21070  Biso   1.000  H
  H52      1.0000 0.27740  0.02280  0.28930  Biso   1.000  H
  H53      1.0000 0.77740  0.47720  0.78930  Biso   1.000  H
  H54      1.0000 0.22260  0.47720  0.71070  Biso   1.000  H
  H55      1.0000 0.27740  0.97720  0.78930  Biso   1.000  H
  H56      1.0000 0.72260  0.97720  0.71070  Biso   1.000  H
  C49      1.0000 0.28630  0.58200  0.31110  Biso   1.000  C
  C50      1.0000 0.71370  0.58200  0.18890  Biso   1.000  C
  C51      1.0000 0.78630  0.08200  0.31110  Biso   1.000  C
  C52      1.0000 0.21370  0.08200  0.18890  Biso   1.000  C
  C53      1.0000 0.71370  0.41800  0.68890  Biso   1.000  C
  C54      1.0000 0.28630  0.41800  0.81110  Biso   1.000  C
  C55      1.0000 0.21370  0.91800  0.68890  Biso   1.000  C
  C56      1.0000 0.78630  0.91800  0.81110  Biso   1.000  C
  H57      1.0000 0.31400  0.51350  0.31130  Biso   1.000  H
  H58      1.0000 0.68600  0.51350  0.18870  Biso   1.000  H
  H59      1.0000 0.81400  0.01350  0.31130  Biso   1.000  H
  H60      1.0000 0.18600  0.01350  0.18870  Biso   1.000  H
  H61      1.0000 0.68600  0.48650  0.68870  Biso   1.000  H
  H62      1.0000 0.31400  0.48650  0.81130  Biso   1.000  H
  H63      1.0000 0.18600  0.98650  0.68870  Biso   1.000  H
  H64      1.0000 0.81400  0.98650  0.81130  Biso   1.000  H
  C57      1.0000 0.30060  0.67320  0.37010  Biso   1.000  C
  C58      1.0000 0.69940  0.67320  0.12990  Biso   1.000  C
  C59      1.0000 0.80060  0.17320  0.37010  Biso   1.000  C
  C60      1.0000 0.19940  0.17320  0.12990  Biso   1.000  C
  C61      1.0000 0.69940  0.32680  0.62990  Biso   1.000  C
  C62      1.0000 0.30060  0.32680  0.87010  Biso   1.000  C
  C63      1.0000 0.19940  0.82680  0.62990  Biso   1.000  C
  C64      1.0000 0.80060  0.82680  0.87010  Biso   1.000  C
  C65      1.0000 0.35990  0.67410  0.43260  Biso   1.000  C
  C66      1.0000 0.64010  0.67410  0.06740  Biso   1.000  C
  C67      1.0000 0.85990  0.17410  0.43260  Biso   1.000  C
  C68      1.0000 0.14010  0.17410  0.06740  Biso   1.000  C
  C69      1.0000 0.64010  0.32590  0.56740  Biso   1.000  C
  C70      1.0000 0.35990  0.32590  0.93260  Biso   1.000  C
  C71      1.0000 0.14010  0.82590  0.56740  Biso   1.000  C
  C72      1.0000 0.85990  0.82590  0.93260  Biso   1.000  C
  H65      1.0000 0.37470  0.56820  0.44130  Biso   1.000  H
  H66      1.0000 0.62530  0.56820  0.05870  Biso   1.000  H
  H67      1.0000 0.87470  0.06820  0.44130  Biso   1.000  H
  H68      1.0000 0.12530  0.06820  0.05870  Biso   1.000  H
  H69      1.0000 0.62530  0.43180  0.55870  Biso   1.000  H
  H70      1.0000 0.37470  0.43180  0.94130  Biso   1.000  H
  H71      1.0000 0.12530  0.93180  0.55870  Biso   1.000  H
  H72      1.0000 0.87470  0.93180  0.94130  Biso   1.000  H
  H73      1.0000 0.35990  0.70930  0.47410  Biso   1.000  H
  H74      1.0000 0.64010  0.70930  0.02590  Biso   1.000  H
  H75      1.0000 0.85990  0.20930  0.47410  Biso   1.000  H
  H76      1.0000 0.14010  0.20930  0.02590  Biso   1.000  H
  H77      1.0000 0.64010  0.29070  0.52590  Biso   1.000  H
  H78      1.0000 0.35990  0.29070  0.97410  Biso   1.000  H
  H79      1.0000 0.14010  0.79070  0.52590  Biso   1.000  H
  H80      1.0000 0.85990  0.79070  0.97410  Biso   1.000  H
  C73      1.0000 0.40320  0.99980  0.45530  Biso   1.000  C
  C74      1.0000 0.59680  0.99980  0.04470  Biso   1.000  C
  C75      1.0000 0.90320  0.49980  0.45530  Biso   1.000  C
  C76      1.0000 0.09680  0.49980  0.04470  Biso   1.000  C
  C77      1.0000 0.59680  0.00020  0.54470  Biso   1.000  C
  C78      1.0000 0.40320  0.00020  0.95530  Biso   1.000  C
  C79      1.0000 0.09680  0.50020  0.54470  Biso   1.000  C
  C80      1.0000 0.90320  0.50020  0.95530  Biso   1.000  C
  H81      1.0000 0.41980  0.07870  0.44030  Biso   1.000  H
  H82      1.0000 0.58020  0.07870  0.05970  Biso   1.000  H
  H83      1.0000 0.91980  0.57870  0.44030  Biso   1.000  H
  H84      1.0000 0.08020  0.57870  0.05970  Biso   1.000  H
  H85      1.0000 0.58020  0.92130  0.55970  Biso   1.000  H
  H86      1.0000 0.41980  0.92130  0.94030  Biso   1.000  H
  H87      1.0000 0.08020  0.42130  0.55970  Biso   1.000  H
  H88      1.0000 0.91980  0.42130  0.94030  Biso   1.000  H
  H89      1.0000 0.36460  0.02900  0.43700  Biso   1.000  H
  H90      1.0000 0.63540  0.02900  0.06300  Biso   1.000  H
  H91      1.0000 0.86460  0.52900  0.43700  Biso   1.000  H
  H92      1.0000 0.13540  0.52900  0.06300  Biso   1.000  H
  H93      1.0000 0.63540  0.97100  0.56300  Biso   1.000  H
  H94      1.0000 0.36460  0.97100  0.93700  Biso   1.000  H
  H95      1.0000 0.13540  0.47100  0.56300  Biso   1.000  H
  H96      1.0000 0.86460  0.47100  0.93700  Biso   1.000  H
  C81      1.0000 0.43250  0.99840  0.53170  Biso   1.000  C
  C82      1.0000 0.56750  0.99840  0.96830  Biso   1.000  C
  C83      1.0000 0.93250  0.49840  0.53170  Biso   1.000  C
  C84      1.0000 0.06750  0.49840  0.96830  Biso   1.000  C
  C85      1.0000 0.56750  0.00160  0.46830  Biso   1.000  C
  C86      1.0000 0.43250  0.00160  0.03170  Biso   1.000  C
  C87      1.0000 0.06750  0.50160  0.46830  Biso   1.000  C
  C88      1.0000 0.93250  0.50160  0.03170  Biso   1.000  C
  H97      1.0000 0.46440  0.92880  0.54910  Biso   1.000  H
  H98      1.0000 0.53560  0.92880  0.95090  Biso   1.000  H
  H99      1.0000 0.96440  0.42880  0.54910  Biso   1.000  H
  H100     1.0000 0.03560  0.42880  0.95090  Biso   1.000  H
  H101     1.0000 0.53560  0.07120  0.45090  Biso   1.000  H
  H102     1.0000 0.46440  0.07120  0.04910  Biso   1.000  H
  H103     1.0000 0.03560  0.57120  0.45090  Biso   1.000  H
  H104     1.0000 0.96440  0.57120  0.04910  Biso   1.000  H
  H105     1.0000 0.40790  0.95550  0.54600  Biso   1.000  H
  H106     1.0000 0.59210  0.95550  0.95400  Biso   1.000  H
  H107     1.0000 0.90790  0.45550  0.54600  Biso   1.000  H
  H108     1.0000 0.09210  0.45550  0.95400  Biso   1.000  H
  H109     1.0000 0.59210  0.04450  0.45400  Biso   1.000  H
  H110     1.0000 0.40790  0.04450  0.04600  Biso   1.000  H
  H111     1.0000 0.09210  0.54450  0.45400  Biso   1.000  H
  H112     1.0000 0.90790  0.54450  0.04600  Biso   1.000  H
  C89      1.0000 0.39610  0.30650  0.55580  Biso   1.000  C
  C90      1.0000 0.60390  0.30650  0.94420  Biso   1.000  C
  C91      1.0000 0.89610  0.80650  0.55580  Biso   1.000  C
  C92      1.0000 0.10390  0.80650  0.94420  Biso   1.000  C
  C93      1.0000 0.60390  0.69350  0.44420  Biso   1.000  C
  C94      1.0000 0.39610  0.69350  0.05580  Biso   1.000  C
  C95      1.0000 0.10390  0.19350  0.44420  Biso   1.000  C
  C96      1.0000 0.89610  0.19350  0.05580  Biso   1.000  C
  H113     1.0000 0.40430  0.41730  0.55660  Biso   1.000  H
  H114     1.0000 0.59570  0.41730  0.94340  Biso   1.000  H
  H115     1.0000 0.90430  0.91730  0.55660  Biso   1.000  H
  H116     1.0000 0.09570  0.91730  0.94340  Biso   1.000  H
  H117     1.0000 0.59570  0.58270  0.44340  Biso   1.000  H
  H118     1.0000 0.40430  0.58270  0.05660  Biso   1.000  H
  H119     1.0000 0.09570  0.08270  0.44340  Biso   1.000  H
  H120     1.0000 0.90430  0.08270  0.05660  Biso   1.000  H
  H121     1.0000 0.36540  0.28130  0.50890  Biso   1.000  H
  H122     1.0000 0.63460  0.28130  0.99110  Biso   1.000  H
  H123     1.0000 0.86540  0.78130  0.50890  Biso   1.000  H
  H124     1.0000 0.13460  0.78130  0.99110  Biso   1.000  H
  H125     1.0000 0.63460  0.71870  0.49110  Biso   1.000  H
  H126     1.0000 0.36540  0.71870  0.00890  Biso   1.000  H
  H127     1.0000 0.13460  0.21870  0.49110  Biso   1.000  H
  H128     1.0000 0.86540  0.21870  0.00890  Biso   1.000  H
  C97      1.0000 0.37820  0.27530  0.60880  Biso   1.000  C
  C98      1.0000 0.62180  0.27530  0.89120  Biso   1.000  C
  C99      1.0000 0.87820  0.77530  0.60880  Biso   1.000  C
  C100     1.0000 0.12180  0.77530  0.89120  Biso   1.000  C
  C101     1.0000 0.62180  0.72470  0.39120  Biso   1.000  C
  C102     1.0000 0.37820  0.72470  0.10880  Biso   1.000  C
  C103     1.0000 0.12180  0.22470  0.39120  Biso   1.000  C
  C104     1.0000 0.87820  0.22470  0.10880  Biso   1.000  C
  C105     1.0000 0.40600  0.35010  0.67440  Biso   1.000  C
  C106     1.0000 0.59400  0.35010  0.82560  Biso   1.000  C
  C107     1.0000 0.90600  0.85010  0.67440  Biso   1.000  C
  C108     1.0000 0.09400  0.85010  0.82560  Biso   1.000  C
  C109     1.0000 0.59400  0.64990  0.32560  Biso   1.000  C
  C110     1.0000 0.40600  0.64990  0.17440  Biso   1.000  C
  C111     1.0000 0.09400  0.14990  0.32560  Biso   1.000  C
  C112     1.0000 0.90600  0.14990  0.17440  Biso   1.000  C
  H129     1.0000 0.43700  0.41980  0.68610  Biso   1.000  H
  H130     1.0000 0.56300  0.41980  0.81390  Biso   1.000  H
  H131     1.0000 0.93700  0.91980  0.68610  Biso   1.000  H
  H132     1.0000 0.06300  0.91980  0.81390  Biso   1.000  H
  H133     1.0000 0.56300  0.58020  0.31390  Biso   1.000  H
  H134     1.0000 0.43700  0.58020  0.18610  Biso   1.000  H
  H135     1.0000 0.06300  0.08020  0.31390  Biso   1.000  H
  H136     1.0000 0.93700  0.08020  0.18610  Biso   1.000  H
  C113     1.0000 0.38920  0.32460  0.72400  Biso   1.000  C
  C114     1.0000 0.61080  0.32460  0.77600  Biso   1.000  C
  C115     1.0000 0.88920  0.82460  0.72400  Biso   1.000  C
  C116     1.0000 0.11080  0.82460  0.77600  Biso   1.000  C
  C117     1.0000 0.61080  0.67540  0.27600  Biso   1.000  C
  C118     1.0000 0.38920  0.67540  0.22400  Biso   1.000  C
  C119     1.0000 0.11080  0.17540  0.27600  Biso   1.000  C
  C120     1.0000 0.88920  0.17540  0.22400  Biso   1.000  C
  H137     1.0000 0.40830  0.37750  0.76920  Biso   1.000  H
  H138     1.0000 0.59170  0.37750  0.73080  Biso   1.000  H
  H139     1.0000 0.90830  0.87750  0.76920  Biso   1.000  H
  H140     1.0000 0.09170  0.87750  0.73080  Biso   1.000  H
  H141     1.0000 0.59170  0.62250  0.23080  Biso   1.000  H
  H142     1.0000 0.40830  0.62250  0.26920  Biso   1.000  H
  H143     1.0000 0.09170  0.12250  0.23080  Biso   1.000  H
  H144     1.0000 0.90830  0.12250  0.26920  Biso   1.000  H
  C121     1.0000 0.34540  0.22420  0.70740  Biso   1.000  C
  C122     1.0000 0.65460  0.22420  0.79260  Biso   1.000  C
  C123     1.0000 0.84540  0.72420  0.70740  Biso   1.000  C
  C124     1.0000 0.15460  0.72420  0.79260  Biso   1.000  C
  C125     1.0000 0.65460  0.77580  0.29260  Biso   1.000  C
  C126     1.0000 0.34540  0.77580  0.20740  Biso   1.000  C
  C127     1.0000 0.15460  0.27580  0.29260  Biso   1.000  C
  C128     1.0000 0.84540  0.27580  0.20740  Biso   1.000  C
  H145     1.0000 0.33460  0.20530  0.74180  Biso   1.000  H
  H146     1.0000 0.66540  0.20530  0.75820  Biso   1.000  H
  H147     1.0000 0.83460  0.70530  0.74180  Biso   1.000  H
  H148     1.0000 0.16540  0.70530  0.75820  Biso   1.000  H
  H149     1.0000 0.66540  0.79470  0.25820  Biso   1.000  H
  H150     1.0000 0.33460  0.79470  0.24180  Biso   1.000  H
  H151     1.0000 0.16540  0.29470  0.25820  Biso   1.000  H
  H152     1.0000 0.83460  0.29470  0.24180  Biso   1.000  H
  C129     1.0000 0.31640  0.14930  0.64220  Biso   1.000  C
  C130     1.0000 0.68360  0.14930  0.85780  Biso   1.000  C
  C131     1.0000 0.81640  0.64930  0.64220  Biso   1.000  C
  C132     1.0000 0.18360  0.64930  0.85780  Biso   1.000  C
  C133     1.0000 0.68360  0.85070  0.35780  Biso   1.000  C
  C134     1.0000 0.31640  0.85070  0.14220  Biso   1.000  C
  C135     1.0000 0.18360  0.35070  0.35780  Biso   1.000  C
  C136     1.0000 0.81640  0.35070  0.14220  Biso   1.000  C
  H153     1.0000 0.28540  0.08020  0.63100  Biso   1.000  H
  H154     1.0000 0.71460  0.08020  0.86900  Biso   1.000  H
  H155     1.0000 0.78540  0.58020  0.63100  Biso   1.000  H
  H156     1.0000 0.21460  0.58020  0.86900  Biso   1.000  H
  H157     1.0000 0.71460  0.91980  0.36900  Biso   1.000  H
  H158     1.0000 0.28540  0.91980  0.13100  Biso   1.000  H
  H159     1.0000 0.21460  0.41980  0.36900  Biso   1.000  H
  H160     1.0000 0.78540  0.41980  0.13100  Biso   1.000  H
  C137     1.0000 0.33290  0.17570  0.59280  Biso   1.000  C
  C138     1.0000 0.66710  0.17570  0.90720  Biso   1.000  C
  C139     1.0000 0.83290  0.67570  0.59280  Biso   1.000  C
  C140     1.0000 0.16710  0.67570  0.90720  Biso   1.000  C
  C141     1.0000 0.66710  0.82430  0.40720  Biso   1.000  C
  C142     1.0000 0.33290  0.82430  0.09280  Biso   1.000  C
  C143     1.0000 0.16710  0.32430  0.40720  Biso   1.000  C
  C144     1.0000 0.83290  0.32430  0.09280  Biso   1.000  C
  C145     1.0000 0.44070  0.92200  0.75300  Biso   1.000  C
  C146     1.0000 0.55930  0.92200  0.74700  Biso   1.000  C
  C147     1.0000 0.94070  0.42200  0.75300  Biso   1.000  C
  C148     1.0000 0.05930  0.42200  0.74700  Biso   1.000  C
  C149     1.0000 0.55930  0.07800  0.24700  Biso   1.000  C
  C150     1.0000 0.44070  0.07800  0.25300  Biso   1.000  C
  C151     1.0000 0.05930  0.57800  0.24700  Biso   1.000  C
  C152     1.0000 0.94070  0.57800  0.25300  Biso   1.000  C
  H161     1.0000 0.42790  0.02930  0.74270  Biso   1.000  H
  H162     1.0000 0.57210  0.02930  0.75730  Biso   1.000  H
  H163     1.0000 0.92790  0.52930  0.74270  Biso   1.000  H
  H164     1.0000 0.07210  0.52930  0.75730  Biso   1.000  H
  H165     1.0000 0.57210  0.97070  0.25730  Biso   1.000  H
  H166     1.0000 0.42790  0.97070  0.24270  Biso   1.000  H
  H167     1.0000 0.07210  0.47070  0.25730  Biso   1.000  H
  H168     1.0000 0.92790  0.47070  0.24270  Biso   1.000  H
  H169     1.0000 0.48110  0.91920  0.77850  Biso   1.000  H
  H170     1.0000 0.51890  0.91920  0.72150  Biso   1.000  H
  H171     1.0000 0.98110  0.41920  0.77850  Biso   1.000  H
  H172     1.0000 0.01890  0.41920  0.72150  Biso   1.000  H
  H173     1.0000 0.51890  0.08080  0.22150  Biso   1.000  H
  H174     1.0000 0.48110  0.08080  0.27850  Biso   1.000  H
  H175     1.0000 0.01890  0.58080  0.22150  Biso   1.000  H
  H176     1.0000 0.98110  0.58080  0.27850  Biso   1.000  H
  H177     1.0000 0.42760  0.87390  0.78150  Biso   1.000  H
  H178     1.0000 0.57240  0.87390  0.71850  Biso   1.000  H
  H179     1.0000 0.92760  0.37390  0.78150  Biso   1.000  H
  H180     1.0000 0.07240  0.37390  0.71850  Biso   1.000  H
  H181     1.0000 0.57240  0.12610  0.21850  Biso   1.000  H
  H182     1.0000 0.42760  0.12610  0.28150  Biso   1.000  H
  H183     1.0000 0.07240  0.62610  0.21850  Biso   1.000  H
  H184     1.0000 0.92760  0.62610  0.28150  Biso   1.000  H
  C153     1.0000 0.41770  0.83100  0.68430  Biso   1.000  C
  C154     1.0000 0.58230  0.83100  0.81570  Biso   1.000  C
  C155     1.0000 0.91770  0.33100  0.68430  Biso   1.000  C
  C156     1.0000 0.08230  0.33100  0.81570  Biso   1.000  C
  C157     1.0000 0.58230  0.16900  0.31570  Biso   1.000  C
  C158     1.0000 0.41770  0.16900  0.18430  Biso   1.000  C
  C159     1.0000 0.08230  0.66900  0.31570  Biso   1.000  C
  C160     1.0000 0.91770  0.66900  0.18430  Biso   1.000  C
