data_image0
_cell_length_a       13.9986
_cell_length_b       14.3641
_cell_length_c       15.346
_cell_angle_alpha    88.164
_cell_angle_beta     62.988
_cell_angle_gamma    72.394

_symmetry_space_group_name_H-M    "P 1"
_symmetry_int_tables_number       1

loop_
  _symmetry_equiv_pos_as_xyz
  'x, y, z'

loop_
  _atom_site_label
  _atom_site_occupancy
  _atom_site_fract_x
  _atom_site_fract_y
  _atom_site_fract_z
  _atom_site_thermal_displace_type
  _atom_site_B_iso_or_equiv
  _atom_site_type_symbol
  P1       1.0000 0.00000  0.50000  0.50000  Biso   1.000  P
  Mo1      1.0000 0.88231  0.59608  0.75162  Biso   1.000  Mo
  Mo2      1.0000 0.11769  0.40392  0.24838  Biso   1.000  Mo
  Mo3      1.0000 0.10957  0.69968  0.41937  Biso   1.000  Mo
  Mo4      1.0000 0.89043  0.30032  0.58063  Biso   1.000  Mo
  Mo5      1.0000 0.17297  0.55210  0.58850  Biso   1.000  Mo
  Mo6      1.0000 0.82703  0.44790  0.41150  Biso   1.000  Mo
  Mo7      1.0000 0.06939  0.35071  0.66728  Biso   1.000  Mo
  Mo8      1.0000 0.93061  0.64929  0.33272  Biso   1.000  Mo
  Mo9      1.0000 0.81636  0.74600  0.58278  Biso   1.000  Mo
  Mo10     1.0000 0.18364  0.25400  0.41722  Biso   1.000  Mo
  Mo11     1.0000 0.29503  0.45186  0.33782  Biso   1.000  Mo
  Mo12     1.0000 0.70497  0.54814  0.66218  Biso   1.000  Mo
  O1       1.0000 0.02200  0.49790  0.58990  Biso   1.000  O
  O2       1.0000 0.97800  0.50210  0.41010  Biso   1.000  O
  O3       1.0000 0.97450  0.60240  0.47230  Biso   1.000  O
  O4       1.0000 0.02550  0.39760  0.52770  Biso   1.000  O
  O5       1.0000 0.37080  0.84960  0.28070  Biso   1.000  O
  O6       1.0000 0.62920  0.15040  0.71930  Biso   1.000  O
  O7       1.0000 0.10500  0.42950  0.41290  Biso   1.000  O
  O8       1.0000 0.89500  0.57050  0.58710  Biso   1.000  O
  O9       1.0000 0.89800  0.46250  0.52770  Biso   1.000  O
  O10      1.0000 0.10200  0.53750  0.47230  Biso   1.000  O
  O11      1.0000 0.28450  0.48310  0.46150  Biso   1.000  O
  O12      1.0000 0.71550  0.51690  0.53850  Biso   1.000  O
  O13      1.0000 0.02770  0.61180  0.69500  Biso   1.000  O
  O14      1.0000 0.97230  0.38820  0.30500  Biso   1.000  O
  O15      1.0000 0.95060  0.46170  0.75370  Biso   1.000  O
  O16      1.0000 0.04940  0.53830  0.24630  Biso   1.000  O
  O17      1.0000 0.75740  0.56530  0.75410  Biso   1.000  O
  O18      1.0000 0.24260  0.43470  0.24590  Biso   1.000  O
  O19      1.0000 0.16810  0.42810  0.63310  Biso   1.000  O
  O20      1.0000 0.83190  0.57190  0.36690  Biso   1.000  O
  O21      1.0000 0.23600  0.59130  0.33750  Biso   1.000  O
  O22      1.0000 0.76400  0.40870  0.66250  Biso   1.000  O
  O23      1.0000 0.15780  0.79490  0.38360  Biso   1.000  O
  O24      1.0000 0.84220  0.20510  0.61640  Biso   1.000  O
  O25      1.0000 0.10540  0.27970  0.74330  Biso   1.000  O
  O26      1.0000 0.89460  0.72030  0.25670  Biso   1.000  O
  O27      1.0000 0.14750  0.66450  0.52290  Biso   1.000  O
  O28      1.0000 0.85250  0.33550  0.47710  Biso   1.000  O
  O29      1.0000 0.84030  0.71050  0.69290  Biso   1.000  O
  O30      1.0000 0.15970  0.28950  0.30710  Biso   1.000  O
  O31      1.0000 0.82560  0.64350  0.86850  Biso   1.000  O
  O32      1.0000 0.17440  0.35650  0.13150  Biso   1.000  O
  O33      1.0000 0.73110  0.86230  0.62270  Biso   1.000  O
  O34      1.0000 0.26890  0.13770  0.37730  Biso   1.000  O
  O35      1.0000 0.70820  0.67550  0.62850  Biso   1.000  O
  O36      1.0000 0.29180  0.32450  0.37150  Biso   1.000  O
  O37      1.0000 0.95790  0.76620  0.52230  Biso   1.000  O
  O38      1.0000 0.04210  0.23380  0.47770  Biso   1.000  O
  O39      1.0000 0.95700  0.30520  0.66270  Biso   1.000  O
  O40      1.0000 0.04300  0.69480  0.33730  Biso   1.000  O
  O41      1.0000 0.17380  0.27150  0.54270  Biso   1.000  O
  O42      1.0000 0.82620  0.72850  0.45730  Biso   1.000  O
  O43      1.0000 0.25550  0.57560  0.63100  Biso   1.000  O
  O44      1.0000 0.74450  0.42440  0.36900  Biso   1.000  O
  O45      1.0000 0.43320  0.42750  0.26200  Biso   1.000  O
  O46      1.0000 0.56680  0.57250  0.73800  Biso   1.000  O
  Cu1      1.0000 0.12924  0.00512  0.41875  Biso   1.000  Cu
  Cu2      1.0000 0.87076  0.99488  0.58125  Biso   1.000  Cu
  Cu3      1.0000 0.61372  0.59773  0.94628  Biso   1.000  Cu
  Cu4      1.0000 0.38628  0.40227  0.05372  Biso   1.000  Cu
  Cu5      1.0000 0.45366  0.54567  0.62437  Biso   1.000  Cu
  Cu6      1.0000 0.54634  0.45433  0.37563  Biso   1.000  Cu
  N1       1.0000 0.14370  0.98050  0.53360  Biso   1.000  N
  N2       1.0000 0.85630  0.01950  0.46640  Biso   1.000  N
  N3       1.0000 0.16670  0.89890  0.65210  Biso   1.000  N
  N4       1.0000 0.83330  0.10110  0.34790  Biso   1.000  N
  N5       1.0000 0.14690  0.99590  0.67120  Biso   1.000  N
  N6       1.0000 0.85310  0.00410  0.32880  Biso   1.000  N
  N7       1.0000 0.45590  0.89440  0.99750  Biso   1.000  N
  N8       1.0000 0.54410  0.10560  0.00250  Biso   1.000  N
  N9       1.0000 0.52300  0.87760  0.89820  Biso   1.000  N
  N10      1.0000 0.47700  0.12240  0.10180  Biso   1.000  N
  N11      1.0000 0.55300  0.73430  0.94910  Biso   1.000  N
  N12      1.0000 0.44700  0.26570  0.05090  Biso   1.000  N
  N13      1.0000 0.65920  0.46290  0.95700  Biso   1.000  N
  N14      1.0000 0.34080  0.53710  0.04300  Biso   1.000  N
  N15      1.0000 0.75170  0.30120  0.91620  Biso   1.000  N
  N16      1.0000 0.24830  0.69880  0.08380  Biso   1.000  N
  N17      1.0000 0.68270  0.32320  0.01480  Biso   1.000  N
  N18      1.0000 0.31730  0.67680  0.98520  Biso   1.000  N
  N19      1.0000 0.11270  0.08990  0.17530  Biso   1.000  N
  N20      1.0000 0.88730  0.91010  0.82470  Biso   1.000  N
  N21      1.0000 0.13340  0.99320  0.15320  Biso   1.000  N
  N22      1.0000 0.86660  0.00680  0.84680  Biso   1.000  N
  N23      1.0000 0.12160  0.02320  0.29990  Biso   1.000  N
  N24      1.0000 0.87840  0.97680  0.70010  Biso   1.000  N
  N25      1.0000 0.41460  0.45710  0.71850  Biso   1.000  N
  N26      1.0000 0.58540  0.54290  0.28150  Biso   1.000  N
  N27      1.0000 0.41810  0.35180  0.82850  Biso   1.000  N
  N28      1.0000 0.58190  0.64820  0.17150  Biso   1.000  N
  N29      1.0000 0.31260  0.38570  0.83520  Biso   1.000  N
  N30      1.0000 0.68740  0.61430  0.16480  Biso   1.000  N
  N31      1.0000 0.47490  0.64280  0.53830  Biso   1.000  N
  N32      1.0000 0.52510  0.35720  0.46170  Biso   1.000  N
  N33      1.0000 0.43830  0.74970  0.43930  Biso   1.000  N
  N34      1.0000 0.56170  0.25030  0.56070  Biso   1.000  N
  N35      1.0000 0.53690  0.74380  0.43690  Biso   1.000  N
  N36      1.0000 0.46310  0.25620  0.56310  Biso   1.000  N
  C1       1.0000 0.16420  0.89360  0.56820  Biso   1.000  C
  C2       1.0000 0.83580  0.10640  0.43180  Biso   1.000  C
  H1       1.0000 0.17570  0.83480  0.53550  Biso   1.000  H
  H2       1.0000 0.82430  0.16520  0.46450  Biso   1.000  H
  C3       1.0000 0.13290  0.04280  0.60090  Biso   1.000  C
  C4       1.0000 0.86710  0.95720  0.39910  Biso   1.000  C
  H3       1.0000 0.11760  0.11020  0.59900  Biso   1.000  H
  H4       1.0000 0.88240  0.88980  0.40100  Biso   1.000  H
  C5       1.0000 0.13420  0.03550  0.76310  Biso   1.000  C
  C6       1.0000 0.86580  0.96450  0.23690  Biso   1.000  C
  H5       1.0000 0.08320  0.00910  0.81680  Biso   1.000  H
  H6       1.0000 0.91680  0.99090  0.18320  Biso   1.000  H
  H7       1.0000 0.09870  0.10630  0.77240  Biso   1.000  H
  H8       1.0000 0.90130  0.89370  0.22760  Biso   1.000  H
  C7       1.0000 0.24330  0.01410  0.77040  Biso   1.000  C
  C8       1.0000 0.75670  0.98590  0.22960  Biso   1.000  C
  C9       1.0000 0.33040  0.92600  0.73440  Biso   1.000  C
  C10      1.0000 0.66960  0.07400  0.26560  Biso   1.000  C
  H9       1.0000 0.32800  0.87810  0.69680  Biso   1.000  H
  H10      1.0000 0.67200  0.12190  0.30320  Biso   1.000  H
  C11      1.0000 0.42190  0.90750  0.75360  Biso   1.000  C
  C12      1.0000 0.57810  0.09250  0.24640  Biso   1.000  C
  H11      1.0000 0.48090  0.84810  0.72780  Biso   1.000  H
  H12      1.0000 0.51910  0.15190  0.27220  Biso   1.000  H
  C13      1.0000 0.42540  0.97810  0.81150  Biso   1.000  C
  C14      1.0000 0.57460  0.02190  0.18850  Biso   1.000  C
  C15      1.0000 0.34120  0.06770  0.84400  Biso   1.000  C
  C16      1.0000 0.65880  0.93230  0.15600  Biso   1.000  C
  H13      1.0000 0.34460  0.11640  0.88000  Biso   1.000  H
  H14      1.0000 0.65540  0.88360  0.12000  Biso   1.000  H
  C17      1.0000 0.25140  0.08580  0.82310  Biso   1.000  C
  C18      1.0000 0.74860  0.91420  0.17690  Biso   1.000  C
  H15      1.0000 0.19540  0.14710  0.84480  Biso   1.000  H
  H16      1.0000 0.80460  0.85290  0.15520  Biso   1.000  H
  C19      1.0000 0.52280  0.95700  0.83620  Biso   1.000  C
  C20      1.0000 0.47720  0.04300  0.16380  Biso   1.000  C
  H17      1.0000 0.59400  0.93880  0.77570  Biso   1.000  H
  H18      1.0000 0.40600  0.06120  0.22430  Biso   1.000  H
  H19      1.0000 0.51620  0.01610  0.87040  Biso   1.000  H
  H20      1.0000 0.48380  0.98390  0.12960  Biso   1.000  H
  C21      1.0000 0.57910  0.78370  0.87100  Biso   1.000  C
  C22      1.0000 0.42090  0.21630  0.12900  Biso   1.000  C
  H21      1.0000 0.62990  0.75540  0.80640  Biso   1.000  H
  H22      1.0000 0.37010  0.24460  0.19360  Biso   1.000  H
  C23      1.0000 0.47860  0.80700  0.02400  Biso   1.000  C
  C24      1.0000 0.52140  0.19300  0.97600  Biso   1.000  C
  H23      1.0000 0.44610  0.79530  0.08950  Biso   1.000  H
  H24      1.0000 0.55390  0.20470  0.91050  Biso   1.000  H
  C25      1.0000 0.73420  0.38710  0.88470  Biso   1.000  C
  C26      1.0000 0.26580  0.61290  0.11530  Biso   1.000  C
  H25      1.0000 0.77010  0.39570  0.81850  Biso   1.000  H
  H26      1.0000 0.22990  0.60430  0.18150  Biso   1.000  H
  C27      1.0000 0.62900  0.41820  0.03790  Biso   1.000  C
  C28      1.0000 0.37100  0.58180  0.96210  Biso   1.000  C
  H27      1.0000 0.57750  0.44960  0.10140  Biso   1.000  H
  H28      1.0000 0.42250  0.55040  0.89860  Biso   1.000  H
  C29      1.0000 0.68450  0.24760  0.08120  Biso   1.000  C
  C30      1.0000 0.31550  0.75240  0.91880  Biso   1.000  C
  H29      1.0000 0.68000  0.18910  0.05550  Biso   1.000  H
  H30      1.0000 0.32000  0.81090  0.94450  Biso   1.000  H
  H31      1.0000 0.61930  0.27170  0.14560  Biso   1.000  H
  H32      1.0000 0.38070  0.72830  0.85440  Biso   1.000  H
  C31      1.0000 0.79160  0.22220  0.09060  Biso   1.000  C
  C32      1.0000 0.20840  0.77780  0.90940  Biso   1.000  C
  C33      1.0000 0.88680  0.14700  0.02790  Biso   1.000  C
  C34      1.0000 0.11320  0.85300  0.97210  Biso   1.000  C
  H33      1.0000 0.88400  0.11020  0.98090  Biso   1.000  H
  H34      1.0000 0.11600  0.88980  0.01910  Biso   1.000  H
  C35      1.0000 0.98680  0.12580  0.03430  Biso   1.000  C
  C36      1.0000 0.01320  0.87420  0.96570  Biso   1.000  C
  H35      1.0000 0.04980  0.07360  0.99300  Biso   1.000  H
  H36      1.0000 0.95020  0.92640  0.00700  Biso   1.000  H
  C37      1.0000 0.99300  0.18270  0.10250  Biso   1.000  C
  C38      1.0000 0.00700  0.81730  0.89750  Biso   1.000  C
  C39      1.0000 0.89780  0.25660  0.16470  Biso   1.000  C
  C40      1.0000 0.10220  0.74340  0.83530  Biso   1.000  C
  H37      1.0000 0.90040  0.29420  0.21130  Biso   1.000  H
  H38      1.0000 0.09960  0.70580  0.78870  Biso   1.000  H
  C41      1.0000 0.79800  0.27620  0.15960  Biso   1.000  C
  C42      1.0000 0.20200  0.72380  0.84040  Biso   1.000  C
  H39      1.0000 0.73410  0.32650  0.20300  Biso   1.000  H
  H40      1.0000 0.26590  0.67350  0.79700  Biso   1.000  H
  C43      1.0000 0.10250  0.16160  0.10690  Biso   1.000  C
  C44      1.0000 0.89750  0.83840  0.89310  Biso   1.000  C
  H41      1.0000 0.16540  0.13630  0.04150  Biso   1.000  H
  H42      1.0000 0.83460  0.86370  0.95850  Biso   1.000  H
  H43      1.0000 0.10710  0.22240  0.12770  Biso   1.000  H
  H44      1.0000 0.89290  0.77760  0.87230  Biso   1.000  H
  C45      1.0000 0.10340  0.10740  0.26410  Biso   1.000  C
  C46      1.0000 0.89660  0.89260  0.73590  Biso   1.000  C
  H45      1.0000 0.08690  0.16880  0.29540  Biso   1.000  H
  H46      1.0000 0.91310  0.83120  0.70460  Biso   1.000  H
  C47      1.0000 0.13990  0.95450  0.22920  Biso   1.000  C
  C48      1.0000 0.86010  0.04550  0.77080  Biso   1.000  C
  H47      1.0000 0.15540  0.88750  0.23480  Biso   1.000  H
  H48      1.0000 0.84460  0.11250  0.76520  Biso   1.000  H
  C49      1.0000 0.47500  0.39620  0.75900  Biso   1.000  C
  C50      1.0000 0.52500  0.60380  0.24100  Biso   1.000  C
  H49      1.0000 0.55110  0.38740  0.73820  Biso   1.000  H
  H50      1.0000 0.44890  0.61260  0.26180  Biso   1.000  H
  C51      1.0000 0.31320  0.44640  0.76920  Biso   1.000  C
  C52      1.0000 0.68680  0.55360  0.23080  Biso   1.000  C
  H51      1.0000 0.25090  0.47760  0.75920  Biso   1.000  H
  H52      1.0000 0.74910  0.52240  0.24080  Biso   1.000  H
  C53      1.0000 0.22000  0.35060  0.90440  Biso   1.000  C
  C54      1.0000 0.78000  0.64940  0.09560  Biso   1.000  C
  H53      1.0000 0.21520  0.29860  0.86930  Biso   1.000  H
  H54      1.0000 0.78480  0.70140  0.13070  Biso   1.000  H
  H55      1.0000 0.23810  0.32260  0.95560  Biso   1.000  H
  H56      1.0000 0.76190  0.67740  0.04440  Biso   1.000  H
  C55      1.0000 0.10700  0.42960  0.95170  Biso   1.000  C
  C56      1.0000 0.89300  0.57040  0.04830  Biso   1.000  C
  C57      1.0000 0.01310  0.41360  0.95300  Biso   1.000  C
  C58      1.0000 0.98690  0.58640  0.04700  Biso   1.000  C
  H57      1.0000 0.02180  0.35520  0.92140  Biso   1.000  H
  H58      1.0000 0.97820  0.64480  0.07860  Biso   1.000  H
  C59      1.0000 0.09130  0.51710  0.99980  Biso   1.000  C
  C60      1.0000 0.90870  0.48290  0.00020  Biso   1.000  C
  H59      1.0000 0.15310  0.52870  0.00000  Biso   1.000  H
  H60      1.0000 0.84690  0.47130  0.00000  Biso   1.000  H
  C61      1.0000 0.55850  0.68150  0.49550  Biso   1.000  C
  C62      1.0000 0.44150  0.31850  0.50450  Biso   1.000  C
  H61      1.0000 0.62190  0.66670  0.50550  Biso   1.000  H
  H62      1.0000 0.37810  0.33330  0.49450  Biso   1.000  H
  C63      1.0000 0.40450  0.68720  0.49950  Biso   1.000  C
  C64      1.0000 0.59550  0.31280  0.50050  Biso   1.000  C
  H63      1.0000 0.33800  0.67400  0.51480  Biso   1.000  H
  H64      1.0000 0.66200  0.32600  0.48520  Biso   1.000  H
  C65      1.0000 0.59860  0.81040  0.38160  Biso   1.000  C
  C66      1.0000 0.40140  0.18960  0.61840  Biso   1.000  C
  H65      1.0000 0.67780  0.78280  0.36600  Biso   1.000  H
  H66      1.0000 0.32220  0.21720  0.63400  Biso   1.000  H
  H67      1.0000 0.59460  0.81750  0.32020  Biso   1.000  H
  H68      1.0000 0.40540  0.18250  0.67980  Biso   1.000  H
  C67      1.0000 0.54810  0.90950  0.44170  Biso   1.000  C
  C68      1.0000 0.45190  0.09050  0.55830  Biso   1.000  C
  C69      1.0000 0.59710  0.93340  0.49450  Biso   1.000  C
  C70      1.0000 0.40290  0.06660  0.50550  Biso   1.000  C
  H69      1.0000 0.66260  0.88830  0.49120  Biso   1.000  H
  H70      1.0000 0.33740  0.11170  0.50880  Biso   1.000  H
  C71      1.0000 0.44930  0.97770  0.44850  Biso   1.000  C
  C72      1.0000 0.55070  0.02230  0.55150  Biso   1.000  C
  H71      1.0000 0.41460  0.96270  0.41410  Biso   1.000  H
  H72      1.0000 0.58540  0.03730  0.58590  Biso   1.000  H
