data_image0
_cell_length_a       11.382
_cell_length_b       22.063
_cell_length_c       13.442
_cell_angle_alpha    90
_cell_angle_beta     113.458
_cell_angle_gamma    90

_symmetry_space_group_name_H-M    "P 1"
_symmetry_int_tables_number       1

loop_
  _symmetry_equiv_pos_as_xyz
  'x, y, z'

loop_
  _atom_site_label
  _atom_site_occupancy
  _atom_site_fract_x
  _atom_site_fract_y
  _atom_site_fract_z
  _atom_site_thermal_displace_type
  _atom_site_B_iso_or_equiv
  _atom_site_type_symbol
  Si1      1.0000 0.50000  0.00000  0.00000  Biso   1.000  Si
  Si2      1.0000 0.50000  0.50000  0.50000  Biso   1.000  Si
  W1       1.0000 0.24191  0.01898  0.74599  Biso   1.000  W
  W2       1.0000 0.75809  0.51898  0.75401  Biso   1.000  W
  W3       1.0000 0.75809  0.98102  0.25401  Biso   1.000  W
  W4       1.0000 0.24191  0.48102  0.24599  Biso   1.000  W
  W5       1.0000 0.21128  0.92071  0.94152  Biso   1.000  W
  W6       1.0000 0.78872  0.42071  0.55848  Biso   1.000  W
  W7       1.0000 0.78872  0.07929  0.05848  Biso   1.000  W
  W8       1.0000 0.21128  0.57929  0.44152  Biso   1.000  W
  W9       1.0000 0.22276  0.07919  0.98278  Biso   1.000  W
  W10      1.0000 0.77724  0.57919  0.51722  Biso   1.000  W
  W11      1.0000 0.77724  0.92081  0.01722  Biso   1.000  W
  W12      1.0000 0.22276  0.42081  0.48278  Biso   1.000  W
  W13      1.0000 0.48070  0.05889  0.23797  Biso   1.000  W
  W14      1.0000 0.51930  0.55889  0.26203  Biso   1.000  W
  W15      1.0000 0.51930  0.94111  0.76203  Biso   1.000  W
  W16      1.0000 0.48070  0.44111  0.73797  Biso   1.000  W
  W17      1.0000 0.46848  0.90093  0.19553  Biso   1.000  W
  W18      1.0000 0.53152  0.40093  0.30447  Biso   1.000  W
  W19      1.0000 0.53152  0.09907  0.80447  Biso   1.000  W
  W20      1.0000 0.46848  0.59907  0.69553  Biso   1.000  W
  W21      1.0000 0.48643  0.84201  0.95631  Biso   1.000  W
  W22      1.0000 0.51357  0.34201  0.54369  Biso   1.000  W
  W23      1.0000 0.51357  0.15799  0.04369  Biso   1.000  W
  W24      1.0000 0.48643  0.65799  0.45631  Biso   1.000  W
  O1       1.0000 0.35600  0.00290  0.94300  Biso   1.000  O
  O2       1.0000 0.64400  0.50290  0.55700  Biso   1.000  O
  O3       1.0000 0.64400  0.99710  0.05700  Biso   1.000  O
  O4       1.0000 0.35600  0.49710  0.44300  Biso   1.000  O
  O5       1.0000 0.54800  0.98810  0.13500  Biso   1.000  O
  O6       1.0000 0.45200  0.48810  0.36500  Biso   1.000  O
  O7       1.0000 0.45200  0.01190  0.86500  Biso   1.000  O
  O8       1.0000 0.54800  0.51190  0.63500  Biso   1.000  O
  O9       1.0000 0.55700  0.94430  0.95400  Biso   1.000  O
  O10      1.0000 0.44300  0.44430  0.54600  Biso   1.000  O
  O11      1.0000 0.44300  0.05570  0.04600  Biso   1.000  O
  O12      1.0000 0.55700  0.55570  0.45400  Biso   1.000  O
  O13      1.0000 0.57100  0.06440  0.98500  Biso   1.000  O
  O14      1.0000 0.42900  0.56440  0.51500  Biso   1.000  O
  O15      1.0000 0.42900  0.93560  0.01500  Biso   1.000  O
  O16      1.0000 0.57100  0.43560  0.48500  Biso   1.000  O
  O17      1.0000 0.33500  0.14380  0.99150  Biso   1.000  O
  O18      1.0000 0.66500  0.64380  0.50850  Biso   1.000  O
  O19      1.0000 0.66500  0.85620  0.00850  Biso   1.000  O
  O20      1.0000 0.33500  0.35620  0.49150  Biso   1.000  O
  O21      1.0000 0.07100  0.88390  0.90710  Biso   1.000  O
  O22      1.0000 0.92900  0.38390  0.59290  Biso   1.000  O
  O23      1.0000 0.92900  0.11610  0.09290  Biso   1.000  O
  O24      1.0000 0.07100  0.61610  0.40710  Biso   1.000  O
  O25      1.0000 0.31400  0.07100  0.13700  Biso   1.000  O
  O26      1.0000 0.68600  0.57100  0.36300  Biso   1.000  O
  O27      1.0000 0.68600  0.92900  0.86300  Biso   1.000  O
  O28      1.0000 0.31400  0.42900  0.63700  Biso   1.000  O
  O29      1.0000 0.30900  0.85960  0.91500  Biso   1.000  O
  O30      1.0000 0.69100  0.35960  0.58500  Biso   1.000  O
  O31      1.0000 0.69100  0.14040  0.08500  Biso   1.000  O
  O32      1.0000 0.30900  0.64040  0.41500  Biso   1.000  O
  O33      1.0000 0.09400  0.11660  0.97370  Biso   1.000  O
  O34      1.0000 0.90600  0.61660  0.52630  Biso   1.000  O
  O35      1.0000 0.90600  0.88340  0.02630  Biso   1.000  O
  O36      1.0000 0.09400  0.38340  0.47370  Biso   1.000  O
  O37      1.0000 0.11910  0.02800  0.62870  Biso   1.000  O
  O38      1.0000 0.88090  0.52800  0.87130  Biso   1.000  O
  O39      1.0000 0.88090  0.97200  0.37130  Biso   1.000  O
  O40      1.0000 0.11910  0.47200  0.12870  Biso   1.000  O
  O41      1.0000 0.45840  0.85610  0.29140  Biso   1.000  O
  O42      1.0000 0.54160  0.35610  0.20860  Biso   1.000  O
  O43      1.0000 0.54160  0.14390  0.70860  Biso   1.000  O
  O44      1.0000 0.45840  0.64390  0.79140  Biso   1.000  O
  O45      1.0000 0.50300  0.84470  0.10230  Biso   1.000  O
  O46      1.0000 0.49700  0.34470  0.39770  Biso   1.000  O
  O47      1.0000 0.49700  0.15530  0.89770  Biso   1.000  O
  O48      1.0000 0.50300  0.65530  0.60230  Biso   1.000  O
  O49      1.0000 0.35400  0.08140  0.73800  Biso   1.000  O
  O50      1.0000 0.64600  0.58140  0.76200  Biso   1.000  O
  O51      1.0000 0.64600  0.91860  0.26200  Biso   1.000  O
  O52      1.0000 0.35400  0.41860  0.23800  Biso   1.000  O
  O53      1.0000 0.19400  0.07170  0.83780  Biso   1.000  O
  O54      1.0000 0.80600  0.57170  0.66220  Biso   1.000  O
  O55      1.0000 0.80600  0.92830  0.16220  Biso   1.000  O
  O56      1.0000 0.19400  0.42830  0.33780  Biso   1.000  O
  O57      1.0000 0.18400  0.95330  0.80360  Biso   1.000  O
  O58      1.0000 0.81600  0.45330  0.69640  Biso   1.000  O
  O59      1.0000 0.81600  0.04670  0.19640  Biso   1.000  O
  O60      1.0000 0.18400  0.54670  0.30360  Biso   1.000  O
  O61      1.0000 0.48400  0.76690  0.93460  Biso   1.000  O
  O62      1.0000 0.51600  0.26690  0.56540  Biso   1.000  O
  O63      1.0000 0.51600  0.23310  0.06540  Biso   1.000  O
  O64      1.0000 0.48400  0.73310  0.43460  Biso   1.000  O
  O65      1.0000 0.29900  0.90260  0.08990  Biso   1.000  O
  O66      1.0000 0.70100  0.40260  0.41010  Biso   1.000  O
  O67      1.0000 0.70100  0.09740  0.91010  Biso   1.000  O
  O68      1.0000 0.29900  0.59740  0.58990  Biso   1.000  O
  O69      1.0000 0.47190  0.08620  0.35040  Biso   1.000  O
  O70      1.0000 0.52810  0.58620  0.14960  Biso   1.000  O
  O71      1.0000 0.52810  0.91380  0.64960  Biso   1.000  O
  O72      1.0000 0.47190  0.41380  0.85040  Biso   1.000  O
  O73      1.0000 0.34300  0.96380  0.70400  Biso   1.000  O
  O74      1.0000 0.65700  0.46380  0.79600  Biso   1.000  O
  O75      1.0000 0.65700  0.03620  0.29600  Biso   1.000  O
  O76      1.0000 0.34300  0.53620  0.20400  Biso   1.000  O
  O77      1.0000 0.16700  0.99650  0.97780  Biso   1.000  O
  O78      1.0000 0.83300  0.49650  0.52220  Biso   1.000  O
  O79      1.0000 0.83300  0.00350  0.02220  Biso   1.000  O
  O80      1.0000 0.16700  0.50350  0.47780  Biso   1.000  O
  O81      1.0000 0.52700  0.12830  0.18220  Biso   1.000  O
  O82      1.0000 0.47300  0.62830  0.31780  Biso   1.000  O
  O83      1.0000 0.47300  0.87170  0.81780  Biso   1.000  O
  O84      1.0000 0.52700  0.37170  0.68220  Biso   1.000  O
  O85      1.0000 0.43600  0.97510  0.24200  Biso   1.000  O
  O86      1.0000 0.56400  0.47510  0.25800  Biso   1.000  O
  O87      1.0000 0.56400  0.02490  0.75800  Biso   1.000  O
  O88      1.0000 0.43600  0.52490  0.74200  Biso   1.000  O
  Cu1      1.0000 0.84560  0.88974  0.76880  Biso   1.000  Cu
  Cu2      1.0000 0.15440  0.38974  0.73120  Biso   1.000  Cu
  Cu3      1.0000 0.15440  0.11026  0.23120  Biso   1.000  Cu
  Cu4      1.0000 0.84560  0.61026  0.26880  Biso   1.000  Cu
  Cu5      1.0000 0.58040  0.78353  0.68230  Biso   1.000  Cu
  Cu6      1.0000 0.41960  0.28353  0.81770  Biso   1.000  Cu
  Cu7      1.0000 0.41960  0.21647  0.31770  Biso   1.000  Cu
  Cu8      1.0000 0.58040  0.71647  0.18230  Biso   1.000  Cu
  Cu9      1.0000 0.96030  0.14198  0.70060  Biso   1.000  Cu
  Cu10     1.0000 0.03970  0.64198  0.79940  Biso   1.000  Cu
  Cu11     1.0000 0.03970  0.85802  0.29940  Biso   1.000  Cu
  Cu12     1.0000 0.96030  0.35802  0.20060  Biso   1.000  Cu
  N1       1.0000 0.40200  0.78870  0.61700  Biso   1.000  N
  N2       1.0000 0.59800  0.28870  0.88300  Biso   1.000  N
  N3       1.0000 0.59800  0.21130  0.38300  Biso   1.000  N
  N4       1.0000 0.40200  0.71130  0.11700  Biso   1.000  N
  N5       1.0000 0.20300  0.79680  0.48300  Biso   1.000  N
  N6       1.0000 0.79700  0.29680  0.01700  Biso   1.000  N
  N7       1.0000 0.79700  0.20320  0.51700  Biso   1.000  N
  N8       1.0000 0.20300  0.70320  0.98300  Biso   1.000  N
  N9       1.0000 0.20400  0.76460  0.57000  Biso   1.000  N
  N10      1.0000 0.79600  0.26460  0.93000  Biso   1.000  N
  N11      1.0000 0.79600  0.23540  0.43000  Biso   1.000  N
  N12      1.0000 0.20400  0.73540  0.07000  Biso   1.000  N
  N13      1.0000 0.77600  0.98340  0.60520  Biso   1.000  N
  N14      1.0000 0.22400  0.48340  0.89480  Biso   1.000  N
  N15      1.0000 0.22400  0.01660  0.39480  Biso   1.000  N
  N16      1.0000 0.77600  0.51660  0.10520  Biso   1.000  N
  N17      1.0000 0.82480  0.97250  0.71590  Biso   1.000  N
  N18      1.0000 0.17520  0.47250  0.78410  Biso   1.000  N
  N19      1.0000 0.17520  0.02750  0.28410  Biso   1.000  N
  N20      1.0000 0.82480  0.52750  0.21590  Biso   1.000  N
  N21      1.0000 0.86600  0.06960  0.68660  Biso   1.000  N
  N22      1.0000 0.13400  0.56960  0.81340  Biso   1.000  N
  N23      1.0000 0.13400  0.93040  0.31340  Biso   1.000  N
  N24      1.0000 0.86600  0.43040  0.18660  Biso   1.000  N
  N25      1.0000 0.93100  0.70990  0.77380  Biso   1.000  N
  N26      1.0000 0.06900  0.20990  0.72620  Biso   1.000  N
  N27      1.0000 0.06900  0.29010  0.22620  Biso   1.000  N
  N28      1.0000 0.93100  0.79010  0.27380  Biso   1.000  N
  N29      1.0000 0.85400  0.80380  0.77210  Biso   1.000  N
  N30      1.0000 0.14600  0.30380  0.72790  Biso   1.000  N
  N31      1.0000 0.14600  0.19620  0.22790  Biso   1.000  N
  N32      1.0000 0.85400  0.69620  0.27210  Biso   1.000  N
  N33      1.0000 0.75100  0.76430  0.73620  Biso   1.000  N
  N34      1.0000 0.24900  0.26430  0.76380  Biso   1.000  N
  N35      1.0000 0.24900  0.23570  0.26380  Biso   1.000  N
  N36      1.0000 0.75100  0.73570  0.23620  Biso   1.000  N
  C1       1.0000 0.32700  0.80980  0.50900  Biso   1.000  C
  C2       1.0000 0.67300  0.30980  0.99100  Biso   1.000  C
  C3       1.0000 0.67300  0.19020  0.49100  Biso   1.000  C
  C4       1.0000 0.32700  0.69020  0.00900  Biso   1.000  C
  H1       1.0000 0.35960  0.82940  0.46410  Biso   1.000  H
  H2       1.0000 0.64040  0.32940  0.03590  Biso   1.000  H
  H3       1.0000 0.64040  0.17060  0.53590  Biso   1.000  H
  H4       1.0000 0.35960  0.67060  0.96410  Biso   1.000  H
  C5       1.0000 0.31400  0.76190  0.64700  Biso   1.000  C
  C6       1.0000 0.68600  0.26190  0.85300  Biso   1.000  C
  C7       1.0000 0.68600  0.23810  0.35300  Biso   1.000  C
  C8       1.0000 0.31400  0.73810  0.14700  Biso   1.000  C
  H5       1.0000 0.33220  0.74400  0.71390  Biso   1.000  H
  H6       1.0000 0.66780  0.24400  0.78610  Biso   1.000  H
  H7       1.0000 0.66780  0.25600  0.28610  Biso   1.000  H
  H8       1.0000 0.33220  0.75600  0.21390  Biso   1.000  H
  C9       1.0000 0.08100  0.74200  0.56900  Biso   1.000  C
  C10      1.0000 0.91900  0.24200  0.93100  Biso   1.000  C
  C11      1.0000 0.91900  0.25800  0.43100  Biso   1.000  C
  C12      1.0000 0.08100  0.75800  0.06900  Biso   1.000  C
  H9       1.0000 0.04340  0.71360  0.51000  Biso   1.000  H
  H10      1.0000 0.95660  0.21360  0.99000  Biso   1.000  H
  H11      1.0000 0.95660  0.28640  0.49000  Biso   1.000  H
  H12      1.0000 0.04340  0.78640  0.01000  Biso   1.000  H
  H13      1.0000 0.09710  0.72030  0.63650  Biso   1.000  H
  H14      1.0000 0.90290  0.22030  0.86350  Biso   1.000  H
  H15      1.0000 0.90290  0.27970  0.36350  Biso   1.000  H
  H16      1.0000 0.09710  0.77970  0.13650  Biso   1.000  H
  C13      1.0000 0.98800  0.79150  0.55800  Biso   1.000  C
  C14      1.0000 0.01200  0.29150  0.94200  Biso   1.000  C
  C15      1.0000 0.01200  0.20850  0.44200  Biso   1.000  C
  C16      1.0000 0.98800  0.70850  0.05800  Biso   1.000  C
  C17      1.0000 0.03000  0.85060  0.59200  Biso   1.000  C
  C18      1.0000 0.97000  0.35060  0.90800  Biso   1.000  C
  C19      1.0000 0.97000  0.14940  0.40800  Biso   1.000  C
  C20      1.0000 0.03000  0.64940  0.09200  Biso   1.000  C
  H17      1.0000 0.11720  0.85930  0.62200  Biso   1.000  H
  H18      1.0000 0.88280  0.35930  0.87800  Biso   1.000  H
  H19      1.0000 0.88280  0.14070  0.37800  Biso   1.000  H
  H20      1.0000 0.11720  0.64070  0.12200  Biso   1.000  H
  C21      1.0000 0.94200  0.89570  0.58000  Biso   1.000  C
  C22      1.0000 0.05800  0.39570  0.92000  Biso   1.000  C
  C23      1.0000 0.05800  0.10430  0.42000  Biso   1.000  C
  C24      1.0000 0.94200  0.60430  0.08000  Biso   1.000  C
  H21      1.0000 0.97210  0.93480  0.60110  Biso   1.000  H
  H22      1.0000 0.02790  0.43480  0.89890  Biso   1.000  H
  H23      1.0000 0.02790  0.06520  0.39890  Biso   1.000  H
  H24      1.0000 0.97210  0.56520  0.10110  Biso   1.000  H
  C25      1.0000 0.81500  0.88600  0.53910  Biso   1.000  C
  C26      1.0000 0.18500  0.38600  0.96090  Biso   1.000  C
  C27      1.0000 0.18500  0.11400  0.46090  Biso   1.000  C
  C28      1.0000 0.81500  0.61400  0.03910  Biso   1.000  C
  C29      1.0000 0.77300  0.82760  0.50500  Biso   1.000  C
  C30      1.0000 0.22700  0.32760  0.99500  Biso   1.000  C
  C31      1.0000 0.22700  0.17240  0.49500  Biso   1.000  C
  C32      1.0000 0.77300  0.67240  0.00500  Biso   1.000  C
  H25      1.0000 0.68520  0.81950  0.47820  Biso   1.000  H
  H26      1.0000 0.31480  0.31950  0.02180  Biso   1.000  H
  H27      1.0000 0.31480  0.18050  0.52180  Biso   1.000  H
  H28      1.0000 0.68520  0.68050  0.97820  Biso   1.000  H
  C33      1.0000 0.85500  0.78150  0.51100  Biso   1.000  C
  C34      1.0000 0.14500  0.28150  0.98900  Biso   1.000  C
  C35      1.0000 0.14500  0.21850  0.48900  Biso   1.000  C
  C36      1.0000 0.85500  0.71850  0.01100  Biso   1.000  C
  H29      1.0000 0.82370  0.74350  0.48330  Biso   1.000  H
  H30      1.0000 0.17630  0.24350  0.01670  Biso   1.000  H
  H31      1.0000 0.17630  0.25650  0.51670  Biso   1.000  H
  H32      1.0000 0.82370  0.75650  0.98330  Biso   1.000  H
  C37      1.0000 0.71900  0.93530  0.52900  Biso   1.000  C
  C38      1.0000 0.28100  0.43530  0.97100  Biso   1.000  C
  C39      1.0000 0.28100  0.06470  0.47100  Biso   1.000  C
  C40      1.0000 0.71900  0.56470  0.02900  Biso   1.000  C
  H33      1.0000 0.64750  0.91850  0.54160  Biso   1.000  H
  H34      1.0000 0.35250  0.41850  0.95840  Biso   1.000  H
  H35      1.0000 0.35250  0.08150  0.45840  Biso   1.000  H
  H36      1.0000 0.64750  0.58150  0.04160  Biso   1.000  H
  H37      1.0000 0.68620  0.95160  0.45580  Biso   1.000  H
  H38      1.0000 0.31380  0.45160  0.04420  Biso   1.000  H
  H39      1.0000 0.31380  0.04840  0.54420  Biso   1.000  H
  H40      1.0000 0.68620  0.54840  0.95580  Biso   1.000  H
  C41      1.0000 0.80100  0.04160  0.58900  Biso   1.000  C
  C42      1.0000 0.19900  0.54160  0.91100  Biso   1.000  C
  C43      1.0000 0.19900  0.95840  0.41100  Biso   1.000  C
  C44      1.0000 0.80100  0.45840  0.08900  Biso   1.000  C
  H41      1.0000 0.77800  0.05980  0.52120  Biso   1.000  H
  H42      1.0000 0.22200  0.55980  0.97880  Biso   1.000  H
  H43      1.0000 0.22200  0.94020  0.47880  Biso   1.000  H
  H44      1.0000 0.77800  0.44020  0.02120  Biso   1.000  H
  C45      1.0000 0.87600  0.02650  0.75600  Biso   1.000  C
  C46      1.0000 0.12400  0.52650  0.74400  Biso   1.000  C
  C47      1.0000 0.12400  0.97350  0.24400  Biso   1.000  C
  C48      1.0000 0.87600  0.47350  0.25600  Biso   1.000  C
  H45      1.0000 0.91680  0.03290  0.83000  Biso   1.000  H
  H46      1.0000 0.08320  0.53290  0.67000  Biso   1.000  H
  H47      1.0000 0.08320  0.96710  0.17000  Biso   1.000  H
  H48      1.0000 0.91680  0.46710  0.33000  Biso   1.000  H
  C49      1.0000 0.96000  0.76810  0.79000  Biso   1.000  C
  C50      1.0000 0.04000  0.26810  0.71000  Biso   1.000  C
  C51      1.0000 0.04000  0.23190  0.21000  Biso   1.000  C
  C52      1.0000 0.96000  0.73190  0.29000  Biso   1.000  C
  H49      1.0000 0.04230  0.78330  0.81020  Biso   1.000  H
  H50      1.0000 0.95770  0.28330  0.68980  Biso   1.000  H
  H51      1.0000 0.95770  0.21670  0.18980  Biso   1.000  H
  H52      1.0000 0.04230  0.71670  0.31020  Biso   1.000  H
  C53      1.0000 0.80100  0.70960  0.74090  Biso   1.000  C
  C54      1.0000 0.19900  0.20960  0.75910  Biso   1.000  C
  C55      1.0000 0.19900  0.29040  0.25910  Biso   1.000  C
  C56      1.0000 0.80100  0.79040  0.24090  Biso   1.000  C
  H53      1.0000 0.75200  0.67430  0.72330  Biso   1.000  H
  H54      1.0000 0.24800  0.17430  0.77670  Biso   1.000  H
  H55      1.0000 0.24800  0.32570  0.27670  Biso   1.000  H
  H56      1.0000 0.75200  0.82570  0.22330  Biso   1.000  H
