data_image0
_cell_length_a       14.0898
_cell_length_b       14.3928
_cell_length_c       15.3691
_cell_angle_alpha    87.958
_cell_angle_beta     62.953
_cell_angle_gamma    72.239

_symmetry_space_group_name_H-M    "P 1"
_symmetry_int_tables_number       1

loop_
  _symmetry_equiv_pos_as_xyz
  'x, y, z'

loop_
  _atom_site_label
  _atom_site_occupancy
  _atom_site_fract_x
  _atom_site_fract_y
  _atom_site_fract_z
  _atom_site_thermal_displace_type
  _atom_site_B_iso_or_equiv
  _atom_site_type_symbol
  P1       1.0000 0.00000  0.50000  0.50000  Biso   1.000  P
  W1       1.0000 0.06776  0.35097  0.66785  Biso   1.000  W
  W2       1.0000 0.93224  0.64903  0.33215  Biso   1.000  W
  W3       1.0000 0.18390  0.25493  0.41739  Biso   1.000  W
  W4       1.0000 0.81610  0.74507  0.58261  Biso   1.000  W
  W5       1.0000 0.11825  0.40333  0.24899  Biso   1.000  W
  W6       1.0000 0.88175  0.59667  0.75101  Biso   1.000  W
  W7       1.0000 0.29252  0.45293  0.33938  Biso   1.000  W
  W8       1.0000 0.70748  0.54707  0.66062  Biso   1.000  W
  W9       1.0000 0.17159  0.55177  0.58891  Biso   1.000  W
  W10      1.0000 0.82841  0.44823  0.41109  Biso   1.000  W
  W11      1.0000 0.10878  0.69874  0.42037  Biso   1.000  W
  W12      1.0000 0.89122  0.30126  0.57963  Biso   1.000  W
  O1       1.0000 0.10370  0.27990  0.74390  Biso   1.000  O
  O2       1.0000 0.89630  0.72010  0.25610  Biso   1.000  O
  O3       1.0000 0.02130  0.49850  0.58920  Biso   1.000  O
  O4       1.0000 0.97870  0.50150  0.41080  Biso   1.000  O
  O5       1.0000 0.10160  0.53660  0.47230  Biso   1.000  O
  O6       1.0000 0.89840  0.46340  0.52770  Biso   1.000  O
  O7       1.0000 0.10290  0.43030  0.41430  Biso   1.000  O
  O8       1.0000 0.89710  0.56970  0.58570  Biso   1.000  O
  O9       1.0000 0.97390  0.60240  0.47230  Biso   1.000  O
  O10      1.0000 0.02610  0.39760  0.52770  Biso   1.000  O
  O11      1.0000 0.95700  0.30640  0.66290  Biso   1.000  O
  O12      1.0000 0.04300  0.69360  0.33710  Biso   1.000  O
  O13      1.0000 0.94990  0.46160  0.75360  Biso   1.000  O
  O14      1.0000 0.05010  0.53840  0.24640  Biso   1.000  O
  O15      1.0000 0.16520  0.42770  0.63460  Biso   1.000  O
  O16      1.0000 0.83480  0.57230  0.36540  Biso   1.000  O
  O17      1.0000 0.17170  0.27250  0.54470  Biso   1.000  O
  O18      1.0000 0.82830  0.72750  0.45530  Biso   1.000  O
  O19      1.0000 0.26800  0.13780  0.37940  Biso   1.000  O
  O20      1.0000 0.73200  0.86220  0.62060  Biso   1.000  O
  O21      1.0000 0.04140  0.23630  0.47900  Biso   1.000  O
  O22      1.0000 0.95860  0.76370  0.52100  Biso   1.000  O
  O23      1.0000 0.28950  0.32450  0.37260  Biso   1.000  O
  O24      1.0000 0.71050  0.67550  0.62740  Biso   1.000  O
  O25      1.0000 0.16050  0.28880  0.30730  Biso   1.000  O
  O26      1.0000 0.83950  0.71120  0.69270  Biso   1.000  O
  O27      1.0000 0.17550  0.35560  0.13130  Biso   1.000  O
  O28      1.0000 0.82450  0.64440  0.86870  Biso   1.000  O
  O29      1.0000 0.97340  0.38950  0.30490  Biso   1.000  O
  O30      1.0000 0.02660  0.61050  0.69510  Biso   1.000  O
  O31      1.0000 0.23980  0.43470  0.24800  Biso   1.000  O
  O32      1.0000 0.76020  0.56530  0.75200  Biso   1.000  O
  O33      1.0000 0.43090  0.42780  0.26330  Biso   1.000  O
  O34      1.0000 0.56910  0.57220  0.73670  Biso   1.000  O
  O35      1.0000 0.23490  0.59070  0.33840  Biso   1.000  O
  O36      1.0000 0.76510  0.40930  0.66160  Biso   1.000  O
  O37      1.0000 0.28270  0.48260  0.46300  Biso   1.000  O
  O38      1.0000 0.71730  0.51740  0.53700  Biso   1.000  O
  O39      1.0000 0.25300  0.57530  0.63290  Biso   1.000  O
  O40      1.0000 0.74700  0.42470  0.36710  Biso   1.000  O
  O41      1.0000 0.14610  0.66450  0.52370  Biso   1.000  O
  O42      1.0000 0.85390  0.33550  0.47630  Biso   1.000  O
  O43      1.0000 0.15530  0.79580  0.38470  Biso   1.000  O
  O44      1.0000 0.84470  0.20420  0.61530  Biso   1.000  O
  Cu1      1.0000 0.45010  0.54699  0.62642  Biso   1.000  Cu
  Cu2      1.0000 0.54990  0.45301  0.37358  Biso   1.000  Cu
  C1       1.0000 0.55600  0.68250  0.49730  Biso   1.000  C
  C2       1.0000 0.44400  0.31750  0.50270  Biso   1.000  C
  H1       1.0000 0.61900  0.66830  0.50740  Biso   1.000  H
  H2       1.0000 0.38100  0.33170  0.49260  Biso   1.000  H
  C3       1.0000 0.40400  0.68700  0.50170  Biso   1.000  C
  C4       1.0000 0.59600  0.31300  0.49830  Biso   1.000  C
  H3       1.0000 0.33710  0.67460  0.51850  Biso   1.000  H
  H4       1.0000 0.66290  0.32540  0.48150  Biso   1.000  H
  C5       1.0000 0.59470  0.81120  0.38260  Biso   1.000  C
  C6       1.0000 0.40530  0.18880  0.61740  Biso   1.000  C
  H5       1.0000 0.58830  0.81860  0.32240  Biso   1.000  H
  H6       1.0000 0.41170  0.18140  0.67760  Biso   1.000  H
  H7       1.0000 0.67400  0.78350  0.36500  Biso   1.000  H
  H8       1.0000 0.32600  0.21650  0.63500  Biso   1.000  H
  C7       1.0000 0.54660  0.90950  0.44180  Biso   1.000  C
  C8       1.0000 0.45340  0.09050  0.55820  Biso   1.000  C
  C9       1.0000 0.59630  0.93320  0.49360  Biso   1.000  C
  C10      1.0000 0.40370  0.06680  0.50640  Biso   1.000  C
  H9       1.0000 0.66140  0.88760  0.49010  Biso   1.000  H
  H10      1.0000 0.33860  0.11240  0.50990  Biso   1.000  H
  C11      1.0000 0.44790  0.97820  0.45030  Biso   1.000  C
  C12      1.0000 0.55210  0.02180  0.54970  Biso   1.000  C
  H11      1.0000 0.41170  0.96370  0.41750  Biso   1.000  H
  H12      1.0000 0.58830  0.03630  0.58250  Biso   1.000  H
  C13      1.0000 0.47220  0.39580  0.76010  Biso   1.000  C
  C14      1.0000 0.52780  0.60420  0.23990  Biso   1.000  C
  H13      1.0000 0.54840  0.38530  0.73820  Biso   1.000  H
  H14      1.0000 0.45160  0.61470  0.26180  Biso   1.000  H
  C15      1.0000 0.31090  0.44890  0.77160  Biso   1.000  C
  C16      1.0000 0.68910  0.55110  0.22840  Biso   1.000  C
  H15      1.0000 0.24840  0.48190  0.76310  Biso   1.000  H
  H16      1.0000 0.75160  0.51810  0.23690  Biso   1.000  H
  C17      1.0000 0.21910  0.35080  0.90590  Biso   1.000  C
  C18      1.0000 0.78090  0.64920  0.09410  Biso   1.000  C
  H17      1.0000 0.23670  0.32300  0.95730  Biso   1.000  H
  H18      1.0000 0.76330  0.67700  0.04270  Biso   1.000  H
  H19      1.0000 0.21440  0.29880  0.87100  Biso   1.000  H
  H20      1.0000 0.78560  0.70120  0.12900  Biso   1.000  H
  C19      1.0000 0.10730  0.42950  0.95230  Biso   1.000  C
  C20      1.0000 0.89270  0.57050  0.04770  Biso   1.000  C
  C21      1.0000 0.01530  0.41250  0.95330  Biso   1.000  C
  C22      1.0000 0.98470  0.58750  0.04670  Biso   1.000  C
  H21      1.0000 0.02460  0.35400  0.92170  Biso   1.000  H
  H22      1.0000 0.97540  0.64600  0.07830  Biso   1.000  H
  C23      1.0000 0.08850  0.51900  0.99970  Biso   1.000  C
  C24      1.0000 0.91150  0.48100  0.00030  Biso   1.000  C
  H23      1.0000 0.14940  0.53230  0.99900  Biso   1.000  H
  H24      1.0000 0.85060  0.46770  0.00100  Biso   1.000  H
  N1       1.0000 0.47460  0.64250  0.54000  Biso   1.000  N
  N2       1.0000 0.52540  0.35750  0.46000  Biso   1.000  N
  N3       1.0000 0.43790  0.74850  0.43950  Biso   1.000  N
  N4       1.0000 0.56210  0.25150  0.56050  Biso   1.000  N
  N5       1.0000 0.53500  0.74450  0.43900  Biso   1.000  N
  N6       1.0000 0.46500  0.25550  0.56100  Biso   1.000  N
  N7       1.0000 0.41190  0.45840  0.72100  Biso   1.000  N
  N8       1.0000 0.58810  0.54160  0.27900  Biso   1.000  N
  N9       1.0000 0.41540  0.35190  0.83020  Biso   1.000  N
  N10      1.0000 0.58460  0.64810  0.16980  Biso   1.000  N
  N11      1.0000 0.31200  0.38570  0.83620  Biso   1.000  N
  N12      1.0000 0.68800  0.61430  0.16380  Biso   1.000  N
  Cu3      1.0000 0.39317  0.39884  0.04513  Biso   1.000  Cu
  Cu4      1.0000 0.60683  0.60116  0.95487  Biso   1.000  Cu
  Cu5      1.0000 0.86648  0.00245  0.58424  Biso   1.000  Cu
  Cu6      1.0000 0.13352  0.99755  0.41576  Biso   1.000  Cu
  C25      1.0000 0.37320  0.57960  0.95770  Biso   1.000  C
  C26      1.0000 0.62680  0.42040  0.04230  Biso   1.000  C
  H25      1.0000 0.42410  0.54940  0.89390  Biso   1.000  H
  H26      1.0000 0.57590  0.45060  0.10610  Biso   1.000  H
  C27      1.0000 0.26930  0.60850  0.11070  Biso   1.000  C
  C28      1.0000 0.73070  0.39150  0.88930  Biso   1.000  C
  H27      1.0000 0.23330  0.59810  0.17620  Biso   1.000  H
  H28      1.0000 0.76670  0.40190  0.82380  Biso   1.000  H
  C29      1.0000 0.31140  0.75200  0.91780  Biso   1.000  C
  C30      1.0000 0.68860  0.24800  0.08220  Biso   1.000  C
  H29      1.0000 0.37610  0.72970  0.85320  Biso   1.000  H
  H30      1.0000 0.62390  0.27030  0.14680  Biso   1.000  H
  H31      1.0000 0.31450  0.81050  0.94430  Biso   1.000  H
  H32      1.0000 0.68550  0.18950  0.05570  Biso   1.000  H
  C31      1.0000 0.20660  0.77630  0.90850  Biso   1.000  C
  C32      1.0000 0.79340  0.22370  0.09150  Biso   1.000  C
  C33      1.0000 0.19760  0.72580  0.84100  Biso   1.000  C
  C34      1.0000 0.80240  0.27420  0.15900  Biso   1.000  C
  H33      1.0000 0.26070  0.67600  0.79640  Biso   1.000  H
  H34      1.0000 0.73930  0.32400  0.20360  Biso   1.000  H
  C35      1.0000 0.09920  0.74600  0.83710  Biso   1.000  C
  C36      1.0000 0.90080  0.25400  0.16290  Biso   1.000  C
  H35      1.0000 0.09590  0.70830  0.79130  Biso   1.000  H
  H36      1.0000 0.90410  0.29170  0.20870  Biso   1.000  H
  C37      1.0000 0.00460  0.82040  0.89900  Biso   1.000  C
  C38      1.0000 0.99540  0.17960  0.10100  Biso   1.000  C
  C39      1.0000 0.01160  0.87410  0.96680  Biso   1.000  C
  C40      1.0000 0.98840  0.12590  0.03320  Biso   1.000  C
  H37      1.0000 0.94890  0.92530  0.00960  Biso   1.000  H
  H38      1.0000 0.05110  0.07470  0.99040  Biso   1.000  H
  C41      1.0000 0.11200  0.85220  0.97180  Biso   1.000  C
  C42      1.0000 0.88800  0.14780  0.02820  Biso   1.000  C
  H39      1.0000 0.11590  0.88880  0.01810  Biso   1.000  H
  H40      1.0000 0.88410  0.11120  0.98190  Biso   1.000  H
  C43      1.0000 0.42560  0.21550  0.12410  Biso   1.000  C
  C44      1.0000 0.57440  0.78450  0.87590  Biso   1.000  C
  H41      1.0000 0.37390  0.24510  0.18790  Biso   1.000  H
  H42      1.0000 0.62610  0.75490  0.81210  Biso   1.000  H
  C45      1.0000 0.52820  0.18870  0.97280  Biso   1.000  C
  C46      1.0000 0.47180  0.81130  0.02720  Biso   1.000  C
  H43      1.0000 0.56200  0.19900  0.90710  Biso   1.000  H
  H44      1.0000 0.43800  0.80100  0.09290  Biso   1.000  H
  C47      1.0000 0.48010  0.04290  0.16460  Biso   1.000  C
  C48      1.0000 0.51990  0.95710  0.83540  Biso   1.000  C
  H45      1.0000 0.48620  0.98320  0.13210  Biso   1.000  H
  H46      1.0000 0.51380  0.01680  0.86790  Biso   1.000  H
  H47      1.0000 0.40890  0.06280  0.22460  Biso   1.000  H
  H48      1.0000 0.59110  0.93720  0.77540  Biso   1.000  H
  C49      1.0000 0.57590  0.02280  0.19000  Biso   1.000  C
  C50      1.0000 0.42410  0.97720  0.81000  Biso   1.000  C
  C51      1.0000 0.58020  0.09290  0.24700  Biso   1.000  C
  C52      1.0000 0.41980  0.90710  0.75300  Biso   1.000  C
  H49      1.0000 0.52190  0.15250  0.27210  Biso   1.000  H
  H50      1.0000 0.47810  0.84750  0.72790  Biso   1.000  H
  C53      1.0000 0.67050  0.07500  0.26680  Biso   1.000  C
  C54      1.0000 0.32950  0.92500  0.73320  Biso   1.000  C
  H51      1.0000 0.67270  0.12300  0.30430  Biso   1.000  H
  H52      1.0000 0.32730  0.87700  0.69570  Biso   1.000  H
  C55      1.0000 0.75710  0.98660  0.23130  Biso   1.000  C
  C56      1.0000 0.24290  0.01340  0.76870  Biso   1.000  C
  C57      1.0000 0.74840  0.91520  0.18030  Biso   1.000  C
  C58      1.0000 0.25160  0.08480  0.81970  Biso   1.000  C
  H53      1.0000 0.80330  0.85350  0.16010  Biso   1.000  H
  H54      1.0000 0.19670  0.14650  0.83990  Biso   1.000  H
  C59      1.0000 0.66030  0.93340  0.15870  Biso   1.000  C
  C60      1.0000 0.33970  0.06660  0.84130  Biso   1.000  C
  H55      1.0000 0.65770  0.88470  0.12250  Biso   1.000  H
  H56      1.0000 0.34230  0.11530  0.87750  Biso   1.000  H
  C61      1.0000 0.86280  0.96600  0.24010  Biso   1.000  C
  C62      1.0000 0.13720  0.03400  0.75990  Biso   1.000  C
  H57      1.0000 0.89730  0.89520  0.23230  Biso   1.000  H
  H58      1.0000 0.10270  0.10480  0.76770  Biso   1.000  H
  H59      1.0000 0.91440  0.99090  0.18580  Biso   1.000  H
  H60      1.0000 0.08560  0.00910  0.81420  Biso   1.000  H
  C63      1.0000 0.86510  0.96040  0.40180  Biso   1.000  C
  C64      1.0000 0.13490  0.03960  0.59820  Biso   1.000  C
  H61      1.0000 0.87980  0.89310  0.40480  Biso   1.000  H
  H62      1.0000 0.12020  0.10690  0.59520  Biso   1.000  H
  C65      1.0000 0.83550  0.10930  0.43140  Biso   1.000  C
  C66      1.0000 0.16450  0.89070  0.56860  Biso   1.000  C
  H63      1.0000 0.82530  0.16840  0.46250  Biso   1.000  H
  H64      1.0000 0.17470  0.83160  0.53750  Biso   1.000  H
  C67      1.0000 0.86100  0.04840  0.77140  Biso   1.000  C
  C68      1.0000 0.13900  0.95160  0.22860  Biso   1.000  C
  H65      1.0000 0.84740  0.11510  0.76530  Biso   1.000  H
  H66      1.0000 0.15260  0.88490  0.23470  Biso   1.000  H
  C69      1.0000 0.89050  0.90010  0.73880  Biso   1.000  C
  C70      1.0000 0.10950  0.09990  0.26120  Biso   1.000  C
  H67      1.0000 0.90310  0.83980  0.70820  Biso   1.000  H
  H68      1.0000 0.09690  0.16020  0.29180  Biso   1.000  H
  C71      1.0000 0.89400  0.84320  0.89590  Biso   1.000  C
  C72      1.0000 0.10600  0.15680  0.10410  Biso   1.000  C
  H69      1.0000 0.88750  0.78280  0.87680  Biso   1.000  H
  H70      1.0000 0.11250  0.21720  0.12320  Biso   1.000  H
  H71      1.0000 0.83220  0.86990  0.96120  Biso   1.000  H
  H72      1.0000 0.16780  0.13010  0.03880  Biso   1.000  H
  N13      1.0000 0.34690  0.53420  0.03690  Biso   1.000  N
  N14      1.0000 0.65310  0.46580  0.96310  Biso   1.000  N
  N15      1.0000 0.25020  0.69530  0.08110  Biso   1.000  N
  N16      1.0000 0.74980  0.30470  0.91890  Biso   1.000  N
  N17      1.0000 0.31620  0.67510  0.98240  Biso   1.000  N
  N18      1.0000 0.68380  0.32490  0.01760  Biso   1.000  N
  N19      1.0000 0.45230  0.26270  0.04590  Biso   1.000  N
  N20      1.0000 0.54770  0.73730  0.95410  Biso   1.000  N
  N21      1.0000 0.48220  0.12040  0.09990  Biso   1.000  N
  N22      1.0000 0.51780  0.87960  0.90010  Biso   1.000  N
  N23      1.0000 0.54980  0.10310  0.00120  Biso   1.000  N
  N24      1.0000 0.45020  0.89690  0.99880  Biso   1.000  N
  N25      1.0000 0.85490  0.02300  0.46810  Biso   1.000  N
  N26      1.0000 0.14510  0.97700  0.53190  Biso   1.000  N
  N27      1.0000 0.85170  0.00610  0.33040  Biso   1.000  N
  N28      1.0000 0.14830  0.99390  0.66960  Biso   1.000  N
  N29      1.0000 0.83230  0.10270  0.34820  Biso   1.000  N
  N30      1.0000 0.16770  0.89730  0.65180  Biso   1.000  N
  N31      1.0000 0.87560  0.98240  0.70290  Biso   1.000  N
  N32      1.0000 0.12440  0.01760  0.29710  Biso   1.000  N
  N33      1.0000 0.88510  0.91400  0.82620  Biso   1.000  N
  N34      1.0000 0.11490  0.08600  0.17380  Biso   1.000  N
  N35      1.0000 0.86770  0.01010  0.84650  Biso   1.000  N
  N36      1.0000 0.13230  0.98990  0.15350  Biso   1.000  N
  O45      1.0000 0.37050  0.85000  0.28190  Biso   1.000  O
  O46      1.0000 0.62950  0.15000  0.71810  Biso   1.000  O
