data_image0
_cell_length_a       13.9881
_cell_length_b       14.3592
_cell_length_c       15.3319
_cell_angle_alpha    76.415
_cell_angle_beta     62.953
_cell_angle_gamma    72.604

_symmetry_space_group_name_H-M    "P 1"
_symmetry_int_tables_number       1

loop_
  _symmetry_equiv_pos_as_xyz
  'x, y, z'

loop_
  _atom_site_label
  _atom_site_occupancy
  _atom_site_fract_x
  _atom_site_fract_y
  _atom_site_fract_z
  _atom_site_thermal_displace_type
  _atom_site_B_iso_or_equiv
  _atom_site_type_symbol
  P1       1.0000 0.50000  0.00000  0.50000  Biso   1.000  P
  W1       1.0000 0.60080  0.75589  0.58164  Biso   1.000  W
  W2       1.0000 0.39920  0.24411  0.41836  Biso   1.000  W
  W3       1.0000 0.36664  0.90478  0.75007  Biso   1.000  W
  W4       1.0000 0.63336  0.09522  0.24993  Biso   1.000  W
  W5       1.0000 0.26446  0.14906  0.66761  Biso   1.000  W
  W6       1.0000 0.73554  0.85094  0.33239  Biso   1.000  W
  W7       1.0000 0.36807  0.04793  0.33900  Biso   1.000  W
  W8       1.0000 0.63193  0.95207  0.66100  Biso   1.000  W
  W9       1.0000 0.47087  0.80149  0.41928  Biso   1.000  W
  W10      1.0000 0.52913  0.19851  0.58072  Biso   1.000  W
  W11      1.0000 0.23876  0.94919  0.58827  Biso   1.000  W
  W12      1.0000 0.76124  0.05081  0.41173  Biso   1.000  W
  O1       1.0000 0.38750  0.00400  0.58970  Biso   1.000  O
  O2       1.0000 0.61250  0.99600  0.41030  Biso   1.000  O
  O3       1.0000 0.64740  0.34810  0.71870  Biso   1.000  O
  O4       1.0000 0.35260  0.65190  0.28130  Biso   1.000  O
  O5       1.0000 0.55310  0.89730  0.47210  Biso   1.000  O
  O6       1.0000 0.44690  0.10270  0.52790  Biso   1.000  O
  O7       1.0000 0.48200  0.06950  0.41470  Biso   1.000  O
  O8       1.0000 0.51800  0.93050  0.58530  Biso   1.000  O
  O9       1.0000 0.57370  0.03660  0.52800  Biso   1.000  O
  O10      1.0000 0.42630  0.96340  0.47200  Biso   1.000  O
  O11      1.0000 0.25540  0.01870  0.46080  Biso   1.000  O
  O12      1.0000 0.74460  0.98130  0.53920  Biso   1.000  O
  O13      1.0000 0.20070  0.07390  0.63230  Biso   1.000  O
  O14      1.0000 0.79930  0.92610  0.36770  Biso   1.000  O
  O15      1.0000 0.27890  0.88970  0.69280  Biso   1.000  O
  O16      1.0000 0.72110  0.11030  0.30720  Biso   1.000  O
  O17      1.0000 0.48800  0.93620  0.75220  Biso   1.000  O
  O18      1.0000 0.51200  0.06380  0.24780  Biso   1.000  O
  O19      1.0000 0.66200  0.82400  0.62830  Biso   1.000  O
  O20      1.0000 0.33800  0.17600  0.37170  Biso   1.000  O
  O21      1.0000 0.42810  0.90970  0.33820  Biso   1.000  O
  O22      1.0000 0.57190  0.09030  0.66180  Biso   1.000  O
  O23      1.0000 0.32980  0.83710  0.52190  Biso   1.000  O
  O24      1.0000 0.67020  0.16290  0.47810  Biso   1.000  O
  O25      1.0000 0.52080  0.73390  0.51980  Biso   1.000  O
  O26      1.0000 0.47920  0.26610  0.48020  Biso   1.000  O
  O27      1.0000 0.29660  0.03920  0.75330  Biso   1.000  O
  O28      1.0000 0.70340  0.96080  0.24670  Biso   1.000  O
  O29      1.0000 0.45620  0.70640  0.38290  Biso   1.000  O
  O30      1.0000 0.54380  0.29360  0.61710  Biso   1.000  O
  O31      1.0000 0.46690  0.79100  0.69140  Biso   1.000  O
  O32      1.0000 0.53310  0.20900  0.30860  Biso   1.000  O
  O33      1.0000 0.15300  0.22100  0.74400  Biso   1.000  O
  O34      1.0000 0.84700  0.77900  0.25600  Biso   1.000  O
  O35      1.0000 0.30630  0.85780  0.86740  Biso   1.000  O
  O36      1.0000 0.69370  0.14220  0.13260  Biso   1.000  O
  O37      1.0000 0.30590  0.07200  0.26250  Biso   1.000  O
  O38      1.0000 0.69410  0.92800  0.73750  Biso   1.000  O
  O39      1.0000 0.38130  0.19420  0.66330  Biso   1.000  O
  O40      1.0000 0.61870  0.80580  0.33670  Biso   1.000  O
  O41      1.0000 0.11260  0.92740  0.63090  Biso   1.000  O
  O42      1.0000 0.88740  0.07260  0.36910  Biso   1.000  O
  O43      1.0000 0.64590  0.64000  0.62090  Biso   1.000  O
  O44      1.0000 0.35410  0.36000  0.37910  Biso   1.000  O
  O45      1.0000 0.71540  0.77290  0.45640  Biso   1.000  O
  O46      1.0000 0.28460  0.22710  0.54360  Biso   1.000  O
  Cu1      1.0000 0.43800  0.89986  0.95101  Biso   1.000  Cu
  Cu2      1.0000 0.56200  0.10014  0.04899  Biso   1.000  Cu
  Cu3      1.0000 0.45126  0.49704  0.41633  Biso   1.000  Cu
  Cu4      1.0000 0.54874  0.50296  0.58367  Biso   1.000  Cu
  Cu5      1.0000 0.92292  0.95409  0.62501  Biso   1.000  Cu
  Cu6      1.0000 0.07708  0.04591  0.37499  Biso   1.000  Cu
  C1       1.0000 0.62870  0.39580  0.26270  Biso   1.000  C
  C2       1.0000 0.37130  0.60420  0.73730  Biso   1.000  C
  H1       1.0000 0.61060  0.33560  0.29360  Biso   1.000  H
  H2       1.0000 0.38940  0.66440  0.70640  Biso   1.000  H
  C3       1.0000 0.63240  0.54540  0.22870  Biso   1.000  C
  C4       1.0000 0.36760  0.45460  0.77130  Biso   1.000  C
  H3       1.0000 0.61210  0.61210  0.23540  Biso   1.000  H
  H4       1.0000 0.38790  0.38790  0.76460  Biso   1.000  H
  C5       1.0000 0.79160  0.34030  0.10200  Biso   1.000  C
  C6       1.0000 0.20840  0.65970  0.89800  Biso   1.000  C
  H5       1.0000 0.79580  0.36710  0.03640  Biso   1.000  H
  H6       1.0000 0.20420  0.63290  0.96360  Biso   1.000  H
  H7       1.0000 0.76610  0.27990  0.12010  Biso   1.000  H
  H8       1.0000 0.23390  0.72010  0.87990  Biso   1.000  H
  C7       1.0000 0.90500  0.31780  0.10030  Biso   1.000  C
  C8       1.0000 0.09500  0.68220  0.89970  Biso   1.000  C
  C9       1.0000 0.93490  0.24520  0.16260  Biso   1.000  C
  C10      1.0000 0.06510  0.75480  0.83740  Biso   1.000  C
  H9       1.0000 0.88390  0.20960  0.20910  Biso   1.000  H
  H10      1.0000 0.11610  0.79040  0.79090  Biso   1.000  H
  C11      1.0000 0.03710  0.22280  0.15930  Biso   1.000  C
  C12      1.0000 0.96290  0.77720  0.84070  Biso   1.000  C
  H11      1.0000 0.05560  0.17080  0.20210  Biso   1.000  H
  H12      1.0000 0.94440  0.82920  0.79790  Biso   1.000  H
  C13      1.0000 0.11730  0.27710  0.09170  Biso   1.000  C
  C14      1.0000 0.88270  0.72290  0.90830  Biso   1.000  C
  C15      1.0000 0.08390  0.35330  0.02950  Biso   1.000  C
  C16      1.0000 0.91610  0.64670  0.97050  Biso   1.000  C
  H13      1.0000 0.13350  0.39070  0.98370  Biso   1.000  H
  H14      1.0000 0.86650  0.60930  0.01630  Biso   1.000  H
  C17      1.0000 0.97990  0.37430  0.03430  Biso   1.000  C
  C18      1.0000 0.02010  0.62570  0.96570  Biso   1.000  C
  H15      1.0000 0.95890  0.42680  0.99310  Biso   1.000  H
  H16      1.0000 0.04110  0.57320  0.00690  Biso   1.000  H
  C19      1.0000 0.23300  0.25140  0.08380  Biso   1.000  C
  C20      1.0000 0.76700  0.74860  0.91620  Biso   1.000  C
  H17      1.0000 0.26360  0.30950  0.05850  Biso   1.000  H
  H18      1.0000 0.73640  0.69050  0.94150  Biso   1.000  H
  H19      1.0000 0.23280  0.22770  0.14850  Biso   1.000  H
  H20      1.0000 0.76720  0.77230  0.85150  Biso   1.000  H
  C21      1.0000 0.32940  0.07960  0.04200  Biso   1.000  C
  C22      1.0000 0.67060  0.92040  0.95800  Biso   1.000  C
  H21      1.0000 0.31490  0.04860  0.10580  Biso   1.000  H
  H22      1.0000 0.68510  0.95140  0.89420  Biso   1.000  H
  C23      1.0000 0.38140  0.11070  0.88670  Biso   1.000  C
  C24      1.0000 0.61860  0.88930  0.11330  Biso   1.000  C
  H23      1.0000 0.41230  0.10120  0.82060  Biso   1.000  H
  H24      1.0000 0.58770  0.89880  0.17940  Biso   1.000  H
  C25      1.0000 0.49870  0.68970  0.02670  Biso   1.000  C
  C26      1.0000 0.50130  0.31030  0.97330  Biso   1.000  C
  H25      1.0000 0.46740  0.70070  0.09250  Biso   1.000  H
  H26      1.0000 0.53260  0.29930  0.90750  Biso   1.000  H
  C27      1.0000 0.54780  0.71470  0.87210  Biso   1.000  C
  C28      1.0000 0.45220  0.28530  0.12790  Biso   1.000  C
  H27      1.0000 0.56000  0.74330  0.80800  Biso   1.000  H
  H28      1.0000 0.44000  0.25670  0.19200  Biso   1.000  H
  C29      1.0000 0.64320  0.54190  0.83210  Biso   1.000  C
  C30      1.0000 0.35680  0.45810  0.16790  Biso   1.000  C
  H29      1.0000 0.63280  0.56180  0.77140  Biso   1.000  H
  H30      1.0000 0.36720  0.43820  0.22860  Biso   1.000  H
  H31      1.0000 0.61670  0.48210  0.86360  Biso   1.000  H
  H32      1.0000 0.38330  0.51790  0.13640  Biso   1.000  H
  C31      1.0000 0.76440  0.52220  0.80850  Biso   1.000  C
  C32      1.0000 0.23560  0.47780  0.19150  Biso   1.000  C
  C33      1.0000 0.81650  0.43180  0.84080  Biso   1.000  C
  C34      1.0000 0.18350  0.56820  0.15920  Biso   1.000  C
  H33      1.0000 0.77740  0.38280  0.87510  Biso   1.000  H
  H34      1.0000 0.22260  0.61720  0.12490  Biso   1.000  H
  C35      1.0000 0.92620  0.41410  0.82240  Biso   1.000  C
  C36      1.0000 0.07380  0.58590  0.17760  Biso   1.000  C
  H35      1.0000 0.96010  0.35360  0.84530  Biso   1.000  H
  H36      1.0000 0.03990  0.64640  0.15470  Biso   1.000  H
  C37      1.0000 0.98740  0.48680  0.76920  Biso   1.000  C
  C38      1.0000 0.01260  0.51320  0.23080  Biso   1.000  C
  C39      1.0000 0.93690  0.57510  0.73290  Biso   1.000  C
  C40      1.0000 0.06310  0.42490  0.26710  Biso   1.000  C
  H37      1.0000 0.97650  0.62330  0.69610  Biso   1.000  H
  H38      1.0000 0.02350  0.37670  0.30390  Biso   1.000  H
  C41      1.0000 0.82640  0.59160  0.75160  Biso   1.000  C
  C42      1.0000 0.17360  0.40840  0.24840  Biso   1.000  C
  H39      1.0000 0.79340  0.65040  0.72550  Biso   1.000  H
  H40      1.0000 0.20660  0.34960  0.27450  Biso   1.000  H
  C43      1.0000 0.10280  0.46460  0.76370  Biso   1.000  C
  C44      1.0000 0.89720  0.53540  0.23630  Biso   1.000  C
  H41      1.0000 0.09980  0.49130  0.81770  Biso   1.000  H
  H42      1.0000 0.90020  0.50870  0.18230  Biso   1.000  H
  H43      1.0000 0.12860  0.39390  0.77300  Biso   1.000  H
  H44      1.0000 0.87140  0.60610  0.22700  Biso   1.000  H
  C45      1.0000 0.26550  0.45970  0.60020  Biso   1.000  C
  C46      1.0000 0.73450  0.54030  0.39980  Biso   1.000  C
  H45      1.0000 0.28260  0.39250  0.59680  Biso   1.000  H
  H46      1.0000 0.71740  0.60750  0.40320  Biso   1.000  H
  C47      1.0000 0.26840  0.60860  0.56720  Biso   1.000  C
  C48      1.0000 0.73160  0.39140  0.43280  Biso   1.000  C
  H47      1.0000 0.28860  0.66770  0.53480  Biso   1.000  H
  H48      1.0000 0.71140  0.33230  0.46520  Biso   1.000  H
  C49      1.0000 0.76680  0.10490  0.75930  Biso   1.000  C
  C50      1.0000 0.23320  0.89510  0.24070  Biso   1.000  C
  H49      1.0000 0.71250  0.11430  0.73710  Biso   1.000  H
  H50      1.0000 0.28750  0.88570  0.26290  Biso   1.000  H
  C51      1.0000 0.91810  0.05430  0.77040  Biso   1.000  C
  C52      1.0000 0.08190  0.94570  0.22960  Biso   1.000  C
  H51      1.0000 0.99030  0.02380  0.76090  Biso   1.000  H
  H52      1.0000 0.00970  0.97620  0.23910  Biso   1.000  H
  C53      1.0000 0.87360  0.14960  0.90660  Biso   1.000  C
  C54      1.0000 0.12640  0.85040  0.09340  Biso   1.000  C
  H53      1.0000 0.80420  0.17680  0.95830  Biso   1.000  H
  H54      1.0000 0.19580  0.82320  0.04170  Biso   1.000  H
  H55      1.0000 0.91260  0.20210  0.87260  Biso   1.000  H
  H56      1.0000 0.08740  0.79790  0.12740  Biso   1.000  H
  C55      1.0000 0.94040  0.07110  0.95330  Biso   1.000  C
  C56      1.0000 0.05960  0.92890  0.04670  Biso   1.000  C
  C57      1.0000 0.90410  0.98450  0.00250  Biso   1.000  C
  C58      1.0000 0.09590  0.01550  0.99750  Biso   1.000  C
  H57      1.0000 0.84010  0.97460  0.00510  Biso   1.000  H
  H58      1.0000 0.15990  0.02540  0.99490  Biso   1.000  H
  C59      1.0000 0.03430  0.08690  0.95230  Biso   1.000  C
  C60      1.0000 0.96570  0.91310  0.04770  Biso   1.000  C
  H59      1.0000 0.05640  0.14550  0.92110  Biso   1.000  H
  H60      1.0000 0.94360  0.85450  0.07890  Biso   1.000  H
  C61      1.0000 0.09530  0.81250  0.49950  Biso   1.000  C
  C62      1.0000 0.90470  0.18750  0.50050  Biso   1.000  C
  H61      1.0000 0.14600  0.82450  0.51660  Biso   1.000  H
  H62      1.0000 0.85400  0.17550  0.48340  Biso   1.000  H
  C63      1.0000 0.94630  0.81640  0.49620  Biso   1.000  C
  C64      1.0000 0.05370  0.18360  0.50380  Biso   1.000  C
  H63      1.0000 0.87240  0.83000  0.50820  Biso   1.000  H
  H64      1.0000 0.12760  0.17000  0.49180  Biso   1.000  H
  C65      1.0000 0.02060  0.68760  0.38180  Biso   1.000  C
  C66      1.0000 0.97940  0.31240  0.61820  Biso   1.000  C
  H65      1.0000 0.08670  0.67990  0.32100  Biso   1.000  H
  H66      1.0000 0.91330  0.32010  0.67900  Biso   1.000  H
  H67      1.0000 0.95790  0.71510  0.36500  Biso   1.000  H
  H68      1.0000 0.04210  0.28490  0.63500  Biso   1.000  H
  C67      1.0000 0.00990  0.58900  0.44140  Biso   1.000  C
  C68      1.0000 0.99010  0.41100  0.55860  Biso   1.000  C
  C69      1.0000 0.10170  0.52240  0.44830  Biso   1.000  C
  C70      1.0000 0.89830  0.47760  0.55170  Biso   1.000  C
  H69      1.0000 0.17060  0.53740  0.41370  Biso   1.000  H
  H70      1.0000 0.82940  0.46260  0.58630  Biso   1.000  H
  C71      1.0000 0.90920  0.56630  0.49340  Biso   1.000  C
  C72      1.0000 0.09080  0.43370  0.50660  Biso   1.000  C
  H71      1.0000 0.84710  0.61110  0.48960  Biso   1.000  H
  H72      1.0000 0.15290  0.38890  0.51040  Biso   1.000  H
  N1       1.0000 0.57870  0.47950  0.29910  Biso   1.000  N
  N2       1.0000 0.42130  0.52050  0.70090  Biso   1.000  N
  N3       1.0000 0.71220  0.41060  0.17180  Biso   1.000  N
  N4       1.0000 0.28780  0.58940  0.82820  Biso   1.000  N
  N5       1.0000 0.71440  0.50930  0.15110  Biso   1.000  N
  N6       1.0000 0.28560  0.49070  0.84890  Biso   1.000  N
  N7       1.0000 0.30030  0.17600  0.01800  Biso   1.000  N
  N8       1.0000 0.69970  0.82400  0.98200  Biso   1.000  N
  N9       1.0000 0.33340  0.19680  0.91850  Biso   1.000  N
  N10      1.0000 0.66660  0.80320  0.08150  Biso   1.000  N
  N11      1.0000 0.38170  0.03460  0.96190  Biso   1.000  N
  N12      1.0000 0.61830  0.96540  0.03810  Biso   1.000  N
  N13      1.0000 0.49600  0.76340  0.95180  Biso   1.000  N
  N14      1.0000 0.50400  0.23660  0.04820  Biso   1.000  N
  N15      1.0000 0.57890  0.62020  0.89820  Biso   1.000  N
  N16      1.0000 0.42110  0.37980  0.10180  Biso   1.000  N
  N17      1.0000 0.54930  0.60240  0.99730  Biso   1.000  N
  N18      1.0000 0.45070  0.39760  0.00270  Biso   1.000  N
  N19      1.0000 0.18310  0.50390  0.67120  Biso   1.000  N
  N20      1.0000 0.81690  0.49610  0.32880  Biso   1.000  N
  N21      1.0000 0.18240  0.60080  0.65260  Biso   1.000  N
  N22      1.0000 0.81760  0.39920  0.34740  Biso   1.000  N
  N23      1.0000 0.32260  0.52200  0.53300  Biso   1.000  N
  N24      1.0000 0.67740  0.47800  0.46700  Biso   1.000  N
  N25      1.0000 0.86720  0.04290  0.71970  Biso   1.000  N
  N26      1.0000 0.13280  0.95710  0.28030  Biso   1.000  N
  N27      1.0000 0.85030  0.11550  0.83620  Biso   1.000  N
  N28      1.0000 0.14970  0.88450  0.16380  Biso   1.000  N
  N29      1.0000 0.75230  0.14950  0.82950  Biso   1.000  N
  N30      1.0000 0.24770  0.85050  0.17050  Biso   1.000  N
  N31      1.0000 0.98910  0.85660  0.53670  Biso   1.000  N
  N32      1.0000 0.01090  0.14340  0.46330  Biso   1.000  N
  N33      1.0000 0.12220  0.75110  0.43730  Biso   1.000  N
  N34      1.0000 0.87780  0.24890  0.56270  Biso   1.000  N
  N35      1.0000 0.02580  0.75460  0.43680  Biso   1.000  N
  N36      1.0000 0.97420  0.24540  0.56320  Biso   1.000  N
