data_image0
_cell_length_a       5.7266
_cell_length_b       16.474
_cell_length_c       9.9412
_cell_angle_alpha    90
_cell_angle_beta     94.294
_cell_angle_gamma    90

_symmetry_space_group_name_H-M    "P 1"
_symmetry_int_tables_number       1

loop_
  _symmetry_equiv_pos_as_xyz
  'x, y, z'

loop_
  _atom_site_label
  _atom_site_occupancy
  _atom_site_fract_x
  _atom_site_fract_y
  _atom_site_fract_z
  _atom_site_thermal_displace_type
  _atom_site_B_iso_or_equiv
  _atom_site_type_symbol
  C1       1.0000 0.18600  0.46190  0.97210  Biso   1.000  C
  C2       1.0000 0.81400  0.96190  0.52790  Biso   1.000  C
  C3       1.0000 0.81400  0.53810  0.02790  Biso   1.000  C
  C4       1.0000 0.18600  0.03810  0.47210  Biso   1.000  C
  C5       1.0000 0.19700  0.50270  0.07260  Biso   1.000  C
  C6       1.0000 0.80300  0.00270  0.42740  Biso   1.000  C
  C7       1.0000 0.80300  0.49730  0.92740  Biso   1.000  C
  C8       1.0000 0.19700  0.99730  0.57260  Biso   1.000  C
  C9       1.0000 0.98100  0.45650  0.89800  Biso   1.000  C
  C10      1.0000 0.01900  0.95650  0.60200  Biso   1.000  C
  C11      1.0000 0.01900  0.54350  0.10200  Biso   1.000  C
  C12      1.0000 0.98100  0.04350  0.39800  Biso   1.000  C
  Cu1      1.0000 0.75359  0.43270  0.48839  Biso   1.000  Cu
  Cu2      1.0000 0.24641  0.93270  0.01161  Biso   1.000  Cu
  Cu3      1.0000 0.24641  0.56730  0.51161  Biso   1.000  Cu
  Cu4      1.0000 0.75359  0.06730  0.98839  Biso   1.000  Cu
  N1       1.0000 0.66480  0.34350  0.62380  Biso   1.000  N
  N2       1.0000 0.33520  0.84350  0.87620  Biso   1.000  N
  N3       1.0000 0.33520  0.65650  0.37620  Biso   1.000  N
  N4       1.0000 0.66480  0.15650  0.12380  Biso   1.000  N
  N5       1.0000 0.42650  0.08335  0.87490  Biso   1.000  N
  N6       1.0000 0.57350  0.58335  0.62510  Biso   1.000  N
  N7       1.0000 0.57350  0.91665  0.12510  Biso   1.000  N
  N8       1.0000 0.42650  0.41665  0.37490  Biso   1.000  N
  N9       1.0000 0.24830  0.04419  0.92870  Biso   1.000  N
  N10      1.0000 0.75170  0.54419  0.57130  Biso   1.000  N
  N11      1.0000 0.75170  0.95581  0.07130  Biso   1.000  N
  N12      1.0000 0.24830  0.45581  0.42870  Biso   1.000  N
  N13      1.0000 0.06050  0.09170  0.91710  Biso   1.000  N
  N14      1.0000 0.93950  0.59170  0.58290  Biso   1.000  N
  N15      1.0000 0.93950  0.90830  0.08290  Biso   1.000  N
  N16      1.0000 0.06050  0.40830  0.41710  Biso   1.000  N
  N17      1.0000 0.11130  0.16170  0.85890  Biso   1.000  N
  N18      1.0000 0.88870  0.66170  0.64110  Biso   1.000  N
  N19      1.0000 0.88870  0.83830  0.14110  Biso   1.000  N
  N20      1.0000 0.11130  0.33830  0.35890  Biso   1.000  N
  C13      1.0000 0.48440  0.35750  0.69810  Biso   1.000  C
  C14      1.0000 0.51560  0.85750  0.80190  Biso   1.000  C
  C15      1.0000 0.51560  0.64250  0.30190  Biso   1.000  C
  C16      1.0000 0.48440  0.14250  0.19810  Biso   1.000  C
  H1       1.0000 0.43500  0.41000  0.69700  Biso   1.000  H
  H2       1.0000 0.56500  0.91000  0.80300  Biso   1.000  H
  H3       1.0000 0.56500  0.59000  0.30300  Biso   1.000  H
  H4       1.0000 0.43500  0.09000  0.19700  Biso   1.000  H
  C17      1.0000 0.37490  0.29800  0.76780  Biso   1.000  C
  C18      1.0000 0.62510  0.79800  0.73220  Biso   1.000  C
  C19      1.0000 0.62510  0.70200  0.23220  Biso   1.000  C
  C20      1.0000 0.37490  0.20200  0.26780  Biso   1.000  C
  H5       1.0000 0.25800  0.31200  0.81500  Biso   1.000  H
  H6       1.0000 0.74200  0.81200  0.68500  Biso   1.000  H
  H7       1.0000 0.74200  0.68800  0.18500  Biso   1.000  H
  H8       1.0000 0.25800  0.18800  0.31500  Biso   1.000  H
  C21      1.0000 0.45650  0.21900  0.76280  Biso   1.000  C
  C22      1.0000 0.54350  0.71900  0.73720  Biso   1.000  C
  C23      1.0000 0.54350  0.78100  0.23720  Biso   1.000  C
  C24      1.0000 0.45650  0.28100  0.26280  Biso   1.000  C
  C25      1.0000 0.64260  0.20380  0.68750  Biso   1.000  C
  C26      1.0000 0.35740  0.70380  0.81250  Biso   1.000  C
  C27      1.0000 0.35740  0.79620  0.31250  Biso   1.000  C
  C28      1.0000 0.64260  0.29620  0.18750  Biso   1.000  C
  H9       1.0000 0.69300  0.15300  0.67600  Biso   1.000  H
  H10      1.0000 0.30700  0.65300  0.82400  Biso   1.000  H
  H11      1.0000 0.30700  0.84700  0.32400  Biso   1.000  H
  H12      1.0000 0.69300  0.34700  0.17600  Biso   1.000  H
  C29      1.0000 0.74140  0.26650  0.61970  Biso   1.000  C
  C30      1.0000 0.25860  0.76650  0.88030  Biso   1.000  C
  C31      1.0000 0.25860  0.73350  0.38030  Biso   1.000  C
  C32      1.0000 0.74140  0.23350  0.11970  Biso   1.000  C
  H13      1.0000 0.86900  0.25800  0.56300  Biso   1.000  H
  H14      1.0000 0.13100  0.75800  0.93700  Biso   1.000  H
  H15      1.0000 0.13100  0.74200  0.43700  Biso   1.000  H
  H16      1.0000 0.86900  0.24200  0.06300  Biso   1.000  H
  C33      1.0000 0.33460  0.15460  0.83260  Biso   1.000  C
  C34      1.0000 0.66540  0.65460  0.66740  Biso   1.000  C
  C35      1.0000 0.66540  0.84540  0.16740  Biso   1.000  C
  C36      1.0000 0.33460  0.34540  0.33260  Biso   1.000  C
