data_image0
_cell_length_a       12.129
_cell_length_b       13.776
_cell_length_c       14.004
_cell_angle_alpha    118.696
_cell_angle_beta     96.783
_cell_angle_gamma    104.497

_symmetry_space_group_name_H-M    "P 1"
_symmetry_int_tables_number       1

loop_
  _symmetry_equiv_pos_as_xyz
  'x, y, z'

loop_
  _atom_site_label
  _atom_site_occupancy
  _atom_site_fract_x
  _atom_site_fract_y
  _atom_site_fract_z
  _atom_site_thermal_displace_type
  _atom_site_B_iso_or_equiv
  _atom_site_type_symbol
  Si1      1.0000 0.50000  0.00000  0.50000  Biso   1.000  Si
  W1       1.0000 0.55656  0.75105  0.30351  Biso   1.000  W
  W2       1.0000 0.44344  0.24895  0.69649  Biso   1.000  W
  W3       1.0000 0.27137  0.76570  0.25772  Biso   1.000  W
  W4       1.0000 0.72863  0.23430  0.74228  Biso   1.000  W
  W5       1.0000 0.50761  0.95302  0.23066  Biso   1.000  W
  W6       1.0000 0.49239  0.04698  0.76934  Biso   1.000  W
  W7       1.0000 0.27106  0.80556  0.52572  Biso   1.000  W
  W8       1.0000 0.72894  0.19444  0.47428  Biso   1.000  W
  W9       1.0000 0.78779  0.99185  0.54014  Biso   1.000  W
  W10      1.0000 0.21221  0.00815  0.45986  Biso   1.000  W
  W11      1.0000 0.56252  0.80604  0.57794  Biso   1.000  W
  W12      1.0000 0.43748  0.19396  0.42206  Biso   1.000  W
  Cu1      1.0000 0.67840  0.52110  0.07450  Biso   1.000  Cu
  Cu2      1.0000 0.32160  0.47890  0.92550  Biso   1.000  Cu
  Cu3      1.0000 0.87820  0.77140  0.28880  Biso   1.000  Cu
  Cu4      1.0000 0.12180  0.22860  0.71120  Biso   1.000  Cu
  O1       1.0000 0.58300  0.63200  0.20500  Biso   1.000  O
  O2       1.0000 0.41700  0.36800  0.79500  Biso   1.000  O
  O3       1.0000 0.59100  0.71500  0.61200  Biso   1.000  O
  O4       1.0000 0.40900  0.28500  0.38800  Biso   1.000  O
  O5       1.0000 0.56600  0.83900  0.23000  Biso   1.000  O
  O6       1.0000 0.43400  0.16100  0.77000  Biso   1.000  O
  O7       1.0000 0.35400  0.85100  0.20100  Biso   1.000  O
  O8       1.0000 0.64600  0.14900  0.79900  Biso   1.000  O
  O9       1.0000 0.16300  0.65300  0.13900  Biso   1.000  O
  O10      1.0000 0.83700  0.34700  0.86100  Biso   1.000  O
  O11      1.0000 0.65700  0.06600  0.32500  Biso   1.000  O
  O12      1.0000 0.34300  0.93400  0.67500  Biso   1.000  O
  O13      1.0000 0.38900  0.69400  0.24900  Biso   1.000  O
  O14      1.0000 0.61100  0.30600  0.75100  Biso   1.000  O
  O15      1.0000 0.92500  0.98700  0.56100  Biso   1.000  O
  O16      1.0000 0.07500  0.01300  0.43900  Biso   1.000  O
  O17      1.0000 0.16100  0.71800  0.54100  Biso   1.000  O
  O18      1.0000 0.83900  0.28200  0.45900  Biso   1.000  O
  O19      1.0000 0.20300  0.91000  0.52000  Biso   1.000  O
  O20      1.0000 0.79700  0.09000  0.48000  Biso   1.000  O
  O21      1.0000 0.19300  0.87200  0.31400  Biso   1.000  O
  O22      1.0000 0.80700  0.12800  0.68600  Biso   1.000  O
  O23      1.0000 0.71100  0.90100  0.59700  Biso   1.000  O
  O24      1.0000 0.28900  0.09900  0.40300  Biso   1.000  O
  O25      1.0000 0.24100  0.72800  0.36700  Biso   1.000  O
  O26      1.0000 0.75900  0.27200  0.63300  Biso   1.000  O
  O27      1.0000 0.43700  0.07100  0.28400  Biso   1.000  O
  O28      1.0000 0.56300  0.92900  0.71600  Biso   1.000  O
  O29      1.0000 0.57500  0.91200  0.48100  Biso   1.000  O
  O30      1.0000 0.42500  0.08800  0.51900  Biso   1.000  O
  O31      1.0000 0.36000  0.92000  0.44700  Biso   1.000  O
  O32      1.0000 0.64000  0.08000  0.55300  Biso   1.000  O
  O33      1.0000 0.71300  0.85300  0.39100  Biso   1.000  O
  O34      1.0000 0.28700  0.14700  0.60900  Biso   1.000  O
  O35      1.0000 0.53000  0.06200  0.42700  Biso   1.000  O
  O36      1.0000 0.47000  0.93800  0.57300  Biso   1.000  O
  O37      1.0000 0.54300  0.72400  0.41700  Biso   1.000  O
  O38      1.0000 0.45700  0.27600  0.58300  Biso   1.000  O
  O39      1.0000 0.52800  0.09300  0.62800  Biso   1.000  O
  O40      1.0000 0.47200  0.90700  0.37200  Biso   1.000  O
  O41      1.0000 0.51700  0.93400  0.10500  Biso   1.000  O
  O42      1.0000 0.48300  0.06600  0.89500  Biso   1.000  O
  O43      1.0000 0.39200  0.74700  0.53500  Biso   1.000  O
  O44      1.0000 0.60800  0.25300  0.46500  Biso   1.000  O
  O45      1.0000 0.92300  0.54900  0.77900  Biso   1.000  O
  O46      1.0000 0.07700  0.45100  0.22100  Biso   1.000  O
  O47      1.0000 0.85500  0.17700  0.97600  Biso   1.000  O
  O48      1.0000 0.14500  0.82300  0.02400  Biso   1.000  O
  C1       1.0000 0.61200  0.39800  0.18700  Biso   1.000  C
  C2       1.0000 0.38800  0.60200  0.81300  Biso   1.000  C
  H1       1.0000 0.56350  0.44150  0.21130  Biso   1.000  H
  H2       1.0000 0.43650  0.55850  0.78870  Biso   1.000  H
  C3       1.0000 0.61300  0.31400  0.22200  Biso   1.000  C
  C4       1.0000 0.38700  0.68600  0.77800  Biso   1.000  C
  H3       1.0000 0.58340  0.31690  0.28100  Biso   1.000  H
  H4       1.0000 0.41660  0.68310  0.71900  Biso   1.000  H
  C5       1.0000 0.65700  0.23400  0.16400  Biso   1.000  C
  C6       1.0000 0.34300  0.76600  0.83600  Biso   1.000  C
  H5       1.0000 0.64380  0.16800  0.17050  Biso   1.000  H
  H6       1.0000 0.35620  0.83200  0.82950  Biso   1.000  H
  C7       1.0000 0.72500  0.24600  0.09200  Biso   1.000  C
  C8       1.0000 0.27500  0.75400  0.90800  Biso   1.000  C
  C9       1.0000 0.72900  0.32900  0.06900  Biso   1.000  C
  C10      1.0000 0.27100  0.67100  0.93100  Biso   1.000  C
  H7       1.0000 0.76580  0.33180  0.01530  Biso   1.000  H
  H8       1.0000 0.23420  0.66820  0.98470  Biso   1.000  H
  C11      1.0000 0.77300  0.15400  0.03000  Biso   1.000  C
  C12      1.0000 0.22700  0.84600  0.97000  Biso   1.000  C
  C13      1.0000 0.89000  0.08300  0.93600  Biso   1.000  C
  C14      1.0000 0.11000  0.91700  0.06400  Biso   1.000  C
  C15      1.0000 0.01800  0.15100  0.84400  Biso   1.000  C
  C16      1.0000 0.98200  0.84900  0.15600  Biso   1.000  C
  H9       1.0000 0.99560  0.21770  0.87080  Biso   1.000  H
  H10      1.0000 0.00440  0.78230  0.12920  Biso   1.000  H
  C17      1.0000 0.96700  0.06800  0.86700  Biso   1.000  C
  C18      1.0000 0.03300  0.93200  0.13300  Biso   1.000  C
  C19      1.0000 0.00000  0.96700  0.82700  Biso   1.000  C
  C20      1.0000 0.00000  0.03300  0.17300  Biso   1.000  C
  H11      1.0000 0.96340  0.90540  0.83530  Biso   1.000  H
  H12      1.0000 0.03660  0.09460  0.16470  Biso   1.000  H
  C21      1.0000 0.09100  0.96400  0.77400  Biso   1.000  C
  C22      1.0000 0.90900  0.03600  0.22600  Biso   1.000  C
  H13      1.0000 0.12580  0.90730  0.75760  Biso   1.000  H
  H14      1.0000 0.87420  0.09270  0.24240  Biso   1.000  H
  C23      1.0000 0.12800  0.05100  0.74500  Biso   1.000  C
  C24      1.0000 0.87200  0.94900  0.25500  Biso   1.000  C
  H15      1.0000 0.17490  0.03950  0.69590  Biso   1.000  H
  H16      1.0000 0.82510  0.96050  0.30410  Biso   1.000  H
  C25      1.0000 0.16900  0.33000  0.57600  Biso   1.000  C
  C26      1.0000 0.83100  0.67000  0.42400  Biso   1.000  C
  H17      1.0000 0.20880  0.27830  0.54440  Biso   1.000  H
  H18      1.0000 0.79120  0.72170  0.45560  Biso   1.000  H
  C27      1.0000 0.16900  0.40700  0.54400  Biso   1.000  C
  C28      1.0000 0.83100  0.59300  0.45600  Biso   1.000  C
  H19      1.0000 0.20590  0.40330  0.48860  Biso   1.000  H
  H20      1.0000 0.79410  0.59670  0.51140  Biso   1.000  H
  C29      1.0000 0.11800  0.48900  0.58800  Biso   1.000  C
  C30      1.0000 0.88200  0.51100  0.41200  Biso   1.000  C
  H21      1.0000 0.12340  0.54560  0.56920  Biso   1.000  H
  H22      1.0000 0.87660  0.45440  0.43080  Biso   1.000  H
  C31      1.0000 0.05300  0.48300  0.66800  Biso   1.000  C
  C32      1.0000 0.94700  0.51700  0.33200  Biso   1.000  C
  C33      1.0000 0.05800  0.40300  0.70100  Biso   1.000  C
  C34      1.0000 0.94200  0.59700  0.29900  Biso   1.000  C
  H23      1.0000 0.02350  0.40390  0.75640  Biso   1.000  H
  H24      1.0000 0.97650  0.59610  0.24360  Biso   1.000  H
  C35      1.0000 0.99400  0.56300  0.71900  Biso   1.000  C
  C36      1.0000 0.00600  0.43700  0.28100  Biso   1.000  C
  C37      1.0000 0.87800  0.64300  0.81100  Biso   1.000  C
  C38      1.0000 0.12200  0.35700  0.18900  Biso   1.000  C
  C39      1.0000 0.77200  0.58800  0.93000  Biso   1.000  C
  C40      1.0000 0.22800  0.41200  0.07000  Biso   1.000  C
  H25      1.0000 0.80520  0.53020  0.91470  Biso   1.000  H
  H26      1.0000 0.19480  0.46980  0.08530  Biso   1.000  H
  C41      1.0000 0.80000  0.65400  0.88400  Biso   1.000  C
  C42      1.0000 0.20000  0.34600  0.11600  Biso   1.000  C
  C43      1.0000 0.74400  0.73900  0.89800  Biso   1.000  C
  C44      1.0000 0.25600  0.26100  0.10200  Biso   1.000  C
  H27      1.0000 0.75710  0.78290  0.86420  Biso   1.000  H
  H28      1.0000 0.24290  0.21710  0.13580  Biso   1.000  H
  C45      1.0000 0.66700  0.75000  0.97000  Biso   1.000  C
  C46      1.0000 0.33300  0.25000  0.03000  Biso   1.000  C
  H29      1.0000 0.62930  0.80480  0.98630  Biso   1.000  H
  H30      1.0000 0.37070  0.19520  0.01370  Biso   1.000  H
  C47      1.0000 0.65000  0.68400  0.01300  Biso   1.000  C
  C48      1.0000 0.35000  0.31600  0.98700  Biso   1.000  C
  H31      1.0000 0.59870  0.69390  0.05830  Biso   1.000  H
  H32      1.0000 0.40130  0.30610  0.94170  Biso   1.000  H
  N1       1.0000 0.67500  0.41500  0.12600  Biso   1.000  N
  N2       1.0000 0.32500  0.58500  0.87400  Biso   1.000  N
  N3       1.0000 0.75200  0.05100  0.01500  Biso   1.000  N
  N4       1.0000 0.24800  0.94900  0.98500  Biso   1.000  N
  N5       1.0000 0.82800  0.00700  0.95500  Biso   1.000  N
  N6       1.0000 0.17200  0.99300  0.04500  Biso   1.000  N
  N7       1.0000 0.10100  0.14200  0.78300  Biso   1.000  N
  N8       1.0000 0.89900  0.85800  0.21700  Biso   1.000  N
  N9       1.0000 0.11400  0.32400  0.65200  Biso   1.000  N
  N10      1.0000 0.88600  0.67600  0.34800  Biso   1.000  N
  N11      1.0000 0.99400  0.65300  0.70800  Biso   1.000  N
  N12      1.0000 0.00600  0.34700  0.29200  Biso   1.000  N
  N13      1.0000 0.91900  0.70100  0.77500  Biso   1.000  N
  N14      1.0000 0.08100  0.29900  0.22500  Biso   1.000  N
  N15      1.0000 0.70100  0.60100  0.99700  Biso   1.000  N
  N16      1.0000 0.29900  0.39900  0.00300  Biso   1.000  N
