data_image0
_cell_length_a       11.861
_cell_length_b       13.626
_cell_length_c       17.618
_cell_angle_alpha    106.194
_cell_angle_beta     97.216
_cell_angle_gamma    91.492

_symmetry_space_group_name_H-M    "P 1"
_symmetry_int_tables_number       1

loop_
  _symmetry_equiv_pos_as_xyz
  'x, y, z'

loop_
  _atom_site_label
  _atom_site_occupancy
  _atom_site_fract_x
  _atom_site_fract_y
  _atom_site_fract_z
  _atom_site_thermal_displace_type
  _atom_site_B_iso_or_equiv
  _atom_site_type_symbol
  Si1      1.0000 0.00000  0.00000  0.50000  Biso   1.000  Si
  W1       1.0000 0.19504  0.80565  0.47811  Biso   1.000  W
  W2       1.0000 0.80496  0.19435  0.52189  Biso   1.000  W
  W3       1.0000 0.19219  0.98578  0.66616  Biso   1.000  W
  W4       1.0000 0.80781  0.01422  0.33384  Biso   1.000  W
  W5       1.0000 0.29321  0.05995  0.50921  Biso   1.000  W
  W6       1.0000 0.70679  0.94005  0.49079  Biso   1.000  W
  W7       1.0000 0.10031  0.08504  0.34721  Biso   1.000  W
  W8       1.0000 0.89969  0.91496  0.65279  Biso   1.000  W
  W9       1.0000 0.89870  0.74462  0.46100  Biso   1.000  W
  W10      1.0000 0.10130  0.25538  0.53900  Biso   1.000  W
  W11      1.0000 0.01085  0.82568  0.31047  Biso   1.000  W
  W12      1.0000 0.98915  0.17432  0.68953  Biso   1.000  W
  Cu1      1.0000 0.08720  0.69120  0.88563  Biso   1.000  Cu
  Cu2      1.0000 0.91280  0.30880  0.11437  Biso   1.000  Cu
  Cu3      1.0000 0.53180  0.55440  0.61623  Biso   1.000  Cu
  Cu4      1.0000 0.46820  0.44560  0.38377  Biso   1.000  Cu
  O1       1.0000 0.01230  0.74160  0.21960  Biso   1.000  O
  O2       1.0000 0.98770  0.25840  0.78040  Biso   1.000  O
  O3       1.0000 0.92330  0.74730  0.35860  Biso   1.000  O
  O4       1.0000 0.07670  0.25270  0.64140  Biso   1.000  O
  O5       1.0000 0.13800  0.79710  0.36710  Biso   1.000  O
  O6       1.0000 0.86200  0.20290  0.63290  Biso   1.000  O
  O7       1.0000 0.27990  0.97540  0.74060  Biso   1.000  O
  O8       1.0000 0.72010  0.02460  0.25940  Biso   1.000  O
  O9       1.0000 0.23610  0.19420  0.54830  Biso   1.000  O
  O10      1.0000 0.76390  0.80580  0.45170  Biso   1.000  O
  O11      1.0000 0.28790  0.70930  0.46740  Biso   1.000  O
  O12      1.0000 0.71210  0.29070  0.53260  Biso   1.000  O
  O13      1.0000 0.09690  0.20870  0.42440  Biso   1.000  O
  O14      1.0000 0.90310  0.79130  0.57560  Biso   1.000  O
  O15      1.0000 0.43290  0.09220  0.51440  Biso   1.000  O
  O16      1.0000 0.56710  0.90780  0.48560  Biso   1.000  O
  O17      1.0000 0.05880  0.91750  0.68620  Biso   1.000  O
  O18      1.0000 0.94120  0.08250  0.31380  Biso   1.000  O
  O19      1.0000 0.14730  0.12220  0.27330  Biso   1.000  O
  O20      1.0000 0.85270  0.87780  0.72670  Biso   1.000  O
  O21      1.0000 0.23940  0.06540  0.40610  Biso   1.000  O
  O22      1.0000 0.76060  0.93460  0.59390  Biso   1.000  O
  O23      1.0000 0.05640  0.73040  0.48330  Biso   1.000  O
  O24      1.0000 0.94360  0.26960  0.51670  Biso   1.000  O
  O25      1.0000 0.09400  0.93510  0.29320  Biso   1.000  O
  O26      1.0000 0.90600  0.06490  0.70680  Biso   1.000  O
  O27      1.0000 0.20520  0.85820  0.58940  Biso   1.000  O
  O28      1.0000 0.79480  0.14180  0.41060  Biso   1.000  O
  O29      1.0000 0.85880  0.62040  0.44190  Biso   1.000  O
  O30      1.0000 0.14120  0.37960  0.55810  Biso   1.000  O
  O31      1.0000 0.12600  0.10940  0.70430  Biso   1.000  O
  O32      1.0000 0.87400  0.89060  0.29570  Biso   1.000  O
  O33      1.0000 0.28390  0.05280  0.61340  Biso   1.000  O
  O34      1.0000 0.71610  0.94720  0.38660  Biso   1.000  O
  O35      1.0000 0.28280  0.92200  0.47610  Biso   1.000  O
  O36      1.0000 0.71720  0.07800  0.52390  Biso   1.000  O
  O37      1.0000 0.99500  0.10390  0.54030  Biso   1.000  O
  O38      1.0000 0.00500  0.89610  0.45970  Biso   1.000  O
  O39      1.0000 0.91600  0.91270  0.51220  Biso   1.000  O
  O40      1.0000 0.08400  0.08730  0.48780  Biso   1.000  O
  O41      1.0000 0.99200  0.98000  0.40120  Biso   1.000  O
  O42      1.0000 0.00800  0.02000  0.59880  Biso   1.000  O
  O43      1.0000 0.13300  0.96460  0.52230  Biso   1.000  O
  O44      1.0000 0.86700  0.03540  0.47770  Biso   1.000  O
  O45      1.0000 0.57490  0.09060  0.70890  Biso   1.000  O
  O46      1.0000 0.42510  0.90940  0.29110  Biso   1.000  O
  O47      1.0000 0.19360  0.53670  0.50690  Biso   1.000  O
  O48      1.0000 0.80640  0.46330  0.49310  Biso   1.000  O
  O49      1.0000 0.14890  0.22340  0.97100  Biso   1.000  O
  O50      1.0000 0.85110  0.77660  0.02900  Biso   1.000  O
  O51      1.0000 0.50300  0.21770  0.97600  Biso   1.000  O
  O52      1.0000 0.49700  0.78230  0.02400  Biso   1.000  O
  O53      1.0000 0.45600  0.40300  0.91380  Biso   1.000  O
  O54      1.0000 0.54400  0.59700  0.08620  Biso   1.000  O
  C1       1.0000 0.05450  0.90510  0.89100  Biso   1.000  C
  C2       1.0000 0.94550  0.09490  0.10900  Biso   1.000  C
  H1       1.0000 0.00590  0.87930  0.84330  Biso   1.000  H
  H2       1.0000 0.99410  0.12070  0.15670  Biso   1.000  H
  C3       1.0000 0.08740  0.00930  0.91500  Biso   1.000  C
  C4       1.0000 0.91260  0.99070  0.08500  Biso   1.000  C
  H3       1.0000 0.06490  0.05040  0.88230  Biso   1.000  H
  H4       1.0000 0.93510  0.94960  0.11770  Biso   1.000  H
  C5       1.0000 0.15320  0.05010  0.98690  Biso   1.000  C
  C6       1.0000 0.84680  0.94990  0.01310  Biso   1.000  C
  C7       1.0000 0.18200  0.98590  0.02970  Biso   1.000  C
  C8       1.0000 0.81800  0.01410  0.97030  Biso   1.000  C
  H5       1.0000 0.22560  0.01130  0.07970  Biso   1.000  H
  H6       1.0000 0.77440  0.98870  0.92030  Biso   1.000  H
  C9       1.0000 0.15000  0.88240  0.00190  Biso   1.000  C
  C10      1.0000 0.85000  0.11760  0.99810  Biso   1.000  C
  H7       1.0000 0.17250  0.84030  0.03360  Biso   1.000  H
  H8       1.0000 0.82750  0.15970  0.96640  Biso   1.000  H
  C11      1.0000 0.18700  0.15710  0.00970  Biso   1.000  C
  C12      1.0000 0.81300  0.84290  0.99030  Biso   1.000  C
  C13      1.0000 0.20110  0.31260  0.01120  Biso   1.000  C
  C14      1.0000 0.79890  0.68740  0.98880  Biso   1.000  C
  C15      1.0000 0.16970  0.40710  0.98940  Biso   1.000  C
  C16      1.0000 0.83030  0.59290  0.01060  Biso   1.000  C
  C17      1.0000 0.07500  0.40410  0.93600  Biso   1.000  C
  C18      1.0000 0.92500  0.59590  0.06400  Biso   1.000  C
  H9       1.0000 0.02340  0.34730  0.91750  Biso   1.000  H
  H10      1.0000 0.97660  0.65270  0.08250  Biso   1.000  H
  C19      1.0000 0.06160  0.48590  0.91260  Biso   1.000  C
  C20      1.0000 0.93840  0.51410  0.08740  Biso   1.000  C
  H11      1.0000 0.00310  0.47930  0.87080  Biso   1.000  H
  H12      1.0000 0.99690  0.52070  0.12920  Biso   1.000  H
  C21      1.0000 0.20700  0.58110  0.99280  Biso   1.000  C
  C22      1.0000 0.79300  0.41890  0.00720  Biso   1.000  C
  H13      1.0000 0.25330  0.64150  0.01260  Biso   1.000  H
  H14      1.0000 0.74670  0.35850  0.98740  Biso   1.000  H
  C23      1.0000 0.23800  0.50180  0.02220  Biso   1.000  C
  C24      1.0000 0.76200  0.49820  0.97780  Biso   1.000  C
  H15      1.0000 0.29960  0.50860  0.06180  Biso   1.000  H
  H16      1.0000 0.70040  0.49140  0.93820  Biso   1.000  H
  C25      1.0000 0.02400  0.47390  0.26670  Biso   1.000  C
  C26      1.0000 0.97600  0.52610  0.73330  Biso   1.000  C
  H17      1.0000 0.96620  0.51200  0.25180  Biso   1.000  H
  H18      1.0000 0.03380  0.48800  0.74820  Biso   1.000  H
  C27      1.0000 0.08650  0.50900  0.34210  Biso   1.000  C
  C28      1.0000 0.91350  0.49100  0.65790  Biso   1.000  C
  H19      1.0000 0.07210  0.57040  0.37780  Biso   1.000  H
  H20      1.0000 0.92790  0.42960  0.62220  Biso   1.000  H
  C29      1.0000 0.16920  0.45010  0.36190  Biso   1.000  C
  C30      1.0000 0.83080  0.54990  0.63810  Biso   1.000  C
  C31      1.0000 0.19510  0.35810  0.31020  Biso   1.000  C
  C32      1.0000 0.80490  0.64190  0.68980  Biso   1.000  C
  H21      1.0000 0.25380  0.31980  0.32410  Biso   1.000  H
  H22      1.0000 0.74620  0.68020  0.67590  Biso   1.000  H
  C33      1.0000 0.12700  0.32800  0.23690  Biso   1.000  C
  C34      1.0000 0.87300  0.67200  0.76310  Biso   1.000  C
  H23      1.0000 0.13830  0.26510  0.20170  Biso   1.000  H
  H24      1.0000 0.86170  0.73490  0.79830  Biso   1.000  H
  C35      1.0000 0.23800  0.48660  0.44300  Biso   1.000  C
  C36      1.0000 0.76200  0.51340  0.55700  Biso   1.000  C
  C37      1.0000 0.28010  0.55030  0.56530  Biso   1.000  C
  C38      1.0000 0.71990  0.44970  0.43470  Biso   1.000  C
  C39      1.0000 0.16300  0.72300  0.73850  Biso   1.000  C
  C40      1.0000 0.83700  0.27700  0.26150  Biso   1.000  C
  H25      1.0000 0.12520  0.78320  0.75170  Biso   1.000  H
  H26      1.0000 0.87480  0.21680  0.24830  Biso   1.000  H
  C41      1.0000 0.17700  0.68570  0.66280  Biso   1.000  C
  C42      1.0000 0.82300  0.31430  0.33720  Biso   1.000  C
  H27      1.0000 0.13900  0.70960  0.62260  Biso   1.000  H
  H28      1.0000 0.86100  0.29040  0.37740  Biso   1.000  H
  C43      1.0000 0.25700  0.60230  0.64650  Biso   1.000  C
  C44      1.0000 0.74300  0.39770  0.35350  Biso   1.000  C
  C45      1.0000 0.30100  0.56220  0.70740  Biso   1.000  C
  C46      1.0000 0.69900  0.43780  0.29260  Biso   1.000  C
  H29      1.0000 0.35050  0.50950  0.69840  Biso   1.000  H
  H30      1.0000 0.64950  0.49050  0.30160  Biso   1.000  H
  C47      1.0000 0.26500  0.60900  0.79170  Biso   1.000  C
  C48      1.0000 0.73500  0.39100  0.20830  Biso   1.000  C
  H31      1.0000 0.29180  0.58390  0.83410  Biso   1.000  H
  H32      1.0000 0.70820  0.41610  0.16590  Biso   1.000  H
  C49      1.0000 0.50480  0.76550  0.62440  Biso   1.000  C
  C50      1.0000 0.49520  0.23450  0.37560  Biso   1.000  C
  H33      1.0000 0.47650  0.73520  0.57100  Biso   1.000  H
  H34      1.0000 0.52350  0.26480  0.42900  Biso   1.000  H
  C51      1.0000 0.52440  0.87040  0.64940  Biso   1.000  C
  C52      1.0000 0.47560  0.12960  0.35060  Biso   1.000  C
  H35      1.0000 0.50840  0.90860  0.61350  Biso   1.000  H
  H36      1.0000 0.49160  0.09140  0.38650  Biso   1.000  H
  C53      1.0000 0.56750  0.91860  0.72750  Biso   1.000  C
  C54      1.0000 0.43250  0.08140  0.27250  Biso   1.000  C
  C55      1.0000 0.58580  0.85370  0.77690  Biso   1.000  C
  C56      1.0000 0.41420  0.14630  0.22310  Biso   1.000  C
  H37      1.0000 0.61510  0.88060  0.83050  Biso   1.000  H
  H38      1.0000 0.38490  0.11940  0.16950  Biso   1.000  H
  C57      1.0000 0.56020  0.75090  0.74530  Biso   1.000  C
  C58      1.0000 0.43980  0.24910  0.25470  Biso   1.000  C
  H39      1.0000 0.56990  0.71030  0.77990  Biso   1.000  H
  H40      1.0000 0.43010  0.28970  0.22010  Biso   1.000  H
  C59      1.0000 0.59900  0.02870  0.75530  Biso   1.000  C
  C60      1.0000 0.40100  0.97130  0.24470  Biso   1.000  C
  C61      1.0000 0.50450  0.35380  0.63720  Biso   1.000  C
  C62      1.0000 0.49550  0.64620  0.36280  Biso   1.000  C
  H41      1.0000 0.44510  0.34740  0.59600  Biso   1.000  H
  H42      1.0000 0.55490  0.65260  0.40400  Biso   1.000  H
  C63      1.0000 0.53500  0.27000  0.66080  Biso   1.000  C
  C64      1.0000 0.46500  0.73000  0.33920  Biso   1.000  C
  H43      1.0000 0.49970  0.20670  0.63030  Biso   1.000  H
  H44      1.0000 0.50030  0.79330  0.36970  Biso   1.000  H
  C65      1.0000 0.61100  0.26950  0.72480  Biso   1.000  C
  C66      1.0000 0.38900  0.73050  0.27520  Biso   1.000  C
  C67      1.0000 0.66400  0.36770  0.76460  Biso   1.000  C
  C68      1.0000 0.33600  0.63230  0.23540  Biso   1.000  C
  H45      1.0000 0.71440  0.37880  0.81130  Biso   1.000  H
  H46      1.0000 0.28560  0.62120  0.18870  Biso   1.000  H
  C69      1.0000 0.63700  0.44700  0.73210  Biso   1.000  C
  C70      1.0000 0.36300  0.55300  0.26790  Biso   1.000  C
  H47      1.0000 0.67940  0.50890  0.75510  Biso   1.000  H
  H48      1.0000 0.32060  0.49110  0.24490  Biso   1.000  H
  C71      1.0000 0.62500  0.18340  0.75410  Biso   1.000  C
  C72      1.0000 0.37500  0.81660  0.24590  Biso   1.000  C
  N1       1.0000 0.66200  0.07930  0.82490  Biso   1.000  N
  N2       1.0000 0.33800  0.92070  0.17510  Biso   1.000  N
  N3       1.0000 0.67920  0.17940  0.82410  Biso   1.000  N
  N4       1.0000 0.32080  0.82060  0.17590  Biso   1.000  N
  N5       1.0000 0.55800  0.44350  0.67190  Biso   1.000  N
  N6       1.0000 0.44200  0.55650  0.32810  Biso   1.000  N
  N7       1.0000 0.52350  0.70530  0.67080  Biso   1.000  N
  N8       1.0000 0.47650  0.29470  0.32920  Biso   1.000  N
  N9       1.0000 0.19900  0.68090  0.80180  Biso   1.000  N
  N10      1.0000 0.80100  0.31910  0.19820  Biso   1.000  N
  N11      1.0000 0.37270  0.51590  0.54380  Biso   1.000  N
  N12      1.0000 0.62730  0.48410  0.45620  Biso   1.000  N
  N13      1.0000 0.35240  0.47090  0.46090  Biso   1.000  N
  N14      1.0000 0.64760  0.52910  0.53910  Biso   1.000  N
  N15      1.0000 0.04700  0.38460  0.21380  Biso   1.000  N
  N16      1.0000 0.95300  0.61540  0.78620  Biso   1.000  N
  N17      1.0000 0.11960  0.58080  0.93940  Biso   1.000  N
  N18      1.0000 0.88040  0.41920  0.06060  Biso   1.000  N
  N19      1.0000 0.27720  0.30320  0.07060  Biso   1.000  N
  N20      1.0000 0.72280  0.69680  0.92940  Biso   1.000  N
  N21      1.0000 0.26670  0.20330  0.07330  Biso   1.000  N
  N22      1.0000 0.73330  0.79670  0.92670  Biso   1.000  N
  N23      1.0000 0.08780  0.84130  0.93170  Biso   1.000  N
  N24      1.0000 0.91220  0.15870  0.06830  Biso   1.000  N
  O55      1.0000 0.45500  0.11900  0.94320  Biso   1.000  O
  O56      1.0000 0.54500  0.88100  0.05680  Biso   1.000  O
