data_image0
_cell_length_a       5.6098
_cell_length_b       13.2503
_cell_length_c       14.259
_cell_angle_alpha    90
_cell_angle_beta     91.884
_cell_angle_gamma    90

_symmetry_space_group_name_H-M    "P 1"
_symmetry_int_tables_number       1

loop_
  _symmetry_equiv_pos_as_xyz
  'x, y, z'

loop_
  _atom_site_label
  _atom_site_occupancy
  _atom_site_fract_x
  _atom_site_fract_y
  _atom_site_fract_z
  _atom_site_thermal_displace_type
  _atom_site_B_iso_or_equiv
  _atom_site_type_symbol
  Cu1      1.0000 0.51118  0.15402  0.35531  Biso   1.000  Cu
  Cu2      1.0000 0.48882  0.65402  0.14469  Biso   1.000  Cu
  Cu3      1.0000 0.48882  0.84598  0.64469  Biso   1.000  Cu
  Cu4      1.0000 0.51118  0.34598  0.85531  Biso   1.000  Cu
  S1       1.0000 0.75051  0.04400  0.26406  Biso   1.000  S
  S2       1.0000 0.24949  0.54400  0.23594  Biso   1.000  S
  S3       1.0000 0.24949  0.95600  0.73594  Biso   1.000  S
  S4       1.0000 0.75051  0.45600  0.76406  Biso   1.000  S
  N1       1.0000 0.19550  0.12418  0.31980  Biso   1.000  N
  N2       1.0000 0.80450  0.62418  0.18020  Biso   1.000  N
  N3       1.0000 0.80450  0.87582  0.68020  Biso   1.000  N
  N4       1.0000 0.19550  0.37582  0.81980  Biso   1.000  N
  N5       1.0000 0.74320  0.23167  0.42993  Biso   1.000  N
  N6       1.0000 0.25680  0.73167  0.07007  Biso   1.000  N
  N7       1.0000 0.25680  0.76833  0.57007  Biso   1.000  N
  N8       1.0000 0.74320  0.26833  0.92993  Biso   1.000  N
  C1       1.0000 0.01200  0.09184  0.29627  Biso   1.000  C
  C2       1.0000 0.98800  0.59184  0.20373  Biso   1.000  C
  C3       1.0000 0.98800  0.90816  0.70373  Biso   1.000  C
  C4       1.0000 0.01200  0.40816  0.79627  Biso   1.000  C
  C5       1.0000 0.84260  0.19356  0.51010  Biso   1.000  C
  C6       1.0000 0.15740  0.69356  0.98990  Biso   1.000  C
  C7       1.0000 0.15740  0.80644  0.48990  Biso   1.000  C
  C8       1.0000 0.84260  0.30644  0.01010  Biso   1.000  C
  C9       1.0000 0.03170  0.24111  0.55645  Biso   1.000  C
  C10      1.0000 0.96830  0.74111  0.94355  Biso   1.000  C
  C11      1.0000 0.96830  0.75889  0.44355  Biso   1.000  C
  C12      1.0000 0.03170  0.25889  0.05645  Biso   1.000  C
  H1       1.0000 0.09740  0.21310  0.61290  Biso   1.000  H
  H2       1.0000 0.90260  0.71310  0.88710  Biso   1.000  H
  H3       1.0000 0.90260  0.78690  0.38710  Biso   1.000  H
  H4       1.0000 0.09740  0.28690  0.11290  Biso   1.000  H
  C13      1.0000 0.12560  0.32913  0.52116  Biso   1.000  C
  C14      1.0000 0.87440  0.82913  0.97884  Biso   1.000  C
  C15      1.0000 0.87440  0.67087  0.47884  Biso   1.000  C
  C16      1.0000 0.12560  0.17087  0.02116  Biso   1.000  C
  C17      1.0000 0.02360  0.36733  0.43903  Biso   1.000  C
  C18      1.0000 0.97640  0.86733  0.06097  Biso   1.000  C
  C19      1.0000 0.97640  0.63267  0.56097  Biso   1.000  C
  C20      1.0000 0.02360  0.13267  0.93903  Biso   1.000  C
  H5       1.0000 0.08330  0.42790  0.41300  Biso   1.000  H
  H6       1.0000 0.91670  0.92790  0.08700  Biso   1.000  H
  H7       1.0000 0.91670  0.57210  0.58700  Biso   1.000  H
  H8       1.0000 0.08330  0.07210  0.91300  Biso   1.000  H
  C21      1.0000 0.83400  0.31737  0.39451  Biso   1.000  C
  C22      1.0000 0.16600  0.81737  0.10549  Biso   1.000  C
  C23      1.0000 0.16600  0.68263  0.60549  Biso   1.000  C
  C24      1.0000 0.83400  0.18263  0.89451  Biso   1.000  C
  C25      1.0000 0.73740  0.09680  0.54502  Biso   1.000  C
  C26      1.0000 0.26260  0.59680  0.95498  Biso   1.000  C
  C27      1.0000 0.26260  0.90320  0.45498  Biso   1.000  C
  C28      1.0000 0.73740  0.40320  0.04502  Biso   1.000  C
  H9       1.0000 0.56960  0.10770  0.55930  Biso   1.000  H
  H10      1.0000 0.43040  0.60770  0.94070  Biso   1.000  H
  H11      1.0000 0.43040  0.89230  0.44070  Biso   1.000  H
  H12      1.0000 0.56960  0.39230  0.05930  Biso   1.000  H
  H13      1.0000 0.82550  0.07500  0.60190  Biso   1.000  H
  H14      1.0000 0.17450  0.57500  0.89810  Biso   1.000  H
  H15      1.0000 0.17450  0.92500  0.39810  Biso   1.000  H
  H16      1.0000 0.82550  0.42500  0.10190  Biso   1.000  H
  H17      1.0000 0.74850  0.04470  0.49660  Biso   1.000  H
  H18      1.0000 0.25150  0.54470  0.00340  Biso   1.000  H
  H19      1.0000 0.25150  0.95530  0.50340  Biso   1.000  H
  H20      1.0000 0.74850  0.45530  0.99660  Biso   1.000  H
  C29      1.0000 0.33570  0.38120  0.56949  Biso   1.000  C
  C30      1.0000 0.66430  0.88120  0.93051  Biso   1.000  C
  C31      1.0000 0.66430  0.61880  0.43051  Biso   1.000  C
  C32      1.0000 0.33570  0.11880  0.06949  Biso   1.000  C
  H21      1.0000 0.34400  0.36190  0.63590  Biso   1.000  H
  H22      1.0000 0.65600  0.86190  0.86410  Biso   1.000  H
  H23      1.0000 0.65600  0.63810  0.36410  Biso   1.000  H
  H24      1.0000 0.34400  0.13810  0.13590  Biso   1.000  H
  H25      1.0000 0.31600  0.45450  0.56430  Biso   1.000  H
  H26      1.0000 0.68400  0.95450  0.93570  Biso   1.000  H
  H27      1.0000 0.68400  0.54550  0.43570  Biso   1.000  H
  H28      1.0000 0.31600  0.04550  0.06430  Biso   1.000  H
  H29      1.0000 0.48310  0.36090  0.53970  Biso   1.000  H
  H30      1.0000 0.51690  0.86090  0.96030  Biso   1.000  H
  H31      1.0000 0.51690  0.63910  0.46030  Biso   1.000  H
  H32      1.0000 0.48310  0.13910  0.03970  Biso   1.000  H
  C33      1.0000 0.72020  0.35406  0.30415  Biso   1.000  C
  C34      1.0000 0.27980  0.85406  0.19585  Biso   1.000  C
  C35      1.0000 0.27980  0.64594  0.69585  Biso   1.000  C
  C36      1.0000 0.72020  0.14594  0.80415  Biso   1.000  C
  H33      1.0000 0.74450  0.30410  0.25470  Biso   1.000  H
  H34      1.0000 0.25550  0.80410  0.24530  Biso   1.000  H
  H35      1.0000 0.25550  0.69590  0.74530  Biso   1.000  H
  H36      1.0000 0.74450  0.19590  0.75470  Biso   1.000  H
  H37      1.0000 0.79280  0.41830  0.28650  Biso   1.000  H
  H38      1.0000 0.20720  0.91830  0.21350  Biso   1.000  H
  H39      1.0000 0.20720  0.58170  0.71350  Biso   1.000  H
  H40      1.0000 0.79280  0.08170  0.78650  Biso   1.000  H
  H41      1.0000 0.54890  0.36380  0.31220  Biso   1.000  H
  H42      1.0000 0.45110  0.86380  0.18780  Biso   1.000  H
  H43      1.0000 0.45110  0.63620  0.68780  Biso   1.000  H
  H44      1.0000 0.54890  0.13620  0.81220  Biso   1.000  H
