data_image0
_cell_length_a       5.8113
_cell_length_b       15.4887
_cell_length_c       9.7322
_cell_angle_alpha    90
_cell_angle_beta     91.121
_cell_angle_gamma    90

_symmetry_space_group_name_H-M    "P 1"
_symmetry_int_tables_number       1

loop_
  _symmetry_equiv_pos_as_xyz
  'x, y, z'

loop_
  _atom_site_label
  _atom_site_occupancy
  _atom_site_fract_x
  _atom_site_fract_y
  _atom_site_fract_z
  _atom_site_thermal_displace_type
  _atom_site_B_iso_or_equiv
  _atom_site_type_symbol
  Cu1      1.0000 0.09823  0.50383  0.13067  Biso   1.000  Cu
  Cu2      1.0000 0.90177  0.00383  0.36933  Biso   1.000  Cu
  Cu3      1.0000 0.90177  0.49617  0.86933  Biso   1.000  Cu
  Cu4      1.0000 0.09823  0.99617  0.63067  Biso   1.000  Cu
  S1       1.0000 0.15260  0.60675  0.93793  Biso   1.000  S
  S2       1.0000 0.84740  0.10675  0.56207  Biso   1.000  S
  S3       1.0000 0.84740  0.39325  0.06207  Biso   1.000  S
  S4       1.0000 0.15260  0.89325  0.43793  Biso   1.000  S
  N1       1.0000 0.59670  0.55460  0.86110  Biso   1.000  N
  N2       1.0000 0.40330  0.05460  0.63890  Biso   1.000  N
  N3       1.0000 0.40330  0.44540  0.13890  Biso   1.000  N
  N4       1.0000 0.59670  0.94540  0.36110  Biso   1.000  N
  N5       1.0000 0.05320  0.57230  0.30550  Biso   1.000  N
  N6       1.0000 0.94680  0.07230  0.19450  Biso   1.000  N
  N7       1.0000 0.94680  0.42770  0.69450  Biso   1.000  N
  N8       1.0000 0.05320  0.92770  0.80550  Biso   1.000  N
  C1       1.0000 0.41480  0.57520  0.89240  Biso   1.000  C
  C2       1.0000 0.58520  0.07520  0.60760  Biso   1.000  C
  C3       1.0000 0.58520  0.42480  0.10760  Biso   1.000  C
  C4       1.0000 0.41480  0.92480  0.39240  Biso   1.000  C
  C5       1.0000 0.20710  0.55870  0.41010  Biso   1.000  C
  C6       1.0000 0.79290  0.05870  0.08990  Biso   1.000  C
  C7       1.0000 0.79290  0.44130  0.58990  Biso   1.000  C
  C8       1.0000 0.20710  0.94130  0.91010  Biso   1.000  C
  H1       1.0000 0.32470  0.51750  0.39470  Biso   1.000  H
  H2       1.0000 0.67530  0.01750  0.10530  Biso   1.000  H
  H3       1.0000 0.67530  0.48250  0.60530  Biso   1.000  H
  H4       1.0000 0.32470  0.98250  0.89470  Biso   1.000  H
  C9       1.0000 0.20900  0.59850  0.53480  Biso   1.000  C
  C10      1.0000 0.79100  0.09850  0.96520  Biso   1.000  C
  C11      1.0000 0.79100  0.40150  0.46520  Biso   1.000  C
  C12      1.0000 0.20900  0.90150  0.03480  Biso   1.000  C
  H5       1.0000 0.32300  0.58620  0.60330  Biso   1.000  H
  H6       1.0000 0.67700  0.08620  0.89670  Biso   1.000  H
  H7       1.0000 0.67700  0.41380  0.39670  Biso   1.000  H
  H8       1.0000 0.32300  0.91380  0.10330  Biso   1.000  H
  C13      1.0000 0.03480  0.65810  0.55630  Biso   1.000  C
  C14      1.0000 0.96520  0.15810  0.94370  Biso   1.000  C
  C15      1.0000 0.96520  0.34190  0.44370  Biso   1.000  C
  C16      1.0000 0.03480  0.84190  0.05630  Biso   1.000  C
  H9       1.0000 0.02520  0.68740  0.64180  Biso   1.000  H
  H10      1.0000 0.97480  0.18740  0.85820  Biso   1.000  H
  H11      1.0000 0.97480  0.31260  0.35820  Biso   1.000  H
  H12      1.0000 0.02520  0.81260  0.14180  Biso   1.000  H
  C17      1.0000 0.87380  0.67470  0.45110  Biso   1.000  C
  C18      1.0000 0.12620  0.17470  0.04890  Biso   1.000  C
  C19      1.0000 0.12620  0.32530  0.54890  Biso   1.000  C
  C20      1.0000 0.87380  0.82530  0.95110  Biso   1.000  C
  H13      1.0000 0.75480  0.71590  0.46350  Biso   1.000  H
  H14      1.0000 0.24520  0.21590  0.03650  Biso   1.000  H
  H15      1.0000 0.24520  0.28410  0.53650  Biso   1.000  H
  H16      1.0000 0.75480  0.78410  0.96350  Biso   1.000  H
  C21      1.0000 0.89080  0.63050  0.32990  Biso   1.000  C
  C22      1.0000 0.10920  0.13050  0.17010  Biso   1.000  C
  C23      1.0000 0.10920  0.36950  0.67010  Biso   1.000  C
  C24      1.0000 0.89080  0.86950  0.82990  Biso   1.000  C
  C25      1.0000 0.71850  0.64460  0.20890  Biso   1.000  C
  C26      1.0000 0.28150  0.14460  0.29110  Biso   1.000  C
  C27      1.0000 0.28150  0.35540  0.79110  Biso   1.000  C
  C28      1.0000 0.71850  0.85540  0.70890  Biso   1.000  C
  H17      1.0000 0.80590  0.65700  0.12490  Biso   1.000  H
  H18      1.0000 0.19410  0.15700  0.37510  Biso   1.000  H
  H19      1.0000 0.19410  0.34300  0.87510  Biso   1.000  H
  H20      1.0000 0.80590  0.84300  0.62490  Biso   1.000  H
  H21      1.0000 0.63150  0.59040  0.19290  Biso   1.000  H
  H22      1.0000 0.36850  0.09040  0.30710  Biso   1.000  H
  H23      1.0000 0.36850  0.40960  0.80710  Biso   1.000  H
  H24      1.0000 0.63150  0.90960  0.69290  Biso   1.000  H
  C29      1.0000 0.54850  0.71740  0.23150  Biso   1.000  C
  C30      1.0000 0.45150  0.21740  0.26850  Biso   1.000  C
  C31      1.0000 0.45150  0.28260  0.76850  Biso   1.000  C
  C32      1.0000 0.54850  0.78260  0.73150  Biso   1.000  C
  H25      1.0000 0.45500  0.70430  0.31160  Biso   1.000  H
  H26      1.0000 0.54500  0.20430  0.18840  Biso   1.000  H
  H27      1.0000 0.54500  0.29570  0.68840  Biso   1.000  H
  H28      1.0000 0.45500  0.79570  0.81160  Biso   1.000  H
  H29      1.0000 0.44800  0.72360  0.15000  Biso   1.000  H
  H30      1.0000 0.55200  0.22360  0.35000  Biso   1.000  H
  H31      1.0000 0.55200  0.27640  0.85000  Biso   1.000  H
  H32      1.0000 0.44800  0.77640  0.65000  Biso   1.000  H
  H33      1.0000 0.63260  0.77140  0.24750  Biso   1.000  H
  H34      1.0000 0.36740  0.27140  0.25250  Biso   1.000  H
  H35      1.0000 0.36740  0.22860  0.75250  Biso   1.000  H
  H36      1.0000 0.63260  0.72860  0.74750  Biso   1.000  H
