data_image0
_cell_length_a       3.7814
_cell_length_b       24.2829
_cell_length_c       8.3855
_cell_angle_alpha    90
_cell_angle_beta     91.005
_cell_angle_gamma    90

_symmetry_space_group_name_H-M    "P 1"
_symmetry_int_tables_number       1

loop_
  _symmetry_equiv_pos_as_xyz
  'x, y, z'

loop_
  _atom_site_label
  _atom_site_occupancy
  _atom_site_fract_x
  _atom_site_fract_y
  _atom_site_fract_z
  _atom_site_thermal_displace_type
  _atom_site_B_iso_or_equiv
  _atom_site_type_symbol
  Cu1      1.0000 0.05602  0.18556  0.05034  Biso   1.000  Cu
  Cu2      1.0000 0.44398  0.68556  0.44966  Biso   1.000  Cu
  Cu3      1.0000 0.94398  0.81444  0.94966  Biso   1.000  Cu
  Cu4      1.0000 0.55602  0.31444  0.55034  Biso   1.000  Cu
  Cl1      1.0000 0.65430  0.98163  0.77168  Biso   1.000  Cl
  Cl2      1.0000 0.84570  0.48163  0.72832  Biso   1.000  Cl
  Cl3      1.0000 0.34570  0.01837  0.22832  Biso   1.000  Cl
  Cl4      1.0000 0.15430  0.51837  0.27168  Biso   1.000  Cl
  S1       1.0000 0.55789  0.16215  0.20085  Biso   1.000  S
  S2       1.0000 0.94211  0.66215  0.29915  Biso   1.000  S
  S3       1.0000 0.44211  0.83785  0.79915  Biso   1.000  S
  S4       1.0000 0.05789  0.33785  0.70085  Biso   1.000  S
  N1       1.0000 0.55540  0.24136  0.44720  Biso   1.000  N
  N2       1.0000 0.94460  0.74136  0.05280  Biso   1.000  N
  N3       1.0000 0.44460  0.75864  0.55280  Biso   1.000  N
  N4       1.0000 0.05540  0.25864  0.94720  Biso   1.000  N
  N5       1.0000 0.01060  0.13231  0.85920  Biso   1.000  N
  N6       1.0000 0.48940  0.63231  0.64080  Biso   1.000  N
  N7       1.0000 0.98940  0.86769  0.14080  Biso   1.000  N
  N8       1.0000 0.51060  0.36769  0.35920  Biso   1.000  N
  C1       1.0000 0.55690  0.20947  0.34540  Biso   1.000  C
  C2       1.0000 0.94310  0.70947  0.15460  Biso   1.000  C
  C3       1.0000 0.44310  0.79053  0.65460  Biso   1.000  C
  C4       1.0000 0.05690  0.29053  0.84540  Biso   1.000  C
  C5       1.0000 0.88100  0.08146  0.87430  Biso   1.000  C
  C6       1.0000 0.61900  0.58146  0.62570  Biso   1.000  C
  C7       1.0000 0.11900  0.91854  0.12570  Biso   1.000  C
  C8       1.0000 0.38100  0.41854  0.37430  Biso   1.000  C
  H1       1.0000 0.83190  0.06780  0.97770  Biso   1.000  H
  H2       1.0000 0.66810  0.56780  0.52230  Biso   1.000  H
  H3       1.0000 0.16810  0.93220  0.02230  Biso   1.000  H
  H4       1.0000 0.33190  0.43220  0.47770  Biso   1.000  H
  C9       1.0000 0.81610  0.04808  0.74340  Biso   1.000  C
  C10      1.0000 0.68390  0.54808  0.75660  Biso   1.000  C
  C11      1.0000 0.18390  0.95192  0.25660  Biso   1.000  C
  C12      1.0000 0.31610  0.45192  0.24340  Biso   1.000  C
  C13      1.0000 0.88360  0.06658  0.59060  Biso   1.000  C
  C14      1.0000 0.61640  0.56658  0.90940  Biso   1.000  C
  C15      1.0000 0.11640  0.93342  0.40940  Biso   1.000  C
  C16      1.0000 0.38360  0.43342  0.09060  Biso   1.000  C
  H5       1.0000 0.83530  0.04430  0.49970  Biso   1.000  H
  H6       1.0000 0.66470  0.54430  0.00030  Biso   1.000  H
  H7       1.0000 0.16470  0.95570  0.50030  Biso   1.000  H
  H8       1.0000 0.33530  0.45570  0.99970  Biso   1.000  H
  C17      1.0000 0.02430  0.11893  0.57600  Biso   1.000  C
  C18      1.0000 0.47570  0.61893  0.92400  Biso   1.000  C
  C19      1.0000 0.97570  0.88107  0.42400  Biso   1.000  C
  C20      1.0000 0.52430  0.38107  0.07600  Biso   1.000  C
  H9       1.0000 0.08000  0.13310  0.47380  Biso   1.000  H
  H10      1.0000 0.42000  0.63310  0.02620  Biso   1.000  H
  H11      1.0000 0.92000  0.86690  0.52620  Biso   1.000  H
  H12      1.0000 0.58000  0.36690  0.97380  Biso   1.000  H
  C21      1.0000 0.08340  0.15055  0.71140  Biso   1.000  C
  C22      1.0000 0.41660  0.65055  0.78860  Biso   1.000  C
  C23      1.0000 0.91660  0.84945  0.28860  Biso   1.000  C
  C24      1.0000 0.58340  0.34945  0.21140  Biso   1.000  C
  H13      1.0000 0.17890  0.18650  0.69970  Biso   1.000  H
  H14      1.0000 0.32110  0.68650  0.80030  Biso   1.000  H
  H15      1.0000 0.82110  0.81350  0.30030  Biso   1.000  H
  H16      1.0000 0.67890  0.31350  0.19970  Biso   1.000  H
