data_image0
_cell_length_a       12.6385
_cell_length_b       10.6785
_cell_length_c       15.1085
_cell_angle_alpha    90
_cell_angle_beta     102.972
_cell_angle_gamma    90

_symmetry_space_group_name_H-M    "P 1"
_symmetry_int_tables_number       1

loop_
  _symmetry_equiv_pos_as_xyz
  'x, y, z'

loop_
  _atom_site_label
  _atom_site_occupancy
  _atom_site_fract_x
  _atom_site_fract_y
  _atom_site_fract_z
  _atom_site_thermal_displace_type
  _atom_site_B_iso_or_equiv
  _atom_site_type_symbol
  Cu1      1.0000 0.42839  0.80122  0.22108  Biso   1.000  Cu
  Cu2      1.0000 0.57161  0.30122  0.27892  Biso   1.000  Cu
  Cu3      1.0000 0.57161  0.19878  0.77892  Biso   1.000  Cu
  Cu4      1.0000 0.42839  0.69878  0.72108  Biso   1.000  Cu
  S1       1.0000 0.59002  0.87495  0.19342  Biso   1.000  S
  S2       1.0000 0.40998  0.37495  0.30658  Biso   1.000  S
  S3       1.0000 0.40998  0.12505  0.80658  Biso   1.000  S
  S4       1.0000 0.59002  0.62505  0.69342  Biso   1.000  S
  N1       1.0000 0.57809  0.12546  0.24835  Biso   1.000  N
  N2       1.0000 0.42191  0.62546  0.25165  Biso   1.000  N
  N3       1.0000 0.42191  0.87454  0.75165  Biso   1.000  N
  N4       1.0000 0.57809  0.37454  0.74835  Biso   1.000  N
  N5       1.0000 0.31256  0.84089  0.10048  Biso   1.000  N
  N6       1.0000 0.68744  0.34089  0.39952  Biso   1.000  N
  N7       1.0000 0.68744  0.15911  0.89952  Biso   1.000  N
  N8       1.0000 0.31256  0.65911  0.60048  Biso   1.000  N
  N9       1.0000 0.37301  0.91110  0.31337  Biso   1.000  N
  N10      1.0000 0.62699  0.41110  0.18663  Biso   1.000  N
  N11      1.0000 0.62699  0.08890  0.68663  Biso   1.000  N
  N12      1.0000 0.37301  0.58890  0.81337  Biso   1.000  N
  C1       1.0000 0.58170  0.02227  0.22586  Biso   1.000  C
  C2       1.0000 0.41830  0.52227  0.27414  Biso   1.000  C
  C3       1.0000 0.41830  0.97773  0.77414  Biso   1.000  C
  C4       1.0000 0.58170  0.47773  0.72586  Biso   1.000  C
  C5       1.0000 0.33538  0.90567  0.03140  Biso   1.000  C
  C6       1.0000 0.66462  0.40567  0.46860  Biso   1.000  C
  C7       1.0000 0.66462  0.09433  0.96860  Biso   1.000  C
  C8       1.0000 0.33538  0.59433  0.53140  Biso   1.000  C
  H1       1.0000 0.40470  0.94420  0.03990  Biso   1.000  H
  H2       1.0000 0.59530  0.44420  0.46010  Biso   1.000  H
  H3       1.0000 0.59530  0.05580  0.96010  Biso   1.000  H
  H4       1.0000 0.40470  0.55580  0.53990  Biso   1.000  H
  C9       1.0000 0.26361  0.91978  0.94800  Biso   1.000  C
  C10      1.0000 0.73639  0.41978  0.55200  Biso   1.000  C
  C11      1.0000 0.73639  0.08022  0.05200  Biso   1.000  C
  C12      1.0000 0.26361  0.58022  0.44800  Biso   1.000  C
  H5       1.0000 0.28420  0.96760  0.90160  Biso   1.000  H
  H6       1.0000 0.71580  0.46760  0.59840  Biso   1.000  H
  H7       1.0000 0.71580  0.03240  0.09840  Biso   1.000  H
  H8       1.0000 0.28420  0.53240  0.40160  Biso   1.000  H
  C13      1.0000 0.16182  0.86434  0.93211  Biso   1.000  C
  C14      1.0000 0.83818  0.36434  0.56789  Biso   1.000  C
  C15      1.0000 0.83818  0.13566  0.06789  Biso   1.000  C
  C16      1.0000 0.16182  0.63566  0.43211  Biso   1.000  C
  C17      1.0000 0.13720  0.79942  0.00517  Biso   1.000  C
  C18      1.0000 0.86280  0.29942  0.49483  Biso   1.000  C
  C19      1.0000 0.86280  0.20058  0.99483  Biso   1.000  C
  C20      1.0000 0.13720  0.70058  0.50517  Biso   1.000  C
  H9       1.0000 0.06790  0.76140  0.99890  Biso   1.000  H
  H10      1.0000 0.93210  0.26140  0.50110  Biso   1.000  H
  H11      1.0000 0.93210  0.23860  0.00110  Biso   1.000  H
  H12      1.0000 0.06790  0.73860  0.49890  Biso   1.000  H
  C21      1.0000 0.21281  0.79018  0.08626  Biso   1.000  C
  C22      1.0000 0.78719  0.29018  0.41374  Biso   1.000  C
  C23      1.0000 0.78719  0.20982  0.91374  Biso   1.000  C
  C24      1.0000 0.21281  0.70982  0.58626  Biso   1.000  C
  H13      1.0000 0.19340  0.74560  0.13470  Biso   1.000  H
  H14      1.0000 0.80660  0.24560  0.36530  Biso   1.000  H
  H15      1.0000 0.80660  0.25440  0.86530  Biso   1.000  H
  H16      1.0000 0.19340  0.75440  0.63470  Biso   1.000  H
  C25      1.0000 0.07998  0.87018  0.84093  Biso   1.000  C
  C26      1.0000 0.92002  0.37018  0.65907  Biso   1.000  C
  C27      1.0000 0.92002  0.12982  0.15907  Biso   1.000  C
  C28      1.0000 0.07998  0.62982  0.34093  Biso   1.000  C
  C29      1.0000 0.97675  0.93658  0.85348  Biso   1.000  C
  C30      1.0000 0.02325  0.43658  0.64652  Biso   1.000  C
  C31      1.0000 0.02325  0.06342  0.14652  Biso   1.000  C
  C32      1.0000 0.97675  0.56342  0.35348  Biso   1.000  C
  H17      1.0000 0.94470  0.88920  0.89650  Biso   1.000  H
  H18      1.0000 0.05530  0.38920  0.60350  Biso   1.000  H
  H19      1.0000 0.05530  0.11080  0.10350  Biso   1.000  H
  H20      1.0000 0.94470  0.61080  0.39650  Biso   1.000  H
  H21      1.0000 0.92450  0.94180  0.79490  Biso   1.000  H
  H22      1.0000 0.07550  0.44180  0.70510  Biso   1.000  H
  H23      1.0000 0.07550  0.05820  0.20510  Biso   1.000  H
  H24      1.0000 0.92450  0.55820  0.29490  Biso   1.000  H
  H25      1.0000 0.99510  0.02120  0.87710  Biso   1.000  H
  H26      1.0000 0.00490  0.52120  0.62290  Biso   1.000  H
  H27      1.0000 0.00490  0.97880  0.12290  Biso   1.000  H
  H28      1.0000 0.99510  0.47880  0.37710  Biso   1.000  H
  C33      1.0000 0.05428  0.73506  0.80686  Biso   1.000  C
  C34      1.0000 0.94572  0.23506  0.69314  Biso   1.000  C
  C35      1.0000 0.94572  0.26494  0.19314  Biso   1.000  C
  C36      1.0000 0.05428  0.76494  0.30686  Biso   1.000  C
  H29      1.0000 0.12080  0.69490  0.79790  Biso   1.000  H
  H30      1.0000 0.87920  0.19490  0.70210  Biso   1.000  H
  H31      1.0000 0.87920  0.30510  0.20210  Biso   1.000  H
  H32      1.0000 0.12080  0.80510  0.29790  Biso   1.000  H
  H33      1.0000 0.00010  0.73660  0.74920  Biso   1.000  H
  H34      1.0000 0.99990  0.23660  0.75080  Biso   1.000  H
  H35      1.0000 0.99990  0.26340  0.25080  Biso   1.000  H
  H36      1.0000 0.00010  0.76340  0.24920  Biso   1.000  H
  H37      1.0000 0.02560  0.68780  0.85190  Biso   1.000  H
  H38      1.0000 0.97440  0.18780  0.64810  Biso   1.000  H
  H39      1.0000 0.97440  0.31220  0.14810  Biso   1.000  H
  H40      1.0000 0.02560  0.81220  0.35190  Biso   1.000  H
  C37      1.0000 0.12478  0.94150  0.76949  Biso   1.000  C
  C38      1.0000 0.87522  0.44150  0.73051  Biso   1.000  C
  C39      1.0000 0.87522  0.05850  0.23051  Biso   1.000  C
  C40      1.0000 0.12478  0.55850  0.26949  Biso   1.000  C
  H41      1.0000 0.14020  0.02830  0.78940  Biso   1.000  H
  H42      1.0000 0.85980  0.52830  0.71060  Biso   1.000  H
  H43      1.0000 0.85980  0.97170  0.21060  Biso   1.000  H
  H44      1.0000 0.14020  0.47170  0.28940  Biso   1.000  H
  H45      1.0000 0.07100  0.94060  0.71160  Biso   1.000  H
  H46      1.0000 0.92900  0.44060  0.78840  Biso   1.000  H
  H47      1.0000 0.92900  0.05940  0.28840  Biso   1.000  H
  H48      1.0000 0.07100  0.55940  0.21160  Biso   1.000  H
  H49      1.0000 0.19180  0.90130  0.76170  Biso   1.000  H
  H50      1.0000 0.80820  0.40130  0.73830  Biso   1.000  H
  H51      1.0000 0.80820  0.09870  0.23830  Biso   1.000  H
  H52      1.0000 0.19180  0.59870  0.26170  Biso   1.000  H
  C41      1.0000 0.32770  0.02245  0.28787  Biso   1.000  C
  C42      1.0000 0.67230  0.52245  0.21213  Biso   1.000  C
  C43      1.0000 0.67230  0.97755  0.71213  Biso   1.000  C
  C44      1.0000 0.32770  0.47755  0.78787  Biso   1.000  C
  H53      1.0000 0.32530  0.05010  0.22770  Biso   1.000  H
  H54      1.0000 0.67470  0.55010  0.27230  Biso   1.000  H
  H55      1.0000 0.67470  0.94990  0.77230  Biso   1.000  H
  H56      1.0000 0.32530  0.44990  0.72770  Biso   1.000  H
  C45      1.0000 0.28435  0.09939  0.34397  Biso   1.000  C
  C46      1.0000 0.71565  0.59939  0.15603  Biso   1.000  C
  C47      1.0000 0.71565  0.90061  0.65603  Biso   1.000  C
  C48      1.0000 0.28435  0.40061  0.84397  Biso   1.000  C
  H57      1.0000 0.25190  0.17670  0.32150  Biso   1.000  H
  H58      1.0000 0.74810  0.67670  0.17850  Biso   1.000  H
  H59      1.0000 0.74810  0.82330  0.67850  Biso   1.000  H
  H60      1.0000 0.25190  0.32330  0.82150  Biso   1.000  H
  C49      1.0000 0.28786  0.06451  0.43339  Biso   1.000  C
  C50      1.0000 0.71214  0.56451  0.06661  Biso   1.000  C
  C51      1.0000 0.71214  0.93549  0.56661  Biso   1.000  C
  C52      1.0000 0.28786  0.43549  0.93339  Biso   1.000  C
  C53      1.0000 0.33776  0.94987  0.46054  Biso   1.000  C
  C54      1.0000 0.66224  0.44987  0.03946  Biso   1.000  C
  C55      1.0000 0.66224  0.05013  0.53946  Biso   1.000  C
  C56      1.0000 0.33776  0.55013  0.96054  Biso   1.000  C
  H61      1.0000 0.34450  0.92170  0.52120  Biso   1.000  H
  H62      1.0000 0.65550  0.42170  0.97880  Biso   1.000  H
  H63      1.0000 0.65550  0.07830  0.47880  Biso   1.000  H
  H64      1.0000 0.34450  0.57830  0.02120  Biso   1.000  H
  C57      1.0000 0.37732  0.87733  0.39965  Biso   1.000  C
  C58      1.0000 0.62268  0.37733  0.10035  Biso   1.000  C
  C59      1.0000 0.62268  0.12267  0.60035  Biso   1.000  C
  C60      1.0000 0.37732  0.62267  0.89965  Biso   1.000  C
  H65      1.0000 0.40940  0.79900  0.42000  Biso   1.000  H
  H66      1.0000 0.59060  0.29900  0.08000  Biso   1.000  H
  H67      1.0000 0.59060  0.20100  0.58000  Biso   1.000  H
  H68      1.0000 0.40940  0.70100  0.92000  Biso   1.000  H
  C61      1.0000 0.24414  0.14926  0.49855  Biso   1.000  C
  C62      1.0000 0.75586  0.64926  0.00145  Biso   1.000  C
  C63      1.0000 0.75586  0.85074  0.50145  Biso   1.000  C
  C64      1.0000 0.24414  0.35074  0.99855  Biso   1.000  C
  C65      1.0000 0.19336  0.07240  0.56365  Biso   1.000  C
  C66      1.0000 0.80664  0.57240  0.93635  Biso   1.000  C
  C67      1.0000 0.80664  0.92760  0.43635  Biso   1.000  C
  C68      1.0000 0.19336  0.42760  0.06365  Biso   1.000  C
  H69      1.0000 0.13520  0.01980  0.52870  Biso   1.000  H
  H70      1.0000 0.86480  0.51980  0.97130  Biso   1.000  H
  H71      1.0000 0.86480  0.98020  0.47130  Biso   1.000  H
  H72      1.0000 0.13520  0.48020  0.02870  Biso   1.000  H
  H73      1.0000 0.16330  0.12900  0.60280  Biso   1.000  H
  H74      1.0000 0.83670  0.62900  0.89720  Biso   1.000  H
  H75      1.0000 0.83670  0.87100  0.39720  Biso   1.000  H
  H76      1.0000 0.16330  0.37100  0.10280  Biso   1.000  H
  H77      1.0000 0.24900  0.01920  0.60120  Biso   1.000  H
  H78      1.0000 0.75100  0.51920  0.89880  Biso   1.000  H
  H79      1.0000 0.75100  0.98080  0.39880  Biso   1.000  H
  H80      1.0000 0.24900  0.48080  0.10120  Biso   1.000  H
  C69      1.0000 0.33963  0.22614  0.55343  Biso   1.000  C
  C70      1.0000 0.66037  0.72614  0.94657  Biso   1.000  C
  C71      1.0000 0.66037  0.77386  0.44657  Biso   1.000  C
  C72      1.0000 0.33963  0.27386  0.05343  Biso   1.000  C
  H81      1.0000 0.39400  0.16940  0.58890  Biso   1.000  H
  H82      1.0000 0.60600  0.66940  0.91110  Biso   1.000  H
  H83      1.0000 0.60600  0.83060  0.41110  Biso   1.000  H
  H84      1.0000 0.39400  0.33060  0.08890  Biso   1.000  H
  H85      1.0000 0.31310  0.28300  0.59460  Biso   1.000  H
  H86      1.0000 0.68690  0.78300  0.90540  Biso   1.000  H
  H87      1.0000 0.68690  0.71700  0.40540  Biso   1.000  H
  H88      1.0000 0.31310  0.21700  0.09460  Biso   1.000  H
  H89      1.0000 0.37260  0.27500  0.51180  Biso   1.000  H
  H90      1.0000 0.62740  0.77500  0.98820  Biso   1.000  H
  H91      1.0000 0.62740  0.72500  0.48820  Biso   1.000  H
  H92      1.0000 0.37260  0.22500  0.01180  Biso   1.000  H
  C73      1.0000 0.15915  0.24094  0.44683  Biso   1.000  C
  C74      1.0000 0.84085  0.74094  0.05317  Biso   1.000  C
  C75      1.0000 0.84085  0.75906  0.55317  Biso   1.000  C
  C76      1.0000 0.15915  0.25906  0.94683  Biso   1.000  C
  H93      1.0000 0.19280  0.29570  0.40890  Biso   1.000  H
  H94      1.0000 0.80720  0.79570  0.09110  Biso   1.000  H
  H95      1.0000 0.80720  0.70430  0.59110  Biso   1.000  H
  H96      1.0000 0.19280  0.20430  0.90890  Biso   1.000  H
  H97      1.0000 0.13070  0.29180  0.49030  Biso   1.000  H
  H98      1.0000 0.86930  0.79180  0.00970  Biso   1.000  H
  H99      1.0000 0.86930  0.70820  0.50970  Biso   1.000  H
  H100     1.0000 0.13070  0.20820  0.99030  Biso   1.000  H
  H101     1.0000 0.09960  0.19400  0.40820  Biso   1.000  H
  H102     1.0000 0.90040  0.69400  0.09180  Biso   1.000  H
  H103     1.0000 0.90040  0.80600  0.59180  Biso   1.000  H
  H104     1.0000 0.09960  0.30600  0.90820  Biso   1.000  H
