data_image0
_cell_length_a       11.7388
_cell_length_b       13.0673
_cell_length_c       12.6949
_cell_angle_alpha    90
_cell_angle_beta     112.124
_cell_angle_gamma    90

_symmetry_space_group_name_H-M    "P 1"
_symmetry_int_tables_number       1

loop_
  _symmetry_equiv_pos_as_xyz
  'x, y, z'

loop_
  _atom_site_label
  _atom_site_occupancy
  _atom_site_fract_x
  _atom_site_fract_y
  _atom_site_fract_z
  _atom_site_thermal_displace_type
  _atom_site_B_iso_or_equiv
  _atom_site_type_symbol
  Cu1      1.0000 0.50104  0.01783  0.12032  Biso   1.000  Cu
  Cu2      1.0000 0.49896  0.51783  0.37968  Biso   1.000  Cu
  Cu3      1.0000 0.49896  0.98217  0.87968  Biso   1.000  Cu
  Cu4      1.0000 0.50104  0.48217  0.62032  Biso   1.000  Cu
  Cu5      1.0000 0.98322  0.04233  0.09013  Biso   1.000  Cu
  Cu6      1.0000 0.01678  0.54233  0.40987  Biso   1.000  Cu
  Cu7      1.0000 0.01678  0.95767  0.90987  Biso   1.000  Cu
  Cu8      1.0000 0.98322  0.45767  0.59013  Biso   1.000  Cu
  S1       1.0000 0.61133  0.89071  0.07245  Biso   1.000  S
  S2       1.0000 0.38867  0.39071  0.42755  Biso   1.000  S
  S3       1.0000 0.38867  0.10929  0.92755  Biso   1.000  S
  S4       1.0000 0.61133  0.60929  0.57245  Biso   1.000  S
  S5       1.0000 0.11407  0.89753  0.10245  Biso   1.000  S
  S6       1.0000 0.88593  0.39753  0.39755  Biso   1.000  S
  S7       1.0000 0.88593  0.10247  0.89755  Biso   1.000  S
  S8       1.0000 0.11407  0.60247  0.60245  Biso   1.000  S
  N1       1.0000 0.84578  0.97599  0.11713  Biso   1.000  N
  N2       1.0000 0.15422  0.47599  0.38287  Biso   1.000  N
  N3       1.0000 0.15422  0.02401  0.88287  Biso   1.000  N
  N4       1.0000 0.84578  0.52401  0.61713  Biso   1.000  N
  N5       1.0000 0.35599  0.95979  0.13693  Biso   1.000  N
  N6       1.0000 0.64401  0.45979  0.36307  Biso   1.000  N
  N7       1.0000 0.64401  0.04021  0.86307  Biso   1.000  N
  N8       1.0000 0.35599  0.54021  0.63693  Biso   1.000  N
  N9       1.0000 0.60509  0.13586  0.22325  Biso   1.000  N
  N10      1.0000 0.39491  0.63586  0.27675  Biso   1.000  N
  N11      1.0000 0.39491  0.86414  0.77675  Biso   1.000  N
  N12      1.0000 0.60509  0.36414  0.72325  Biso   1.000  N
  N13      1.0000 0.08626  0.14740  0.21279  Biso   1.000  N
  N14      1.0000 0.91374  0.64740  0.28721  Biso   1.000  N
  N15      1.0000 0.91374  0.85260  0.78721  Biso   1.000  N
  N16      1.0000 0.08626  0.35260  0.71279  Biso   1.000  N
  C1       1.0000 0.74873  0.94148  0.09831  Biso   1.000  C
  C2       1.0000 0.25127  0.44148  0.40169  Biso   1.000  C
  C3       1.0000 0.25127  0.05852  0.90169  Biso   1.000  C
  C4       1.0000 0.74873  0.55852  0.59831  Biso   1.000  C
  C5       1.0000 0.25616  0.93536  0.12305  Biso   1.000  C
  C6       1.0000 0.74384  0.43536  0.37695  Biso   1.000  C
  C7       1.0000 0.74384  0.06464  0.87695  Biso   1.000  C
  C8       1.0000 0.25616  0.56464  0.62305  Biso   1.000  C
  C9       1.0000 0.53340  0.19079  0.28085  Biso   1.000  C
  C10      1.0000 0.46660  0.69079  0.21915  Biso   1.000  C
  C11      1.0000 0.46660  0.80921  0.71915  Biso   1.000  C
  C12      1.0000 0.53340  0.30921  0.78085  Biso   1.000  C
  H1       1.0000 0.45550  0.21590  0.22280  Biso   1.000  H
  H2       1.0000 0.54450  0.71590  0.27720  Biso   1.000  H
  H3       1.0000 0.54450  0.78410  0.77720  Biso   1.000  H
  H4       1.0000 0.45550  0.28410  0.72280  Biso   1.000  H
  H5       1.0000 0.58090  0.25100  0.32170  Biso   1.000  H
  H6       1.0000 0.41910  0.75100  0.17830  Biso   1.000  H
  H7       1.0000 0.41910  0.74900  0.67830  Biso   1.000  H
  H8       1.0000 0.58090  0.24900  0.82170  Biso   1.000  H
  C13      1.0000 0.50449  0.12280  0.36472  Biso   1.000  C
  C14      1.0000 0.49551  0.62280  0.13528  Biso   1.000  C
  C15      1.0000 0.49551  0.87720  0.63528  Biso   1.000  C
  C16      1.0000 0.50449  0.37720  0.86472  Biso   1.000  C
  H9       1.0000 0.45090  0.06570  0.32330  Biso   1.000  H
  H10      1.0000 0.54910  0.56570  0.17670  Biso   1.000  H
  H11      1.0000 0.54910  0.93430  0.67670  Biso   1.000  H
  H12      1.0000 0.45090  0.43430  0.82330  Biso   1.000  H
  H13      1.0000 0.45950  0.16300  0.40280  Biso   1.000  H
  H14      1.0000 0.54050  0.66300  0.09720  Biso   1.000  H
  H15      1.0000 0.54050  0.83700  0.59720  Biso   1.000  H
  H16      1.0000 0.45950  0.33700  0.90280  Biso   1.000  H
  C17      1.0000 0.62240  0.07959  0.45423  Biso   1.000  C
  C18      1.0000 0.37760  0.57959  0.04577  Biso   1.000  C
  C19      1.0000 0.37760  0.92041  0.54577  Biso   1.000  C
  C20      1.0000 0.62240  0.42041  0.95423  Biso   1.000  C
  H17      1.0000 0.67140  0.13570  0.50270  Biso   1.000  H
  H18      1.0000 0.32860  0.63570  0.99730  Biso   1.000  H
  H19      1.0000 0.32860  0.86430  0.49730  Biso   1.000  H
  H20      1.0000 0.67140  0.36430  0.00270  Biso   1.000  H
  H21      1.0000 0.60160  0.03030  0.50340  Biso   1.000  H
  H22      1.0000 0.39840  0.53030  0.99660  Biso   1.000  H
  H23      1.0000 0.39840  0.96970  0.49660  Biso   1.000  H
  H24      1.0000 0.60160  0.46970  0.00340  Biso   1.000  H
  C21      1.0000 0.69700  0.02621  0.39459  Biso   1.000  C
  C22      1.0000 0.30300  0.52621  0.10541  Biso   1.000  C
  C23      1.0000 0.30300  0.97379  0.60541  Biso   1.000  C
  C24      1.0000 0.69700  0.47379  0.89459  Biso   1.000  C
  H25      1.0000 0.77620  0.00250  0.45190  Biso   1.000  H
  H26      1.0000 0.22380  0.50250  0.04810  Biso   1.000  H
  H27      1.0000 0.22380  0.99750  0.54810  Biso   1.000  H
  H28      1.0000 0.77620  0.49750  0.95190  Biso   1.000  H
  H29      1.0000 0.65140  0.96550  0.35310  Biso   1.000  H
  H30      1.0000 0.34860  0.46550  0.14690  Biso   1.000  H
  H31      1.0000 0.34860  0.03450  0.64690  Biso   1.000  H
  H32      1.0000 0.65140  0.53450  0.85310  Biso   1.000  H
  C25      1.0000 0.72151  0.09803  0.31182  Biso   1.000  C
  C26      1.0000 0.27849  0.59803  0.18818  Biso   1.000  C
  C27      1.0000 0.27849  0.90197  0.68818  Biso   1.000  C
  C28      1.0000 0.72151  0.40197  0.81182  Biso   1.000  C
  H33      1.0000 0.77040  0.15710  0.35400  Biso   1.000  H
  H34      1.0000 0.22960  0.65710  0.14600  Biso   1.000  H
  H35      1.0000 0.22960  0.84290  0.64600  Biso   1.000  H
  H36      1.0000 0.77040  0.34290  0.85400  Biso   1.000  H
  H37      1.0000 0.77040  0.06180  0.27460  Biso   1.000  H
  H38      1.0000 0.22960  0.56180  0.22540  Biso   1.000  H
  H39      1.0000 0.22960  0.93820  0.72540  Biso   1.000  H
  H40      1.0000 0.77040  0.43820  0.77460  Biso   1.000  H
  C29      1.0000 0.63740  0.20854  0.15060  Biso   1.000  C
  C30      1.0000 0.36260  0.70854  0.34940  Biso   1.000  C
  C31      1.0000 0.36260  0.79146  0.84940  Biso   1.000  C
  C32      1.0000 0.63740  0.29146  0.65060  Biso   1.000  C
  H41      1.0000 0.68910  0.26310  0.19780  Biso   1.000  H
  H42      1.0000 0.31090  0.76310  0.30220  Biso   1.000  H
  H43      1.0000 0.31090  0.73690  0.80220  Biso   1.000  H
  H44      1.0000 0.68910  0.23690  0.69780  Biso   1.000  H
  H45      1.0000 0.56220  0.23840  0.09510  Biso   1.000  H
  H46      1.0000 0.43780  0.73840  0.40490  Biso   1.000  H
  H47      1.0000 0.43780  0.76160  0.90490  Biso   1.000  H
  H48      1.0000 0.56220  0.26160  0.59510  Biso   1.000  H
  H49      1.0000 0.68250  0.17270  0.11060  Biso   1.000  H
  H50      1.0000 0.31750  0.67270  0.38940  Biso   1.000  H
  H51      1.0000 0.31750  0.82730  0.88940  Biso   1.000  H
  H52      1.0000 0.68250  0.32730  0.61060  Biso   1.000  H
  C33      1.0000 0.00880  0.22944  0.23285  Biso   1.000  C
  C34      1.0000 0.99120  0.72944  0.26715  Biso   1.000  C
  C35      1.0000 0.99120  0.77056  0.76715  Biso   1.000  C
  C36      1.0000 0.00880  0.27056  0.73285  Biso   1.000  C
  H53      1.0000 0.05980  0.27150  0.29860  Biso   1.000  H
  H54      1.0000 0.94020  0.77150  0.20140  Biso   1.000  H
  H55      1.0000 0.94020  0.72850  0.70140  Biso   1.000  H
  H56      1.0000 0.05980  0.22850  0.79860  Biso   1.000  H
  H57      1.0000 0.94240  0.19770  0.25200  Biso   1.000  H
  H58      1.0000 0.05760  0.69770  0.24800  Biso   1.000  H
  H59      1.0000 0.05760  0.80230  0.74800  Biso   1.000  H
  H60      1.0000 0.94240  0.30230  0.75200  Biso   1.000  H
  C37      1.0000 0.95200  0.29804  0.12977  Biso   1.000  C
  C38      1.0000 0.04800  0.79804  0.37023  Biso   1.000  C
  C39      1.0000 0.04800  0.70196  0.87023  Biso   1.000  C
  C40      1.0000 0.95200  0.20196  0.62977  Biso   1.000  C
  H61      1.0000 0.90370  0.35280  0.14750  Biso   1.000  H
  H62      1.0000 0.09630  0.85280  0.35250  Biso   1.000  H
  H63      1.0000 0.09630  0.64720  0.85250  Biso   1.000  H
  H64      1.0000 0.90370  0.14720  0.64750  Biso   1.000  H
  H65      1.0000 0.89540  0.25740  0.06560  Biso   1.000  H
  H66      1.0000 0.10460  0.75740  0.43440  Biso   1.000  H
  H67      1.0000 0.10460  0.74260  0.93440  Biso   1.000  H
  H68      1.0000 0.89540  0.24260  0.56560  Biso   1.000  H
  C41      1.0000 0.05140  0.34606  0.09533  Biso   1.000  C
  C42      1.0000 0.94860  0.84606  0.40467  Biso   1.000  C
  C43      1.0000 0.94860  0.65394  0.90467  Biso   1.000  C
  C44      1.0000 0.05140  0.15394  0.59533  Biso   1.000  C
  H69      1.0000 0.09940  0.39590  0.15400  Biso   1.000  H
  H70      1.0000 0.90060  0.89590  0.34600  Biso   1.000  H
  H71      1.0000 0.90060  0.60410  0.84600  Biso   1.000  H
  H72      1.0000 0.09940  0.10410  0.65400  Biso   1.000  H
  H73      1.0000 0.01250  0.38330  0.02260  Biso   1.000  H
  H74      1.0000 0.98750  0.88330  0.47740  Biso   1.000  H
  H75      1.0000 0.98750  0.61670  0.97740  Biso   1.000  H
  H76      1.0000 0.01250  0.11670  0.52260  Biso   1.000  H
  C45      1.0000 0.13740  0.26379  0.08190  Biso   1.000  C
  C46      1.0000 0.86260  0.76379  0.41810  Biso   1.000  C
  C47      1.0000 0.86260  0.73621  0.91810  Biso   1.000  C
  C48      1.0000 0.13740  0.23621  0.58190  Biso   1.000  C
  H77      1.0000 0.09240  0.22130  0.01440  Biso   1.000  H
  H78      1.0000 0.90760  0.72130  0.48560  Biso   1.000  H
  H79      1.0000 0.90760  0.77870  0.98560  Biso   1.000  H
  H80      1.0000 0.09240  0.27870  0.51440  Biso   1.000  H
  H81      1.0000 0.20700  0.29690  0.06920  Biso   1.000  H
  H82      1.0000 0.79300  0.79690  0.43080  Biso   1.000  H
  H83      1.0000 0.79300  0.70310  0.93080  Biso   1.000  H
  H84      1.0000 0.20700  0.20310  0.56920  Biso   1.000  H
  C49      1.0000 0.18671  0.19594  0.18607  Biso   1.000  C
  C50      1.0000 0.81329  0.69594  0.31393  Biso   1.000  C
  C51      1.0000 0.81329  0.80406  0.81393  Biso   1.000  C
  C52      1.0000 0.18671  0.30406  0.68607  Biso   1.000  C
  H85      1.0000 0.23910  0.14190  0.17310  Biso   1.000  H
  H86      1.0000 0.76090  0.64190  0.32690  Biso   1.000  H
  H87      1.0000 0.76090  0.85810  0.82690  Biso   1.000  H
  H88      1.0000 0.23910  0.35810  0.67310  Biso   1.000  H
  H89      1.0000 0.23860  0.23730  0.25200  Biso   1.000  H
  H90      1.0000 0.76140  0.73730  0.24800  Biso   1.000  H
  H91      1.0000 0.76140  0.76270  0.74800  Biso   1.000  H
  H92      1.0000 0.23860  0.26270  0.75200  Biso   1.000  H
  C53      1.0000 0.14200  0.08893  0.31885  Biso   1.000  C
  C54      1.0000 0.85800  0.58893  0.18115  Biso   1.000  C
  C55      1.0000 0.85800  0.91107  0.68115  Biso   1.000  C
  C56      1.0000 0.14200  0.41107  0.81885  Biso   1.000  C
  H93      1.0000 0.19380  0.03440  0.30790  Biso   1.000  H
  H94      1.0000 0.80620  0.53440  0.19210  Biso   1.000  H
  H95      1.0000 0.80620  0.96560  0.69210  Biso   1.000  H
  H96      1.0000 0.19380  0.46560  0.80790  Biso   1.000  H
  H97      1.0000 0.07700  0.05870  0.33960  Biso   1.000  H
  H98      1.0000 0.92300  0.55870  0.16040  Biso   1.000  H
  H99      1.0000 0.92300  0.94130  0.66040  Biso   1.000  H
  H100     1.0000 0.07700  0.44130  0.83960  Biso   1.000  H
  H101     1.0000 0.19230  0.13470  0.37970  Biso   1.000  H
  H102     1.0000 0.80770  0.63470  0.12030  Biso   1.000  H
  H103     1.0000 0.80770  0.86530  0.62030  Biso   1.000  H
  H104     1.0000 0.19230  0.36530  0.87970  Biso   1.000  H
