data_image0
_cell_length_a       3.8166
_cell_length_b       24.2881
_cell_length_c       8.4924
_cell_angle_alpha    90
_cell_angle_beta     91.714
_cell_angle_gamma    90

_symmetry_space_group_name_H-M    "P 1"
_symmetry_int_tables_number       1

loop_
  _symmetry_equiv_pos_as_xyz
  'x, y, z'

loop_
  _atom_site_label
  _atom_site_occupancy
  _atom_site_fract_x
  _atom_site_fract_y
  _atom_site_fract_z
  _atom_site_thermal_displace_type
  _atom_site_B_iso_or_equiv
  _atom_site_type_symbol
  Br1      1.0000 0.65083  0.02214  0.77061  Biso   1.000  Br
  Br2      1.0000 0.84917  0.52214  0.72939  Biso   1.000  Br
  Br3      1.0000 0.34917  0.97786  0.22939  Biso   1.000  Br
  Br4      1.0000 0.15083  0.47786  0.27061  Biso   1.000  Br
  Cu1      1.0000 0.06560  0.81285  0.04957  Biso   1.000  Cu
  Cu2      1.0000 0.43440  0.31285  0.45043  Biso   1.000  Cu
  Cu3      1.0000 0.93440  0.18715  0.95043  Biso   1.000  Cu
  Cu4      1.0000 0.56560  0.68715  0.54957  Biso   1.000  Cu
  S1       1.0000 0.57200  0.83646  0.19589  Biso   1.000  S
  S2       1.0000 0.92800  0.33646  0.30411  Biso   1.000  S
  S3       1.0000 0.42800  0.16354  0.80411  Biso   1.000  S
  S4       1.0000 0.07200  0.66354  0.69589  Biso   1.000  S
  N1       1.0000 0.56660  0.76016  0.44740  Biso   1.000  N
  N2       1.0000 0.93340  0.26016  0.05260  Biso   1.000  N
  N3       1.0000 0.43340  0.23984  0.55260  Biso   1.000  N
  N4       1.0000 0.06660  0.73984  0.94740  Biso   1.000  N
  N5       1.0000 0.01660  0.86523  0.85860  Biso   1.000  N
  N6       1.0000 0.48340  0.36523  0.64140  Biso   1.000  N
  N7       1.0000 0.98340  0.13477  0.14140  Biso   1.000  N
  N8       1.0000 0.51660  0.63477  0.35860  Biso   1.000  N
  C1       1.0000 0.56980  0.79079  0.34390  Biso   1.000  C
  C2       1.0000 0.93020  0.29079  0.15610  Biso   1.000  C
  C3       1.0000 0.43020  0.20921  0.65610  Biso   1.000  C
  C4       1.0000 0.06980  0.70921  0.84390  Biso   1.000  C
  C5       1.0000 0.88620  0.91614  0.87180  Biso   1.000  C
  C6       1.0000 0.61380  0.41614  0.62820  Biso   1.000  C
  C7       1.0000 0.11380  0.08386  0.12820  Biso   1.000  C
  C8       1.0000 0.38620  0.58386  0.37180  Biso   1.000  C
  H1       1.0000 0.83230  0.92970  0.97320  Biso   1.000  H
  H2       1.0000 0.66770  0.42970  0.52680  Biso   1.000  H
  H3       1.0000 0.16770  0.07030  0.02680  Biso   1.000  H
  H4       1.0000 0.33230  0.57030  0.47320  Biso   1.000  H
  C9       1.0000 0.82810  0.94948  0.74240  Biso   1.000  C
  C10      1.0000 0.67190  0.44948  0.75760  Biso   1.000  C
  C11      1.0000 0.17190  0.05052  0.25760  Biso   1.000  C
  C12      1.0000 0.32810  0.55052  0.24240  Biso   1.000  C
  C13      1.0000 0.90010  0.93153  0.59270  Biso   1.000  C
  C14      1.0000 0.59990  0.43153  0.90730  Biso   1.000  C
  C15      1.0000 0.09990  0.06847  0.40730  Biso   1.000  C
  C16      1.0000 0.40010  0.56847  0.09270  Biso   1.000  C
  H5       1.0000 0.85550  0.95400  0.50270  Biso   1.000  H
  H6       1.0000 0.64450  0.45400  0.99730  Biso   1.000  H
  H7       1.0000 0.14450  0.04600  0.49730  Biso   1.000  H
  H8       1.0000 0.35550  0.54600  0.00270  Biso   1.000  H
  C17      1.0000 0.04130  0.87892  0.58000  Biso   1.000  C
  C18      1.0000 0.45870  0.37892  0.92000  Biso   1.000  C
  C19      1.0000 0.95870  0.12108  0.42000  Biso   1.000  C
  C20      1.0000 0.54130  0.62108  0.08000  Biso   1.000  C
  H9       1.0000 0.10060  0.86490  0.47990  Biso   1.000  H
  H10      1.0000 0.39940  0.36490  0.02010  Biso   1.000  H
  H11      1.0000 0.89940  0.13510  0.52010  Biso   1.000  H
  H12      1.0000 0.60060  0.63510  0.97990  Biso   1.000  H
  C21      1.0000 0.09500  0.84722  0.71380  Biso   1.000  C
  C22      1.0000 0.40500  0.34722  0.78620  Biso   1.000  C
  C23      1.0000 0.90500  0.15278  0.28620  Biso   1.000  C
  C24      1.0000 0.59500  0.65278  0.21380  Biso   1.000  C
  H13      1.0000 0.19090  0.81140  0.70320  Biso   1.000  H
  H14      1.0000 0.30910  0.31140  0.79680  Biso   1.000  H
  H15      1.0000 0.80910  0.18860  0.29680  Biso   1.000  H
  H16      1.0000 0.69090  0.68860  0.20320  Biso   1.000  H
