data_image0
_cell_length_a       15.339
_cell_length_b       5.8582
_cell_length_c       18.456
_cell_angle_alpha    90
_cell_angle_beta     112.779
_cell_angle_gamma    90

_symmetry_space_group_name_H-M    "P 1"
_symmetry_int_tables_number       1

loop_
  _symmetry_equiv_pos_as_xyz
  'x, y, z'

loop_
  _atom_site_label
  _atom_site_occupancy
  _atom_site_fract_x
  _atom_site_fract_y
  _atom_site_fract_z
  _atom_site_thermal_displace_type
  _atom_site_B_iso_or_equiv
  _atom_site_type_symbol
  Cu1      1.0000 0.43511  0.34726  0.19727  Biso   1.000  Cu
  Cu2      1.0000 0.06489  0.84726  0.30273  Biso   1.000  Cu
  Cu3      1.0000 0.56489  0.65274  0.80273  Biso   1.000  Cu
  Cu4      1.0000 0.93511  0.15274  0.69727  Biso   1.000  Cu
  S1       1.0000 0.36984  0.09813  0.09293  Biso   1.000  S
  S2       1.0000 0.13016  0.59813  0.40707  Biso   1.000  S
  S3       1.0000 0.63016  0.90187  0.90707  Biso   1.000  S
  S4       1.0000 0.86984  0.40187  0.59293  Biso   1.000  S
  N1       1.0000 0.41489  0.66280  0.16204  Biso   1.000  N
  N2       1.0000 0.08511  0.16280  0.33796  Biso   1.000  N
  N3       1.0000 0.58511  0.33720  0.83796  Biso   1.000  N
  N4       1.0000 0.91489  0.83720  0.66204  Biso   1.000  N
  N5       1.0000 0.57674  0.26890  0.26155  Biso   1.000  N
  N6       1.0000 0.92326  0.76890  0.23845  Biso   1.000  N
  N7       1.0000 0.42326  0.73110  0.73845  Biso   1.000  N
  N8       1.0000 0.07674  0.23110  0.76155  Biso   1.000  N
  N9       1.0000 0.38122  0.28220  0.28316  Biso   1.000  N
  N10      1.0000 0.11878  0.78220  0.21684  Biso   1.000  N
  N11      1.0000 0.61878  0.71780  0.71684  Biso   1.000  N
  N12      1.0000 0.88122  0.21780  0.78316  Biso   1.000  N
  C1       1.0000 0.39661  0.84280  0.13407  Biso   1.000  C
  C2       1.0000 0.10339  0.34280  0.36593  Biso   1.000  C
  C3       1.0000 0.60339  0.15720  0.86593  Biso   1.000  C
  C4       1.0000 0.89661  0.65720  0.63407  Biso   1.000  C
  C5       1.0000 0.63056  0.39930  0.32214  Biso   1.000  C
  C6       1.0000 0.86944  0.89930  0.17786  Biso   1.000  C
  C7       1.0000 0.36944  0.60070  0.67786  Biso   1.000  C
  C8       1.0000 0.13056  0.10070  0.82214  Biso   1.000  C
  H1       1.0000 0.60350  0.53380  0.33330  Biso   1.000  H
  H2       1.0000 0.89650  0.03380  0.16670  Biso   1.000  H
  H3       1.0000 0.39650  0.46620  0.66670  Biso   1.000  H
  H4       1.0000 0.10350  0.96620  0.83330  Biso   1.000  H
  C9       1.0000 0.72367  0.34810  0.36944  Biso   1.000  C
  C10      1.0000 0.77633  0.84810  0.13056  Biso   1.000  C
  C11      1.0000 0.27633  0.65190  0.63056  Biso   1.000  C
  C12      1.0000 0.22367  0.15190  0.86944  Biso   1.000  C
  H5       1.0000 0.75840  0.44520  0.41210  Biso   1.000  H
  H6       1.0000 0.74160  0.94520  0.08790  Biso   1.000  H
  H7       1.0000 0.24160  0.55480  0.58790  Biso   1.000  H
  H8       1.0000 0.25840  0.05480  0.91210  Biso   1.000  H
  C13      1.0000 0.76598  0.15450  0.35418  Biso   1.000  C
  C14      1.0000 0.73402  0.65450  0.14582  Biso   1.000  C
  C15      1.0000 0.23402  0.84550  0.64582  Biso   1.000  C
  C16      1.0000 0.26598  0.34550  0.85418  Biso   1.000  C
  C17      1.0000 0.70916  0.01600  0.29242  Biso   1.000  C
  C18      1.0000 0.79084  0.51600  0.20758  Biso   1.000  C
  C19      1.0000 0.29084  0.98400  0.70758  Biso   1.000  C
  C20      1.0000 0.20916  0.48400  0.79242  Biso   1.000  C
  H9       1.0000 0.73400  0.87880  0.28070  Biso   1.000  H
  H10      1.0000 0.76600  0.37880  0.21930  Biso   1.000  H
  H11      1.0000 0.26600  0.12120  0.71930  Biso   1.000  H
  H12      1.0000 0.23400  0.62120  0.78070  Biso   1.000  H
  C21      1.0000 0.61686  0.07810  0.24833  Biso   1.000  C
  C22      1.0000 0.88314  0.57810  0.25167  Biso   1.000  C
  C23      1.0000 0.38314  0.92190  0.75167  Biso   1.000  C
  C24      1.0000 0.11686  0.42190  0.74833  Biso   1.000  C
  H13      1.0000 0.57990  0.98090  0.20650  Biso   1.000  H
  H14      1.0000 0.92010  0.48090  0.29350  Biso   1.000  H
  H15      1.0000 0.42010  0.01910  0.79350  Biso   1.000  H
  H16      1.0000 0.07990  0.51910  0.70650  Biso   1.000  H
  C25      1.0000 0.86954  0.10240  0.39886  Biso   1.000  C
  C26      1.0000 0.63046  0.60240  0.10114  Biso   1.000  C
  C27      1.0000 0.13046  0.89760  0.60114  Biso   1.000  C
  C28      1.0000 0.36954  0.39760  0.89886  Biso   1.000  C
  H17      1.0000 0.89660  0.21750  0.44090  Biso   1.000  H
  H18      1.0000 0.60340  0.71750  0.05910  Biso   1.000  H
  H19      1.0000 0.10340  0.78250  0.55910  Biso   1.000  H
  H20      1.0000 0.39660  0.28250  0.94090  Biso   1.000  H
  H21      1.0000 0.90280  0.11680  0.36260  Biso   1.000  H
  H22      1.0000 0.59720  0.61680  0.13740  Biso   1.000  H
  H23      1.0000 0.09720  0.88320  0.63740  Biso   1.000  H
  H24      1.0000 0.40280  0.38320  0.86260  Biso   1.000  H
  C29      1.0000 0.88807  0.86560  0.43556  Biso   1.000  C
  C30      1.0000 0.61193  0.36560  0.06444  Biso   1.000  C
  C31      1.0000 0.11193  0.13440  0.56444  Biso   1.000  C
  C32      1.0000 0.38807  0.63440  0.93556  Biso   1.000  C
  H25      1.0000 0.86420  0.85780  0.47770  Biso   1.000  H
  H26      1.0000 0.63580  0.35780  0.02230  Biso   1.000  H
  H27      1.0000 0.13580  0.14220  0.52230  Biso   1.000  H
  H28      1.0000 0.36420  0.64220  0.97770  Biso   1.000  H
  H29      1.0000 0.95620  0.83530  0.45730  Biso   1.000  H
  H30      1.0000 0.54380  0.33530  0.04270  Biso   1.000  H
  H31      1.0000 0.04380  0.16470  0.54270  Biso   1.000  H
  H32      1.0000 0.45620  0.66470  0.95730  Biso   1.000  H
  H33      1.0000 0.85570  0.75130  0.39530  Biso   1.000  H
  H34      1.0000 0.64430  0.25130  0.10470  Biso   1.000  H
  H35      1.0000 0.14430  0.24870  0.60470  Biso   1.000  H
  H36      1.0000 0.35570  0.74870  0.89530  Biso   1.000  H
  C33      1.0000 0.39723  0.43540  0.34112  Biso   1.000  C
  C34      1.0000 0.10277  0.93540  0.15888  Biso   1.000  C
  C35      1.0000 0.60277  0.56460  0.65888  Biso   1.000  C
  C36      1.0000 0.89723  0.06460  0.84112  Biso   1.000  C
  H37      1.0000 0.42340  0.57900  0.33660  Biso   1.000  H
  H38      1.0000 0.07660  0.07900  0.16340  Biso   1.000  H
  H39      1.0000 0.57660  0.42100  0.66340  Biso   1.000  H
  H40      1.0000 0.92340  0.92100  0.83660  Biso   1.000  H
  C37      1.0000 0.37750  0.39460  0.40701  Biso   1.000  C
  C38      1.0000 0.12250  0.89460  0.09299  Biso   1.000  C
  C39      1.0000 0.62250  0.60540  0.59299  Biso   1.000  C
  C40      1.0000 0.87750  0.10540  0.90701  Biso   1.000  C
  H41      1.0000 0.39070  0.50820  0.44660  Biso   1.000  H
  H42      1.0000 0.10930  0.00820  0.05340  Biso   1.000  H
  H43      1.0000 0.60930  0.49180  0.55340  Biso   1.000  H
  H44      1.0000 0.89070  0.99180  0.94660  Biso   1.000  H
  C41      1.0000 0.33837  0.18690  0.41530  Biso   1.000  C
  C42      1.0000 0.16163  0.68690  0.08470  Biso   1.000  C
  C43      1.0000 0.66163  0.81310  0.58470  Biso   1.000  C
  C44      1.0000 0.83837  0.31310  0.91530  Biso   1.000  C
  C45      1.0000 0.31890  0.03090  0.35418  Biso   1.000  C
  C46      1.0000 0.18110  0.53090  0.14582  Biso   1.000  C
  C47      1.0000 0.68110  0.96910  0.64582  Biso   1.000  C
  C48      1.0000 0.81890  0.46910  0.85418  Biso   1.000  C
  H45      1.0000 0.29020  0.88870  0.35620  Biso   1.000  H
  H46      1.0000 0.20980  0.38870  0.14380  Biso   1.000  H
  H47      1.0000 0.70980  0.11130  0.64380  Biso   1.000  H
  H48      1.0000 0.79020  0.61130  0.85620  Biso   1.000  H
  C49      1.0000 0.34159  0.08410  0.29024  Biso   1.000  C
  C50      1.0000 0.15841  0.58410  0.20976  Biso   1.000  C
  C51      1.0000 0.65841  0.91590  0.70976  Biso   1.000  C
  C52      1.0000 0.84159  0.41590  0.79024  Biso   1.000  C
  H49      1.0000 0.32830  0.97430  0.24950  Biso   1.000  H
  H50      1.0000 0.17170  0.47430  0.25050  Biso   1.000  H
  H51      1.0000 0.67170  0.02570  0.75050  Biso   1.000  H
  H52      1.0000 0.82830  0.52570  0.74950  Biso   1.000  H
  C53      1.0000 0.32128  0.13030  0.48819  Biso   1.000  C
  C54      1.0000 0.17872  0.63030  0.01181  Biso   1.000  C
  C55      1.0000 0.67872  0.86970  0.51181  Biso   1.000  C
  C56      1.0000 0.82128  0.36970  0.98819  Biso   1.000  C
  H53      1.0000 0.27430  0.00540  0.47650  Biso   1.000  H
  H54      1.0000 0.22570  0.50540  0.02350  Biso   1.000  H
  H55      1.0000 0.72570  0.99460  0.52350  Biso   1.000  H
  H56      1.0000 0.77430  0.49460  0.97650  Biso   1.000  H
  H57      1.0000 0.29480  0.26560  0.50460  Biso   1.000  H
  H58      1.0000 0.20520  0.76560  0.99540  Biso   1.000  H
  H59      1.0000 0.70520  0.73440  0.49540  Biso   1.000  H
  H60      1.0000 0.79480  0.23440  0.00460  Biso   1.000  H
  C57      1.0000 0.41232  0.05760  0.55518  Biso   1.000  C
  C58      1.0000 0.08768  0.55760  0.94482  Biso   1.000  C
  C59      1.0000 0.58768  0.94240  0.44482  Biso   1.000  C
  C60      1.0000 0.91232  0.44240  0.05518  Biso   1.000  C
  H61      1.0000 0.43580  0.91620  0.54080  Biso   1.000  H
  H62      1.0000 0.06420  0.41620  0.95920  Biso   1.000  H
  H63      1.0000 0.56420  0.08380  0.45920  Biso   1.000  H
  H64      1.0000 0.93580  0.58380  0.04080  Biso   1.000  H
  H65      1.0000 0.39980  0.03200  0.60270  Biso   1.000  H
  H66      1.0000 0.10020  0.53200  0.89730  Biso   1.000  H
  H67      1.0000 0.60020  0.96800  0.39730  Biso   1.000  H
  H68      1.0000 0.89980  0.46800  0.10270  Biso   1.000  H
  H69      1.0000 0.46000  0.17800  0.56510  Biso   1.000  H
  H70      1.0000 0.04000  0.67800  0.93490  Biso   1.000  H
  H71      1.0000 0.54000  0.82200  0.43490  Biso   1.000  H
  H72      1.0000 0.96000  0.32200  0.06510  Biso   1.000  H
