data_image0
_cell_length_a       11.5188
_cell_length_b       17.8699
_cell_length_c       5.6997
_cell_angle_alpha    90
_cell_angle_beta     90
_cell_angle_gamma    90

_symmetry_space_group_name_H-M    "P 1"
_symmetry_int_tables_number       1

loop_
  _symmetry_equiv_pos_as_xyz
  'x, y, z'

loop_
  _atom_site_label
  _atom_site_occupancy
  _atom_site_fract_x
  _atom_site_fract_y
  _atom_site_fract_z
  _atom_site_thermal_displace_type
  _atom_site_B_iso_or_equiv
  _atom_site_type_symbol
  Cu1      1.0000 0.33040  0.75000  0.11392  Biso   1.000  Cu
  Cu2      1.0000 0.16960  0.25000  0.61392  Biso   1.000  Cu
  Cu3      1.0000 0.66960  0.25000  0.88608  Biso   1.000  Cu
  Cu4      1.0000 0.83040  0.75000  0.38608  Biso   1.000  Cu
  S1       1.0000 0.15711  0.75000  0.86742  Biso   1.000  S
  S2       1.0000 0.34289  0.25000  0.36742  Biso   1.000  S
  S3       1.0000 0.84289  0.25000  0.13258  Biso   1.000  S
  S4       1.0000 0.65711  0.75000  0.63258  Biso   1.000  S
  O1       1.0000 0.40005  0.53272  0.28082  Biso   1.000  O
  O2       1.0000 0.09995  0.46728  0.78082  Biso   1.000  O
  O3       1.0000 0.59995  0.03272  0.71918  Biso   1.000  O
  O4       1.0000 0.90005  0.96728  0.21918  Biso   1.000  O
  O5       1.0000 0.59995  0.46728  0.71918  Biso   1.000  O
  O6       1.0000 0.90005  0.53272  0.21918  Biso   1.000  O
  O7       1.0000 0.40005  0.96728  0.28082  Biso   1.000  O
  O8       1.0000 0.09995  0.03272  0.78082  Biso   1.000  O
  N1       1.0000 0.27825  0.75000  0.43750  Biso   1.000  N
  N2       1.0000 0.22175  0.25000  0.93750  Biso   1.000  N
  N3       1.0000 0.72175  0.25000  0.56250  Biso   1.000  N
  N4       1.0000 0.77825  0.75000  0.06250  Biso   1.000  N
  N5       1.0000 0.42722  0.65827  0.97370  Biso   1.000  N
  N6       1.0000 0.07278  0.34173  0.47370  Biso   1.000  N
  N7       1.0000 0.57278  0.15827  0.02630  Biso   1.000  N
  N8       1.0000 0.92722  0.84173  0.52630  Biso   1.000  N
  N9       1.0000 0.57278  0.34173  0.02630  Biso   1.000  N
  N10      1.0000 0.92722  0.65827  0.52630  Biso   1.000  N
  N11      1.0000 0.42722  0.84173  0.97370  Biso   1.000  N
  N12      1.0000 0.07278  0.15827  0.47370  Biso   1.000  N
  H1       1.0000 0.46110  0.67540  0.83570  Biso   1.000  H
  H2       1.0000 0.03890  0.32460  0.33570  Biso   1.000  H
  H3       1.0000 0.53890  0.17540  0.16430  Biso   1.000  H
  H4       1.0000 0.96110  0.82460  0.66430  Biso   1.000  H
  H5       1.0000 0.53890  0.32460  0.16430  Biso   1.000  H
  H6       1.0000 0.96110  0.67540  0.66430  Biso   1.000  H
  H7       1.0000 0.46110  0.82460  0.83570  Biso   1.000  H
  H8       1.0000 0.03890  0.17540  0.33570  Biso   1.000  H
  C1       1.0000 0.22901  0.75000  0.61560  Biso   1.000  C
  C2       1.0000 0.27099  0.25000  0.11560  Biso   1.000  C
  C3       1.0000 0.77099  0.25000  0.38440  Biso   1.000  C
  C4       1.0000 0.72901  0.75000  0.88440  Biso   1.000  C
  C5       1.0000 0.52362  0.63148  0.12470  Biso   1.000  C
  C6       1.0000 0.97638  0.36852  0.62470  Biso   1.000  C
  C7       1.0000 0.47638  0.13148  0.87530  Biso   1.000  C
  C8       1.0000 0.02362  0.86852  0.37530  Biso   1.000  C
  C9       1.0000 0.47638  0.36852  0.87530  Biso   1.000  C
  C10      1.0000 0.02362  0.63148  0.37530  Biso   1.000  C
  C11      1.0000 0.52362  0.86852  0.12470  Biso   1.000  C
  C12      1.0000 0.97638  0.13148  0.62470  Biso   1.000  C
  H9       1.0000 0.57340  0.67420  0.17090  Biso   1.000  H
  H10      1.0000 0.92660  0.32580  0.67090  Biso   1.000  H
  H11      1.0000 0.42660  0.17420  0.82910  Biso   1.000  H
  H12      1.0000 0.07340  0.82580  0.32910  Biso   1.000  H
  H13      1.0000 0.42660  0.32580  0.82910  Biso   1.000  H
  H14      1.0000 0.07340  0.67420  0.32910  Biso   1.000  H
  H15      1.0000 0.57340  0.82580  0.17090  Biso   1.000  H
  H16      1.0000 0.92660  0.17420  0.67090  Biso   1.000  H
  H17      1.0000 0.57190  0.59520  0.03700  Biso   1.000  H
  H18      1.0000 0.92810  0.40480  0.53700  Biso   1.000  H
  H19      1.0000 0.42810  0.09520  0.96300  Biso   1.000  H
  H20      1.0000 0.07190  0.90480  0.46300  Biso   1.000  H
  H21      1.0000 0.42810  0.40480  0.96300  Biso   1.000  H
  H22      1.0000 0.07190  0.59520  0.46300  Biso   1.000  H
  H23      1.0000 0.57190  0.90480  0.03700  Biso   1.000  H
  H24      1.0000 0.92810  0.09520  0.53700  Biso   1.000  H
  C13      1.0000 0.47368  0.59459  0.34090  Biso   1.000  C
  C14      1.0000 0.02632  0.40541  0.84090  Biso   1.000  C
  C15      1.0000 0.52632  0.09459  0.65910  Biso   1.000  C
  C16      1.0000 0.97368  0.90541  0.15910  Biso   1.000  C
  C17      1.0000 0.52632  0.40541  0.65910  Biso   1.000  C
  C18      1.0000 0.97368  0.59459  0.15910  Biso   1.000  C
  C19      1.0000 0.47368  0.90541  0.34090  Biso   1.000  C
  C20      1.0000 0.02632  0.09459  0.84090  Biso   1.000  C
  H25      1.0000 0.53780  0.57670  0.44190  Biso   1.000  H
  H26      1.0000 0.96220  0.42330  0.94190  Biso   1.000  H
  H27      1.0000 0.46220  0.07670  0.55810  Biso   1.000  H
  H28      1.0000 0.03780  0.92330  0.05810  Biso   1.000  H
  H29      1.0000 0.46220  0.42330  0.55810  Biso   1.000  H
  H30      1.0000 0.03780  0.57670  0.05810  Biso   1.000  H
  H31      1.0000 0.53780  0.92330  0.44190  Biso   1.000  H
  H32      1.0000 0.96220  0.07670  0.94190  Biso   1.000  H
  H33      1.0000 0.42840  0.63190  0.43120  Biso   1.000  H
  H34      1.0000 0.07160  0.36810  0.93120  Biso   1.000  H
  H35      1.0000 0.57160  0.13190  0.56880  Biso   1.000  H
  H36      1.0000 0.92840  0.86810  0.06880  Biso   1.000  H
  H37      1.0000 0.57160  0.36810  0.56880  Biso   1.000  H
  H38      1.0000 0.92840  0.63190  0.06880  Biso   1.000  H
  H39      1.0000 0.42840  0.86810  0.43120  Biso   1.000  H
  H40      1.0000 0.07160  0.13190  0.93120  Biso   1.000  H
  C21      1.0000 0.30829  0.55729  0.13030  Biso   1.000  C
  C22      1.0000 0.19171  0.44271  0.63030  Biso   1.000  C
  C23      1.0000 0.69171  0.05729  0.86970  Biso   1.000  C
  C24      1.0000 0.80829  0.94271  0.36970  Biso   1.000  C
  C25      1.0000 0.69171  0.44271  0.86970  Biso   1.000  C
  C26      1.0000 0.80829  0.55729  0.36970  Biso   1.000  C
  C27      1.0000 0.30829  0.94271  0.13030  Biso   1.000  C
  C28      1.0000 0.19171  0.05729  0.63030  Biso   1.000  C
  H41      1.0000 0.25970  0.59420  0.21460  Biso   1.000  H
  H42      1.0000 0.24030  0.40580  0.71460  Biso   1.000  H
  H43      1.0000 0.74030  0.09420  0.78540  Biso   1.000  H
  H44      1.0000 0.75970  0.90580  0.28540  Biso   1.000  H
  H45      1.0000 0.74030  0.40580  0.78540  Biso   1.000  H
  H46      1.0000 0.75970  0.59420  0.28540  Biso   1.000  H
  H47      1.0000 0.25970  0.90580  0.21460  Biso   1.000  H
  H48      1.0000 0.24030  0.09420  0.71460  Biso   1.000  H
  H49      1.0000 0.25860  0.51410  0.08880  Biso   1.000  H
  H50      1.0000 0.24140  0.48590  0.58880  Biso   1.000  H
  H51      1.0000 0.74140  0.01410  0.91120  Biso   1.000  H
  H52      1.0000 0.75860  0.98590  0.41120  Biso   1.000  H
  H53      1.0000 0.74140  0.48590  0.91120  Biso   1.000  H
  H54      1.0000 0.75860  0.51410  0.41120  Biso   1.000  H
  H55      1.0000 0.25860  0.98590  0.08880  Biso   1.000  H
  H56      1.0000 0.24140  0.01410  0.58880  Biso   1.000  H
  C29      1.0000 0.35546  0.59243  0.90860  Biso   1.000  C
  C30      1.0000 0.14454  0.40757  0.40860  Biso   1.000  C
  C31      1.0000 0.64454  0.09243  0.09140  Biso   1.000  C
  C32      1.0000 0.85546  0.90757  0.59140  Biso   1.000  C
  C33      1.0000 0.64454  0.40757  0.09140  Biso   1.000  C
  C34      1.0000 0.85546  0.59243  0.59140  Biso   1.000  C
  C35      1.0000 0.35546  0.90757  0.90860  Biso   1.000  C
  C36      1.0000 0.14454  0.09243  0.40860  Biso   1.000  C
  H57      1.0000 0.40330  0.55560  0.82180  Biso   1.000  H
  H58      1.0000 0.09670  0.44440  0.32180  Biso   1.000  H
  H59      1.0000 0.59670  0.05560  0.17820  Biso   1.000  H
  H60      1.0000 0.90330  0.94440  0.67820  Biso   1.000  H
  H61      1.0000 0.59670  0.44440  0.17820  Biso   1.000  H
  H62      1.0000 0.90330  0.55560  0.67820  Biso   1.000  H
  H63      1.0000 0.40330  0.94440  0.82180  Biso   1.000  H
  H64      1.0000 0.09670  0.05560  0.32180  Biso   1.000  H
  H65      1.0000 0.29060  0.60830  0.80590  Biso   1.000  H
  H66      1.0000 0.20940  0.39170  0.30590  Biso   1.000  H
  H67      1.0000 0.70940  0.10830  0.19410  Biso   1.000  H
  H68      1.0000 0.79060  0.89170  0.69410  Biso   1.000  H
  H69      1.0000 0.70940  0.39170  0.19410  Biso   1.000  H
  H70      1.0000 0.79060  0.60830  0.69410  Biso   1.000  H
  H71      1.0000 0.29060  0.89170  0.80590  Biso   1.000  H
  H72      1.0000 0.20940  0.10830  0.30590  Biso   1.000  H
