data_image0
_cell_length_a       6.8133
_cell_length_b       10.6817
_cell_length_c       23.2105
_cell_angle_alpha    90
_cell_angle_beta     90
_cell_angle_gamma    90

_symmetry_space_group_name_H-M    "P 1"
_symmetry_int_tables_number       1

loop_
  _symmetry_equiv_pos_as_xyz
  'x, y, z'

loop_
  _atom_site_label
  _atom_site_occupancy
  _atom_site_fract_x
  _atom_site_fract_y
  _atom_site_fract_z
  _atom_site_thermal_displace_type
  _atom_site_B_iso_or_equiv
  _atom_site_type_symbol
  Cu1      1.0000 0.10924  0.89009  0.30036  Biso   1.000  Cu
  Cu2      1.0000 0.39076  0.10991  0.80036  Biso   1.000  Cu
  Cu3      1.0000 0.89076  0.39009  0.19964  Biso   1.000  Cu
  Cu4      1.0000 0.60924  0.60991  0.69964  Biso   1.000  Cu
  Cu5      1.0000 0.89076  0.10991  0.69964  Biso   1.000  Cu
  Cu6      1.0000 0.60924  0.89009  0.19964  Biso   1.000  Cu
  Cu7      1.0000 0.10924  0.60991  0.80036  Biso   1.000  Cu
  Cu8      1.0000 0.39076  0.39009  0.30036  Biso   1.000  Cu
  S1       1.0000 0.94132  0.94660  0.21470  Biso   1.000  S
  S2       1.0000 0.55868  0.05340  0.71470  Biso   1.000  S
  S3       1.0000 0.05868  0.44660  0.28530  Biso   1.000  S
  S4       1.0000 0.44132  0.55340  0.78530  Biso   1.000  S
  S5       1.0000 0.05868  0.05340  0.78530  Biso   1.000  S
  S6       1.0000 0.44132  0.94660  0.28530  Biso   1.000  S
  S7       1.0000 0.94132  0.55340  0.71470  Biso   1.000  S
  S8       1.0000 0.55868  0.44660  0.21470  Biso   1.000  S
  O1       1.0000 0.10290  0.82904  0.47135  Biso   1.000  O
  O2       1.0000 0.39710  0.17096  0.97135  Biso   1.000  O
  O3       1.0000 0.89710  0.32904  0.02865  Biso   1.000  O
  O4       1.0000 0.60290  0.67096  0.52865  Biso   1.000  O
  O5       1.0000 0.89710  0.17096  0.52865  Biso   1.000  O
  O6       1.0000 0.60290  0.82904  0.02865  Biso   1.000  O
  O7       1.0000 0.10290  0.67096  0.97135  Biso   1.000  O
  O8       1.0000 0.39710  0.32904  0.47135  Biso   1.000  O
  N1       1.0000 0.92070  0.20932  0.20414  Biso   1.000  N
  N2       1.0000 0.57930  0.79068  0.70414  Biso   1.000  N
  N3       1.0000 0.07930  0.70932  0.29586  Biso   1.000  N
  N4       1.0000 0.42070  0.29068  0.79586  Biso   1.000  N
  N5       1.0000 0.07930  0.79068  0.79586  Biso   1.000  N
  N6       1.0000 0.42070  0.20932  0.29586  Biso   1.000  N
  N7       1.0000 0.92070  0.29068  0.70414  Biso   1.000  N
  N8       1.0000 0.57930  0.70932  0.20414  Biso   1.000  N
  N9       1.0000 0.01770  0.99108  0.37468  Biso   1.000  N
  N10      1.0000 0.48230  0.00892  0.87468  Biso   1.000  N
  N11      1.0000 0.98230  0.49108  0.12532  Biso   1.000  N
  N12      1.0000 0.51770  0.50892  0.62532  Biso   1.000  N
  N13      1.0000 0.98230  0.00892  0.62532  Biso   1.000  N
  N14      1.0000 0.51770  0.99108  0.12532  Biso   1.000  N
  N15      1.0000 0.01770  0.50892  0.87468  Biso   1.000  N
  N16      1.0000 0.48230  0.49108  0.37468  Biso   1.000  N
  C1       1.0000 0.92960  0.10144  0.20959  Biso   1.000  C
  C2       1.0000 0.57040  0.89856  0.70959  Biso   1.000  C
  C3       1.0000 0.07040  0.60144  0.29041  Biso   1.000  C
  C4       1.0000 0.42960  0.39856  0.79041  Biso   1.000  C
  C5       1.0000 0.07040  0.89856  0.79041  Biso   1.000  C
  C6       1.0000 0.42960  0.10144  0.29041  Biso   1.000  C
  C7       1.0000 0.92960  0.39856  0.70959  Biso   1.000  C
  C8       1.0000 0.57040  0.60144  0.20959  Biso   1.000  C
  C9       1.0000 0.18200  0.01435  0.41527  Biso   1.000  C
  C10      1.0000 0.31800  0.98565  0.91527  Biso   1.000  C
  C11      1.0000 0.81800  0.51435  0.08473  Biso   1.000  C
  C12      1.0000 0.68200  0.48565  0.58473  Biso   1.000  C
  C13      1.0000 0.81800  0.98565  0.58473  Biso   1.000  C
  C14      1.0000 0.68200  0.01435  0.08473  Biso   1.000  C
  C15      1.0000 0.18200  0.48565  0.91527  Biso   1.000  C
  C16      1.0000 0.31800  0.51435  0.41527  Biso   1.000  C
  H1       1.0000 0.13700  0.06980  0.44680  Biso   1.000  H
  H2       1.0000 0.36300  0.93020  0.94680  Biso   1.000  H
  H3       1.0000 0.86300  0.56980  0.05320  Biso   1.000  H
  H4       1.0000 0.63700  0.43020  0.55320  Biso   1.000  H
  H5       1.0000 0.86300  0.93020  0.55320  Biso   1.000  H
  H6       1.0000 0.63700  0.06980  0.05320  Biso   1.000  H
  H7       1.0000 0.13700  0.43020  0.94680  Biso   1.000  H
  H8       1.0000 0.36300  0.56980  0.44680  Biso   1.000  H
  H9       1.0000 0.29060  0.05690  0.39480  Biso   1.000  H
  H10      1.0000 0.20940  0.94310  0.89480  Biso   1.000  H
  H11      1.0000 0.70940  0.55690  0.10520  Biso   1.000  H
  H12      1.0000 0.79060  0.44310  0.60520  Biso   1.000  H
  H13      1.0000 0.70940  0.94310  0.60520  Biso   1.000  H
  H14      1.0000 0.79060  0.05690  0.10520  Biso   1.000  H
  H15      1.0000 0.29060  0.44310  0.89480  Biso   1.000  H
  H16      1.0000 0.20940  0.55690  0.39480  Biso   1.000  H
  C17      1.0000 0.25460  0.89151  0.44018  Biso   1.000  C
  C18      1.0000 0.24540  0.10849  0.94018  Biso   1.000  C
  C19      1.0000 0.74540  0.39151  0.05982  Biso   1.000  C
  C20      1.0000 0.75460  0.60849  0.55982  Biso   1.000  C
  C21      1.0000 0.74540  0.10849  0.55982  Biso   1.000  C
  C22      1.0000 0.75460  0.89151  0.05982  Biso   1.000  C
  C23      1.0000 0.25460  0.60849  0.94018  Biso   1.000  C
  C24      1.0000 0.24540  0.39151  0.44018  Biso   1.000  C
  H17      1.0000 0.30110  0.83680  0.40860  Biso   1.000  H
  H18      1.0000 0.19890  0.16320  0.90860  Biso   1.000  H
  H19      1.0000 0.69890  0.33680  0.09140  Biso   1.000  H
  H20      1.0000 0.80110  0.66320  0.59140  Biso   1.000  H
  H21      1.0000 0.69890  0.16320  0.59140  Biso   1.000  H
  H22      1.0000 0.80110  0.83680  0.09140  Biso   1.000  H
  H23      1.0000 0.30110  0.66320  0.90860  Biso   1.000  H
  H24      1.0000 0.19890  0.33680  0.40860  Biso   1.000  H
  H25      1.0000 0.36680  0.90780  0.46620  Biso   1.000  H
  H26      1.0000 0.13320  0.09220  0.96620  Biso   1.000  H
  H27      1.0000 0.63320  0.40780  0.03380  Biso   1.000  H
  H28      1.0000 0.86680  0.59220  0.53380  Biso   1.000  H
  H29      1.0000 0.63320  0.09220  0.53380  Biso   1.000  H
  H30      1.0000 0.86680  0.90780  0.03380  Biso   1.000  H
  H31      1.0000 0.36680  0.59220  0.96620  Biso   1.000  H
  H32      1.0000 0.13320  0.40780  0.46620  Biso   1.000  H
  C25      1.0000 0.93970  0.80564  0.43421  Biso   1.000  C
  C26      1.0000 0.56030  0.19436  0.93421  Biso   1.000  C
  C27      1.0000 0.06030  0.30564  0.06579  Biso   1.000  C
  C28      1.0000 0.43970  0.69436  0.56579  Biso   1.000  C
  C29      1.0000 0.06030  0.19436  0.56579  Biso   1.000  C
  C30      1.0000 0.43970  0.80564  0.06579  Biso   1.000  C
  C31      1.0000 0.93970  0.69436  0.93421  Biso   1.000  C
  C32      1.0000 0.56030  0.30564  0.43421  Biso   1.000  C
  H33      1.0000 0.83360  0.76490  0.45650  Biso   1.000  H
  H34      1.0000 0.66640  0.23510  0.95650  Biso   1.000  H
  H35      1.0000 0.16640  0.26490  0.04350  Biso   1.000  H
  H36      1.0000 0.33360  0.73510  0.54350  Biso   1.000  H
  H37      1.0000 0.16640  0.23510  0.54350  Biso   1.000  H
  H38      1.0000 0.33360  0.76490  0.04350  Biso   1.000  H
  H39      1.0000 0.83360  0.73510  0.95650  Biso   1.000  H
  H40      1.0000 0.66640  0.26490  0.45650  Biso   1.000  H
  H41      1.0000 0.98040  0.74730  0.40330  Biso   1.000  H
  H42      1.0000 0.51960  0.25270  0.90330  Biso   1.000  H
  H43      1.0000 0.01960  0.24730  0.09670  Biso   1.000  H
  H44      1.0000 0.48040  0.75270  0.59670  Biso   1.000  H
  H45      1.0000 0.01960  0.25270  0.59670  Biso   1.000  H
  H46      1.0000 0.48040  0.74730  0.09670  Biso   1.000  H
  H47      1.0000 0.98040  0.75270  0.90330  Biso   1.000  H
  H48      1.0000 0.51960  0.24730  0.40330  Biso   1.000  H
  C33      1.0000 0.86160  0.92534  0.40730  Biso   1.000  C
  C34      1.0000 0.63840  0.07466  0.90730  Biso   1.000  C
  C35      1.0000 0.13840  0.42534  0.09270  Biso   1.000  C
  C36      1.0000 0.36160  0.57466  0.59270  Biso   1.000  C
  C37      1.0000 0.13840  0.07466  0.59270  Biso   1.000  C
  C38      1.0000 0.36160  0.92534  0.09270  Biso   1.000  C
  C39      1.0000 0.86160  0.57466  0.90730  Biso   1.000  C
  C40      1.0000 0.63840  0.42534  0.40730  Biso   1.000  C
  H49      1.0000 0.75160  0.90500  0.38110  Biso   1.000  H
  H50      1.0000 0.74840  0.09500  0.88110  Biso   1.000  H
  H51      1.0000 0.24840  0.40500  0.11890  Biso   1.000  H
  H52      1.0000 0.25160  0.59500  0.61890  Biso   1.000  H
  H53      1.0000 0.24840  0.09500  0.61890  Biso   1.000  H
  H54      1.0000 0.25160  0.90500  0.11890  Biso   1.000  H
  H55      1.0000 0.75160  0.59500  0.88110  Biso   1.000  H
  H56      1.0000 0.74840  0.40500  0.38110  Biso   1.000  H
  H57      1.0000 0.81080  0.98110  0.43790  Biso   1.000  H
  H58      1.0000 0.68920  0.01890  0.93790  Biso   1.000  H
  H59      1.0000 0.18920  0.48110  0.06210  Biso   1.000  H
  H60      1.0000 0.31080  0.51890  0.56210  Biso   1.000  H
  H61      1.0000 0.18920  0.01890  0.56210  Biso   1.000  H
  H62      1.0000 0.31080  0.98110  0.06210  Biso   1.000  H
  H63      1.0000 0.81080  0.51890  0.93790  Biso   1.000  H
  H64      1.0000 0.68920  0.48110  0.43790  Biso   1.000  H
  C41      1.0000 0.93980  0.11304  0.35490  Biso   1.000  C
  C42      1.0000 0.56020  0.88696  0.85490  Biso   1.000  C
  C43      1.0000 0.06020  0.61304  0.14510  Biso   1.000  C
  C44      1.0000 0.43980  0.38696  0.64510  Biso   1.000  C
  C45      1.0000 0.06020  0.88696  0.64510  Biso   1.000  C
  C46      1.0000 0.43980  0.11304  0.14510  Biso   1.000  C
  C47      1.0000 0.93980  0.38696  0.85490  Biso   1.000  C
  C48      1.0000 0.56020  0.61304  0.35490  Biso   1.000  C
  H65      1.0000 0.82600  0.09910  0.32990  Biso   1.000  H
  H66      1.0000 0.67400  0.90090  0.82990  Biso   1.000  H
  H67      1.0000 0.17400  0.59910  0.17010  Biso   1.000  H
  H68      1.0000 0.32600  0.40090  0.67010  Biso   1.000  H
  H69      1.0000 0.17400  0.90090  0.67010  Biso   1.000  H
  H70      1.0000 0.32600  0.09910  0.17010  Biso   1.000  H
  H71      1.0000 0.82600  0.40090  0.82990  Biso   1.000  H
  H72      1.0000 0.67400  0.59910  0.32990  Biso   1.000  H
  H73      1.0000 0.04180  0.15780  0.33340  Biso   1.000  H
  H74      1.0000 0.45820  0.84220  0.83340  Biso   1.000  H
  H75      1.0000 0.95820  0.65780  0.16660  Biso   1.000  H
  H76      1.0000 0.54180  0.34220  0.66660  Biso   1.000  H
  H77      1.0000 0.95820  0.84220  0.66660  Biso   1.000  H
  H78      1.0000 0.54180  0.15780  0.16660  Biso   1.000  H
  H79      1.0000 0.04180  0.34220  0.83340  Biso   1.000  H
  H80      1.0000 0.45820  0.65780  0.33340  Biso   1.000  H
  H81      1.0000 0.90020  0.16310  0.38830  Biso   1.000  H
  H82      1.0000 0.59980  0.83690  0.88830  Biso   1.000  H
  H83      1.0000 0.09980  0.66310  0.11170  Biso   1.000  H
  H84      1.0000 0.40020  0.33690  0.61170  Biso   1.000  H
  H85      1.0000 0.09980  0.83690  0.61170  Biso   1.000  H
  H86      1.0000 0.40020  0.16310  0.11170  Biso   1.000  H
  H87      1.0000 0.90020  0.33690  0.88830  Biso   1.000  H
  H88      1.0000 0.59980  0.66310  0.38830  Biso   1.000  H
