data_image0
_cell_length_a       8.4828
_cell_length_b       8.8988
_cell_length_c       17.862
_cell_angle_alpha    90
_cell_angle_beta     102.575
_cell_angle_gamma    90

_symmetry_space_group_name_H-M    "P 1"
_symmetry_int_tables_number       1

loop_
  _symmetry_equiv_pos_as_xyz
  'x, y, z'

loop_
  _atom_site_label
  _atom_site_occupancy
  _atom_site_fract_x
  _atom_site_fract_y
  _atom_site_fract_z
  _atom_site_thermal_displace_type
  _atom_site_B_iso_or_equiv
  _atom_site_type_symbol
  Cu1      1.0000 0.72541  0.62601  0.51190  Biso   1.000  Cu
  Cu2      1.0000 0.77459  0.62601  0.98810  Biso   1.000  Cu
  Cu3      1.0000 0.27459  0.37399  0.48810  Biso   1.000  Cu
  Cu4      1.0000 0.22541  0.37399  0.01190  Biso   1.000  Cu
  P1       1.0000 0.75291  0.99396  0.50693  Biso   1.000  P
  P2       1.0000 0.74709  0.99396  0.99307  Biso   1.000  P
  P3       1.0000 0.24709  0.00604  0.49307  Biso   1.000  P
  P4       1.0000 0.25291  0.00604  0.00693  Biso   1.000  P
  O1       1.0000 0.63590  0.87090  0.47960  Biso   1.000  O
  O2       1.0000 0.86410  0.87090  0.02040  Biso   1.000  O
  O3       1.0000 0.36410  0.12910  0.52040  Biso   1.000  O
  O4       1.0000 0.13590  0.12910  0.97960  Biso   1.000  O
  O5       1.0000 0.66900  0.11700  0.54470  Biso   1.000  O
  O6       1.0000 0.83100  0.11700  0.95530  Biso   1.000  O
  O7       1.0000 0.33100  0.88300  0.45530  Biso   1.000  O
  O8       1.0000 0.16900  0.88300  0.04470  Biso   1.000  O
  H1       1.0000 0.58610  0.08310  0.55460  Biso   1.000  H
  H2       1.0000 0.91390  0.08310  0.94540  Biso   1.000  H
  H3       1.0000 0.41390  0.91690  0.44540  Biso   1.000  H
  H4       1.0000 0.08610  0.91690  0.05460  Biso   1.000  H
  O9       1.0000 0.89140  0.93530  0.56980  Biso   1.000  O
  O10      1.0000 0.60860  0.93530  0.93020  Biso   1.000  O
  O11      1.0000 0.10860  0.06470  0.43020  Biso   1.000  O
  O12      1.0000 0.39140  0.06470  0.06980  Biso   1.000  O
  H5       1.0000 0.97770  0.96550  0.56190  Biso   1.000  H
  H6       1.0000 0.52230  0.96550  0.93810  Biso   1.000  H
  H7       1.0000 0.02230  0.03450  0.43810  Biso   1.000  H
  H8       1.0000 0.47770  0.03450  0.06190  Biso   1.000  H
  O13      1.0000 0.82080  0.06290  0.44360  Biso   1.000  O
  O14      1.0000 0.67920  0.06290  0.05640  Biso   1.000  O
  O15      1.0000 0.17920  0.93710  0.55640  Biso   1.000  O
  O16      1.0000 0.32080  0.93710  0.94360  Biso   1.000  O
  N1       1.0000 0.82950  0.57410  0.43072  Biso   1.000  N
  N2       1.0000 0.67050  0.57410  0.06928  Biso   1.000  N
  N3       1.0000 0.17050  0.42590  0.56928  Biso   1.000  N
  N4       1.0000 0.32950  0.42590  0.93072  Biso   1.000  N
  N5       1.0000 0.13700  0.41020  0.10000  Biso   1.000  N
  N6       1.0000 0.36300  0.41020  0.40000  Biso   1.000  N
  N7       1.0000 0.86300  0.58980  0.90000  Biso   1.000  N
  N8       1.0000 0.63700  0.58980  0.60000  Biso   1.000  N
  C1       1.0000 0.90750  0.39670  0.34580  Biso   1.000  C
  C2       1.0000 0.59250  0.39670  0.15420  Biso   1.000  C
  C3       1.0000 0.09250  0.60330  0.65420  Biso   1.000  C
  C4       1.0000 0.40750  0.60330  0.84580  Biso   1.000  C
  H9       1.0000 0.91540  0.29600  0.33320  Biso   1.000  H
  H10      1.0000 0.58460  0.29600  0.16680  Biso   1.000  H
  H11      1.0000 0.08460  0.70400  0.66680  Biso   1.000  H
  H12      1.0000 0.41540  0.70400  0.83320  Biso   1.000  H
  C5       1.0000 0.84560  0.43490  0.40840  Biso   1.000  C
  C6       1.0000 0.65440  0.43490  0.09160  Biso   1.000  C
  C7       1.0000 0.15440  0.56510  0.59160  Biso   1.000  C
  C8       1.0000 0.34560  0.56510  0.90840  Biso   1.000  C
  H13      1.0000 0.81310  0.35760  0.43670  Biso   1.000  H
  H14      1.0000 0.68690  0.35760  0.06330  Biso   1.000  H
  H15      1.0000 0.18690  0.64240  0.56330  Biso   1.000  H
  H16      1.0000 0.31310  0.64240  0.93670  Biso   1.000  H
  C9       1.0000 0.88250  0.68130  0.38900  Biso   1.000  C
  C10      1.0000 0.61750  0.68130  0.11100  Biso   1.000  C
  C11      1.0000 0.11750  0.31870  0.61100  Biso   1.000  C
  C12      1.0000 0.38250  0.31870  0.88900  Biso   1.000  C
  H17      1.0000 0.87640  0.78090  0.40390  Biso   1.000  H
  H18      1.0000 0.62360  0.78090  0.09610  Biso   1.000  H
  H19      1.0000 0.12360  0.21910  0.59610  Biso   1.000  H
  H20      1.0000 0.37640  0.21910  0.90390  Biso   1.000  H
  C13      1.0000 0.94470  0.65240  0.32610  Biso   1.000  C
  C14      1.0000 0.55530  0.65240  0.17390  Biso   1.000  C
  C15      1.0000 0.05530  0.34760  0.67390  Biso   1.000  C
  C16      1.0000 0.44470  0.34760  0.82610  Biso   1.000  C
  H21      1.0000 0.97850  0.73150  0.29940  Biso   1.000  H
  H22      1.0000 0.52150  0.73150  0.20060  Biso   1.000  H
  H23      1.0000 0.02150  0.26850  0.70060  Biso   1.000  H
  H24      1.0000 0.47850  0.26850  0.79940  Biso   1.000  H
  C17      1.0000 0.95770  0.50530  0.30180  Biso   1.000  C
  C18      1.0000 0.54230  0.50530  0.19820  Biso   1.000  C
  C19      1.0000 0.04230  0.49470  0.69820  Biso   1.000  C
  C20      1.0000 0.45770  0.49470  0.80180  Biso   1.000  C
  C21      1.0000 0.02040  0.47310  0.23190  Biso   1.000  C
  C22      1.0000 0.47960  0.47310  0.26810  Biso   1.000  C
  C23      1.0000 0.97960  0.52690  0.76810  Biso   1.000  C
  C24      1.0000 0.52040  0.52690  0.73190  Biso   1.000  C
  C25      1.0000 0.06120  0.58650  0.18670  Biso   1.000  C
  C26      1.0000 0.43880  0.58650  0.31330  Biso   1.000  C
  C27      1.0000 0.93880  0.41350  0.81330  Biso   1.000  C
  C28      1.0000 0.56120  0.41350  0.68670  Biso   1.000  C
  H25      1.0000 0.05020  0.68650  0.19990  Biso   1.000  H
  H26      1.0000 0.44980  0.68650  0.30010  Biso   1.000  H
  H27      1.0000 0.94980  0.31350  0.80010  Biso   1.000  H
  H28      1.0000 0.55020  0.31350  0.69990  Biso   1.000  H
  C29      1.0000 0.11810  0.55210  0.12220  Biso   1.000  C
  C30      1.0000 0.38190  0.55210  0.37780  Biso   1.000  C
  C31      1.0000 0.88190  0.44790  0.87780  Biso   1.000  C
  C32      1.0000 0.61810  0.44790  0.62220  Biso   1.000  C
  H29      1.0000 0.14460  0.63040  0.09280  Biso   1.000  H
  H30      1.0000 0.35540  0.63040  0.40720  Biso   1.000  H
  H31      1.0000 0.85540  0.36960  0.90720  Biso   1.000  H
  H32      1.0000 0.64460  0.36960  0.59280  Biso   1.000  H
  C33      1.0000 0.09650  0.30000  0.14330  Biso   1.000  C
  C34      1.0000 0.40350  0.30000  0.35670  Biso   1.000  C
  C35      1.0000 0.90350  0.70000  0.85670  Biso   1.000  C
  C36      1.0000 0.59650  0.70000  0.64330  Biso   1.000  C
  H33      1.0000 0.10730  0.20080  0.12890  Biso   1.000  H
  H34      1.0000 0.39270  0.20080  0.37110  Biso   1.000  H
  H35      1.0000 0.89270  0.79920  0.87110  Biso   1.000  H
  H36      1.0000 0.60730  0.79920  0.62890  Biso   1.000  H
  C37      1.0000 0.03940  0.32830  0.20860  Biso   1.000  C
  C38      1.0000 0.46060  0.32830  0.29140  Biso   1.000  C
  C39      1.0000 0.96060  0.67170  0.79140  Biso   1.000  C
  C40      1.0000 0.53940  0.67170  0.70860  Biso   1.000  C
  H37      1.0000 0.01330  0.24830  0.23710  Biso   1.000  H
  H38      1.0000 0.48670  0.24830  0.26290  Biso   1.000  H
  H39      1.0000 0.98670  0.75170  0.76290  Biso   1.000  H
  H40      1.0000 0.51330  0.75170  0.73710  Biso   1.000  H
  O17      1.0000 0.95800  0.94900  0.20290  Biso   1.000  O
  O18      1.0000 0.54200  0.94900  0.29710  Biso   1.000  O
  O19      1.0000 0.04200  0.05100  0.79710  Biso   1.000  O
  O20      1.0000 0.45800  0.05100  0.70290  Biso   1.000  O
  O21      1.0000 0.75600  0.03500  0.21620  Biso   1.000  O
  O22      1.0000 0.74400  0.03500  0.28380  Biso   1.000  O
  O23      1.0000 0.24400  0.96500  0.78380  Biso   1.000  O
  O24      1.0000 0.25600  0.96500  0.71620  Biso   1.000  O
  O25      1.0000 0.85800  0.99100  0.20810  Biso   1.000  O
  O26      1.0000 0.64200  0.99100  0.29190  Biso   1.000  O
  O27      1.0000 0.14200  0.00900  0.79190  Biso   1.000  O
  O28      1.0000 0.35800  0.00900  0.70810  Biso   1.000  O
  O29      1.0000 0.20300  0.93000  0.27750  Biso   1.000  O
  O30      1.0000 0.29700  0.93000  0.22250  Biso   1.000  O
  O31      1.0000 0.79700  0.07000  0.72250  Biso   1.000  O
  O32      1.0000 0.70300  0.07000  0.77750  Biso   1.000  O
  O33      1.0000 0.09500  0.99700  0.28410  Biso   1.000  O
  O34      1.0000 0.40500  0.99700  0.21590  Biso   1.000  O
  O35      1.0000 0.90500  0.00300  0.71590  Biso   1.000  O
  O36      1.0000 0.59500  0.00300  0.78410  Biso   1.000  O
