data_image0
_cell_length_a       8.494
_cell_length_b       8.909
_cell_length_c       17.916
_cell_angle_alpha    90
_cell_angle_beta     102.9
_cell_angle_gamma    90

_symmetry_space_group_name_H-M    "P 1"
_symmetry_int_tables_number       1

loop_
  _symmetry_equiv_pos_as_xyz
  'x, y, z'

loop_
  _atom_site_label
  _atom_site_occupancy
  _atom_site_fract_x
  _atom_site_fract_y
  _atom_site_fract_z
  _atom_site_thermal_displace_type
  _atom_site_B_iso_or_equiv
  _atom_site_type_symbol
  Cu1      1.0000 0.72648  0.62640  0.01168  Biso   1.000  Cu
  Cu2      1.0000 0.22648  0.37360  0.51168  Biso   1.000  Cu
  Cu3      1.0000 0.27352  0.37360  0.98832  Biso   1.000  Cu
  Cu4      1.0000 0.77352  0.62640  0.48832  Biso   1.000  Cu
  P1       1.0000 0.75260  0.99390  0.00653  Biso   1.000  P
  P2       1.0000 0.25260  0.00610  0.50653  Biso   1.000  P
  P3       1.0000 0.24740  0.00610  0.99347  Biso   1.000  P
  P4       1.0000 0.74740  0.99390  0.49347  Biso   1.000  P
  O1       1.0000 0.82160  0.06450  0.94420  Biso   1.000  O
  O2       1.0000 0.32160  0.93550  0.44420  Biso   1.000  O
  O3       1.0000 0.17840  0.93550  0.05580  Biso   1.000  O
  O4       1.0000 0.67840  0.06450  0.55580  Biso   1.000  O
  O5       1.0000 0.67000  0.11230  0.04710  Biso   1.000  O
  O6       1.0000 0.17000  0.88770  0.54710  Biso   1.000  O
  O7       1.0000 0.33000  0.88770  0.95290  Biso   1.000  O
  O8       1.0000 0.83000  0.11230  0.45290  Biso   1.000  O
  H1       1.0000 0.59150  0.14680  0.01680  Biso   1.000  H
  H2       1.0000 0.09150  0.85320  0.51680  Biso   1.000  H
  H3       1.0000 0.40850  0.85320  0.98320  Biso   1.000  H
  H4       1.0000 0.90850  0.14680  0.48320  Biso   1.000  H
  O9       1.0000 0.63380  0.87220  0.97810  Biso   1.000  O
  O10      1.0000 0.13380  0.12780  0.47810  Biso   1.000  O
  O11      1.0000 0.36620  0.12780  0.02190  Biso   1.000  O
  O12      1.0000 0.86620  0.87220  0.52190  Biso   1.000  O
  O13      1.0000 0.89320  0.93380  0.06760  Biso   1.000  O
  O14      1.0000 0.39320  0.06620  0.56760  Biso   1.000  O
  O15      1.0000 0.10680  0.06620  0.93240  Biso   1.000  O
  O16      1.0000 0.60680  0.93380  0.43240  Biso   1.000  O
  H5       1.0000 0.85900  0.90060  0.10360  Biso   1.000  H
  H6       1.0000 0.35900  0.09940  0.60360  Biso   1.000  H
  H7       1.0000 0.14100  0.09940  0.89640  Biso   1.000  H
  H8       1.0000 0.64100  0.90060  0.39640  Biso   1.000  H
  O17      1.0000 0.86070  0.03180  0.22120  Biso   1.000  O
  O18      1.0000 0.36070  0.96820  0.72120  Biso   1.000  O
  O19      1.0000 0.13930  0.96820  0.77880  Biso   1.000  O
  O20      1.0000 0.63930  0.03180  0.27880  Biso   1.000  O
  O21      1.0000 0.63710  0.98840  0.79230  Biso   1.000  O
  O22      1.0000 0.13710  0.01160  0.29230  Biso   1.000  O
  O23      1.0000 0.36290  0.01160  0.20770  Biso   1.000  O
  O24      1.0000 0.86290  0.98840  0.70770  Biso   1.000  O
  N1       1.0000 0.63700  0.59090  0.09910  Biso   1.000  N
  N2       1.0000 0.13700  0.40910  0.59910  Biso   1.000  N
  N3       1.0000 0.36300  0.40910  0.90090  Biso   1.000  N
  N4       1.0000 0.86300  0.59090  0.40090  Biso   1.000  N
  N5       1.0000 0.33030  0.42390  0.43070  Biso   1.000  N
  N6       1.0000 0.83030  0.57610  0.93070  Biso   1.000  N
  N7       1.0000 0.66970  0.57610  0.56930  Biso   1.000  N
  N8       1.0000 0.16970  0.42390  0.06930  Biso   1.000  N
  C1       1.0000 0.61990  0.45040  0.12230  Biso   1.000  C
  C2       1.0000 0.11990  0.54960  0.62230  Biso   1.000  C
  C3       1.0000 0.38010  0.54960  0.87770  Biso   1.000  C
  C4       1.0000 0.88010  0.45040  0.37770  Biso   1.000  C
  H9       1.0000 0.64900  0.37190  0.09400  Biso   1.000  H
  H10      1.0000 0.14900  0.62810  0.59400  Biso   1.000  H
  H11      1.0000 0.35100  0.62810  0.90600  Biso   1.000  H
  H12      1.0000 0.85100  0.37190  0.40600  Biso   1.000  H
  C5       1.0000 0.56140  0.41550  0.18610  Biso   1.000  C
  C6       1.0000 0.06140  0.58450  0.68610  Biso   1.000  C
  C7       1.0000 0.43860  0.58450  0.81390  Biso   1.000  C
  C8       1.0000 0.93860  0.41550  0.31390  Biso   1.000  C
  H13      1.0000 0.54880  0.31550  0.19840  Biso   1.000  H
  H14      1.0000 0.04880  0.68450  0.69840  Biso   1.000  H
  H15      1.0000 0.45120  0.68450  0.80160  Biso   1.000  H
  H16      1.0000 0.95120  0.31550  0.30160  Biso   1.000  H
  C9       1.0000 0.59790  0.69770  0.14370  Biso   1.000  C
  C10      1.0000 0.09790  0.30230  0.64370  Biso   1.000  C
  C11      1.0000 0.40210  0.30230  0.85630  Biso   1.000  C
  C12      1.0000 0.90210  0.69770  0.35630  Biso   1.000  C
  H17      1.0000 0.61100  0.79710  0.13030  Biso   1.000  H
  H18      1.0000 0.11100  0.20290  0.63030  Biso   1.000  H
  H19      1.0000 0.38900  0.20290  0.86970  Biso   1.000  H
  H20      1.0000 0.88900  0.79710  0.36970  Biso   1.000  H
  C13      1.0000 0.53930  0.67120  0.20850  Biso   1.000  C
  C14      1.0000 0.03930  0.32880  0.70850  Biso   1.000  C
  C15      1.0000 0.46070  0.32880  0.79150  Biso   1.000  C
  C16      1.0000 0.96070  0.67120  0.29150  Biso   1.000  C
  H21      1.0000 0.51210  0.75130  0.23640  Biso   1.000  H
  H22      1.0000 0.01210  0.24870  0.73640  Biso   1.000  H
  H23      1.0000 0.48790  0.24870  0.76360  Biso   1.000  H
  H24      1.0000 0.98790  0.75130  0.26360  Biso   1.000  H
  C17      1.0000 0.52140  0.52700  0.23160  Biso   1.000  C
  C18      1.0000 0.02140  0.47300  0.73160  Biso   1.000  C
  C19      1.0000 0.47860  0.47300  0.76840  Biso   1.000  C
  C20      1.0000 0.97860  0.52700  0.26840  Biso   1.000  C
  C21      1.0000 0.45920  0.49230  0.30180  Biso   1.000  C
  C22      1.0000 0.95920  0.50770  0.80180  Biso   1.000  C
  C23      1.0000 0.54080  0.50770  0.69820  Biso   1.000  C
  C24      1.0000 0.04080  0.49230  0.19820  Biso   1.000  C
  C25      1.0000 0.40910  0.60430  0.34510  Biso   1.000  C
  C26      1.0000 0.90910  0.39570  0.84510  Biso   1.000  C
  C27      1.0000 0.59090  0.39570  0.65490  Biso   1.000  C
  C28      1.0000 0.09090  0.60430  0.15490  Biso   1.000  C
  H25      1.0000 0.41690  0.70480  0.33250  Biso   1.000  H
  H26      1.0000 0.91690  0.29520  0.83250  Biso   1.000  H
  H27      1.0000 0.58310  0.29520  0.66750  Biso   1.000  H
  H28      1.0000 0.08310  0.70480  0.16750  Biso   1.000  H
  C29      1.0000 0.34660  0.56310  0.40820  Biso   1.000  C
  C30      1.0000 0.84660  0.43690  0.90820  Biso   1.000  C
  C31      1.0000 0.65340  0.43690  0.59180  Biso   1.000  C
  C32      1.0000 0.15340  0.56310  0.09180  Biso   1.000  C
  H29      1.0000 0.31390  0.63990  0.43650  Biso   1.000  H
  H30      1.0000 0.81390  0.36010  0.93650  Biso   1.000  H
  H31      1.0000 0.68610  0.36010  0.56350  Biso   1.000  H
  H32      1.0000 0.18610  0.63990  0.06350  Biso   1.000  H
  C33      1.0000 0.38220  0.31660  0.38850  Biso   1.000  C
  C34      1.0000 0.88220  0.68340  0.88850  Biso   1.000  C
  C35      1.0000 0.61780  0.68340  0.61150  Biso   1.000  C
  C36      1.0000 0.11780  0.31660  0.11150  Biso   1.000  C
  H33      1.0000 0.37550  0.21680  0.40270  Biso   1.000  H
  H34      1.0000 0.87550  0.78320  0.90270  Biso   1.000  H
  H35      1.0000 0.62450  0.78320  0.59730  Biso   1.000  H
  H36      1.0000 0.12450  0.21680  0.09730  Biso   1.000  H
  C37      1.0000 0.44390  0.34740  0.32600  Biso   1.000  C
  C38      1.0000 0.94390  0.65260  0.82600  Biso   1.000  C
  C39      1.0000 0.55610  0.65260  0.67400  Biso   1.000  C
  C40      1.0000 0.05610  0.34740  0.17400  Biso   1.000  C
  H37      1.0000 0.47640  0.26830  0.29910  Biso   1.000  H
  H38      1.0000 0.97640  0.73170  0.79910  Biso   1.000  H
  H39      1.0000 0.52360  0.73170  0.70090  Biso   1.000  H
  H40      1.0000 0.02360  0.26830  0.20090  Biso   1.000  H
