data_image0
_cell_length_a       7.2949
_cell_length_b       15.7167
_cell_length_c       16.6267
_cell_angle_alpha    90
_cell_angle_beta     100.062
_cell_angle_gamma    90

_symmetry_space_group_name_H-M    "P 1"
_symmetry_int_tables_number       1

loop_
  _symmetry_equiv_pos_as_xyz
  'x, y, z'

loop_
  _atom_site_label
  _atom_site_occupancy
  _atom_site_fract_x
  _atom_site_fract_y
  _atom_site_fract_z
  _atom_site_thermal_displace_type
  _atom_site_B_iso_or_equiv
  _atom_site_type_symbol
  Cu1      1.0000 0.89759  0.99153  0.26568  Biso   1.000  Cu
  Cu2      1.0000 0.39759  0.50847  0.26568  Biso   1.000  Cu
  Cu3      1.0000 0.10241  0.00847  0.73432  Biso   1.000  Cu
  Cu4      1.0000 0.60241  0.49153  0.73432  Biso   1.000  Cu
  O1       1.0000 0.64040  0.97480  0.28683  Biso   1.000  O
  O2       1.0000 0.14040  0.52520  0.28683  Biso   1.000  O
  O3       1.0000 0.35960  0.02520  0.71317  Biso   1.000  O
  O4       1.0000 0.85960  0.47480  0.71317  Biso   1.000  O
  O5       1.0000 0.55780  0.05570  0.18018  Biso   1.000  O
  O6       1.0000 0.05780  0.44430  0.18018  Biso   1.000  O
  O7       1.0000 0.44220  0.94430  0.81982  Biso   1.000  O
  O8       1.0000 0.94220  0.55570  0.81982  Biso   1.000  O
  N1       1.0000 0.12940  0.94850  0.33510  Biso   1.000  N
  N2       1.0000 0.62940  0.55150  0.33510  Biso   1.000  N
  N3       1.0000 0.87060  0.05150  0.66490  Biso   1.000  N
  N4       1.0000 0.37060  0.44850  0.66490  Biso   1.000  N
  N5       1.0000 0.01690  0.04450  0.17900  Biso   1.000  N
  N6       1.0000 0.51690  0.45550  0.17900  Biso   1.000  N
  N7       1.0000 0.98310  0.95550  0.82100  Biso   1.000  N
  N8       1.0000 0.48310  0.54450  0.82100  Biso   1.000  N
  N9       1.0000 0.51300  0.01400  0.23680  Biso   1.000  N
  N10      1.0000 0.01300  0.48600  0.23680  Biso   1.000  N
  N11      1.0000 0.48700  0.98600  0.76320  Biso   1.000  N
  N12      1.0000 0.98700  0.51400  0.76320  Biso   1.000  N
  C1       1.0000 0.32800  0.00750  0.24700  Biso   1.000  C
  C2       1.0000 0.82800  0.49250  0.24700  Biso   1.000  C
  C3       1.0000 0.67200  0.99250  0.75300  Biso   1.000  C
  C4       1.0000 0.17200  0.50750  0.75300  Biso   1.000  C
  C5       1.0000 0.29260  0.96120  0.31680  Biso   1.000  C
  C6       1.0000 0.79260  0.53880  0.31680  Biso   1.000  C
  C7       1.0000 0.70740  0.03880  0.68320  Biso   1.000  C
  C8       1.0000 0.20740  0.46120  0.68320  Biso   1.000  C
  C9       1.0000 0.19530  0.04530  0.18320  Biso   1.000  C
  C10      1.0000 0.69530  0.45470  0.18320  Biso   1.000  C
  C11      1.0000 0.80470  0.95470  0.81680  Biso   1.000  C
  C12      1.0000 0.30470  0.54530  0.81680  Biso   1.000  C
  C13      1.0000 0.13040  0.90010  0.40850  Biso   1.000  C
  C14      1.0000 0.63040  0.59990  0.40850  Biso   1.000  C
  C15      1.0000 0.86960  0.09990  0.59150  Biso   1.000  C
  C16      1.0000 0.36960  0.40010  0.59150  Biso   1.000  C
  C17      1.0000 0.05740  0.81760  0.40190  Biso   1.000  C
  C18      1.0000 0.55740  0.68240  0.40190  Biso   1.000  C
  C19      1.0000 0.94260  0.18240  0.59810  Biso   1.000  C
  C20      1.0000 0.44260  0.31760  0.59810  Biso   1.000  C
  C21      1.0000 0.06900  0.76920  0.47260  Biso   1.000  C
  C22      1.0000 0.56900  0.73080  0.47260  Biso   1.000  C
  C23      1.0000 0.93100  0.23080  0.52740  Biso   1.000  C
  C24      1.0000 0.43100  0.26920  0.52740  Biso   1.000  C
  C25      1.0000 0.14990  0.80020  0.54860  Biso   1.000  C
  C26      1.0000 0.64990  0.69980  0.54860  Biso   1.000  C
  C27      1.0000 0.85010  0.19980  0.45140  Biso   1.000  C
  C28      1.0000 0.35010  0.30020  0.45140  Biso   1.000  C
  C29      1.0000 0.21250  0.88400  0.55360  Biso   1.000  C
  C30      1.0000 0.71250  0.61600  0.55360  Biso   1.000  C
  C31      1.0000 0.78750  0.11600  0.44640  Biso   1.000  C
  C32      1.0000 0.28750  0.38400  0.44640  Biso   1.000  C
  C33      1.0000 0.20390  0.93580  0.48460  Biso   1.000  C
  C34      1.0000 0.70390  0.56420  0.48460  Biso   1.000  C
  C35      1.0000 0.79610  0.06420  0.51540  Biso   1.000  C
  C36      1.0000 0.29610  0.43580  0.51540  Biso   1.000  C
  C37      1.0000 0.96860  0.78270  0.31970  Biso   1.000  C
  C38      1.0000 0.46860  0.71730  0.31970  Biso   1.000  C
  C39      1.0000 0.03140  0.21730  0.68030  Biso   1.000  C
  C40      1.0000 0.53140  0.28270  0.68030  Biso   1.000  C
  C41      1.0000 0.17090  0.74400  0.62360  Biso   1.000  C
  C42      1.0000 0.67090  0.75600  0.62360  Biso   1.000  C
  C43      1.0000 0.82910  0.25600  0.37640  Biso   1.000  C
  C44      1.0000 0.32910  0.24400  0.37640  Biso   1.000  C
  C45      1.0000 0.26110  0.02820  0.49270  Biso   1.000  C
  C46      1.0000 0.76110  0.47180  0.49270  Biso   1.000  C
  C47      1.0000 0.73890  0.97180  0.50730  Biso   1.000  C
  C48      1.0000 0.23890  0.52820  0.50730  Biso   1.000  C
  C49      1.0000 0.91420  0.08370  0.10630  Biso   1.000  C
  C50      1.0000 0.41420  0.41630  0.10630  Biso   1.000  C
  C51      1.0000 0.08580  0.91630  0.89370  Biso   1.000  C
  C52      1.0000 0.58580  0.58370  0.89370  Biso   1.000  C
  C53      1.0000 0.92580  0.17180  0.09500  Biso   1.000  C
  C54      1.0000 0.42580  0.32820  0.09500  Biso   1.000  C
  C55      1.0000 0.07420  0.82820  0.90500  Biso   1.000  C
  C56      1.0000 0.57420  0.67180  0.90500  Biso   1.000  C
  C57      1.0000 0.82870  0.20620  0.02270  Biso   1.000  C
  C58      1.0000 0.32870  0.29380  0.02270  Biso   1.000  C
  C59      1.0000 0.17130  0.79380  0.97730  Biso   1.000  C
  C60      1.0000 0.67130  0.70620  0.97730  Biso   1.000  C
  C61      1.0000 0.72020  0.15690  0.96370  Biso   1.000  C
  C62      1.0000 0.22020  0.34310  0.96370  Biso   1.000  C
  C63      1.0000 0.27980  0.84310  0.03630  Biso   1.000  C
  C64      1.0000 0.77980  0.65690  0.03630  Biso   1.000  C
  C65      1.0000 0.70730  0.06990  0.97870  Biso   1.000  C
  C66      1.0000 0.20730  0.43010  0.97870  Biso   1.000  C
  C67      1.0000 0.29270  0.93010  0.02130  Biso   1.000  C
  C68      1.0000 0.79270  0.56990  0.02130  Biso   1.000  C
  C69      1.0000 0.80440  0.03210  0.04920  Biso   1.000  C
  C70      1.0000 0.30440  0.46790  0.04920  Biso   1.000  C
  C71      1.0000 0.19560  0.96790  0.95080  Biso   1.000  C
  C72      1.0000 0.69560  0.53210  0.95080  Biso   1.000  C
  C73      1.0000 0.03350  0.22820  0.15980  Biso   1.000  C
  C74      1.0000 0.53350  0.27180  0.15980  Biso   1.000  C
  C75      1.0000 0.96650  0.77180  0.84020  Biso   1.000  C
  C76      1.0000 0.46650  0.72820  0.84020  Biso   1.000  C
  C77      1.0000 0.62230  0.19500  0.88460  Biso   1.000  C
  C78      1.0000 0.12230  0.30500  0.88460  Biso   1.000  C
  C79      1.0000 0.37770  0.80500  0.11540  Biso   1.000  C
  C80      1.0000 0.87770  0.69500  0.11540  Biso   1.000  C
  C81      1.0000 0.79450  0.93750  0.06140  Biso   1.000  C
  C82      1.0000 0.29450  0.56250  0.06140  Biso   1.000  C
  C83      1.0000 0.20550  0.06250  0.93860  Biso   1.000  C
  C84      1.0000 0.70550  0.43750  0.93860  Biso   1.000  C
  H1       1.0000 0.39450  0.93510  0.35070  Biso   1.000  H
  H2       1.0000 0.89450  0.56490  0.35070  Biso   1.000  H
  H3       1.0000 0.60550  0.06490  0.64930  Biso   1.000  H
  H4       1.0000 0.10550  0.43510  0.64930  Biso   1.000  H
  H5       1.0000 0.23390  0.07480  0.14440  Biso   1.000  H
  H6       1.0000 0.73390  0.42520  0.14440  Biso   1.000  H
  H7       1.0000 0.76610  0.92520  0.85560  Biso   1.000  H
  H8       1.0000 0.26610  0.57480  0.85560  Biso   1.000  H
  H9       1.0000 0.01120  0.71370  0.47010  Biso   1.000  H
  H10      1.0000 0.51120  0.78630  0.47010  Biso   1.000  H
  H11      1.0000 0.98880  0.28630  0.52990  Biso   1.000  H
  H12      1.0000 0.48880  0.21370  0.52990  Biso   1.000  H
  H13      1.0000 0.26700  0.90290  0.59420  Biso   1.000  H
  H14      1.0000 0.76700  0.59710  0.59420  Biso   1.000  H
  H15      1.0000 0.73300  0.09710  0.40580  Biso   1.000  H
  H16      1.0000 0.23300  0.40290  0.40580  Biso   1.000  H
  H17      1.0000 0.04620  0.78510  0.28200  Biso   1.000  H
  H18      1.0000 0.54620  0.71490  0.28200  Biso   1.000  H
  H19      1.0000 0.95380  0.21490  0.71800  Biso   1.000  H
  H20      1.0000 0.45380  0.28510  0.71800  Biso   1.000  H
  H21      1.0000 0.86470  0.81740  0.29550  Biso   1.000  H
  H22      1.0000 0.36470  0.68260  0.29550  Biso   1.000  H
  H23      1.0000 0.13530  0.18260  0.70450  Biso   1.000  H
  H24      1.0000 0.63530  0.31740  0.70450  Biso   1.000  H
  H25      1.0000 0.93990  0.73210  0.32470  Biso   1.000  H
  H26      1.0000 0.43990  0.76790  0.32470  Biso   1.000  H
  H27      1.0000 0.06010  0.26790  0.67530  Biso   1.000  H
  H28      1.0000 0.56010  0.23210  0.67530  Biso   1.000  H
  H29      1.0000 0.27640  0.70540  0.62790  Biso   1.000  H
  H30      1.0000 0.77640  0.79460  0.62790  Biso   1.000  H
  H31      1.0000 0.72360  0.29460  0.37210  Biso   1.000  H
  H32      1.0000 0.22360  0.20540  0.37210  Biso   1.000  H
  H33      1.0000 0.06490  0.70760  0.62570  Biso   1.000  H
  H34      1.0000 0.56490  0.79240  0.62570  Biso   1.000  H
  H35      1.0000 0.93510  0.29240  0.37430  Biso   1.000  H
  H36      1.0000 0.43510  0.20760  0.37430  Biso   1.000  H
  H37      1.0000 0.20070  0.77650  0.67200  Biso   1.000  H
  H38      1.0000 0.70070  0.72350  0.67200  Biso   1.000  H
  H39      1.0000 0.79930  0.22350  0.32800  Biso   1.000  H
  H40      1.0000 0.29930  0.27650  0.32800  Biso   1.000  H
  H41      1.0000 0.37020  0.04150  0.47140  Biso   1.000  H
  H42      1.0000 0.87020  0.45850  0.47140  Biso   1.000  H
  H43      1.0000 0.62980  0.95850  0.52860  Biso   1.000  H
  H44      1.0000 0.12980  0.54150  0.52860  Biso   1.000  H
  H45      1.0000 0.28440  0.04570  0.54410  Biso   1.000  H
  H46      1.0000 0.78440  0.45430  0.54410  Biso   1.000  H
  H47      1.0000 0.71560  0.95430  0.45590  Biso   1.000  H
  H48      1.0000 0.21560  0.54570  0.45590  Biso   1.000  H
  H49      1.0000 0.16780  0.06940  0.46700  Biso   1.000  H
  H50      1.0000 0.66780  0.43060  0.46700  Biso   1.000  H
  H51      1.0000 0.83220  0.93060  0.53300  Biso   1.000  H
  H52      1.0000 0.33220  0.56940  0.53300  Biso   1.000  H
  H53      1.0000 0.82730  0.26510  0.01520  Biso   1.000  H
  H54      1.0000 0.32730  0.23490  0.01520  Biso   1.000  H
  H55      1.0000 0.17270  0.73490  0.98480  Biso   1.000  H
  H56      1.0000 0.67270  0.76510  0.98480  Biso   1.000  H
  H57      1.0000 0.63610  0.04070  0.94390  Biso   1.000  H
  H58      1.0000 0.13610  0.45930  0.94390  Biso   1.000  H
  H59      1.0000 0.36390  0.95930  0.05610  Biso   1.000  H
  H60      1.0000 0.86390  0.54070  0.05610  Biso   1.000  H
  H61      1.0000 0.16360  0.21850  0.16930  Biso   1.000  H
  H62      1.0000 0.66360  0.28150  0.16930  Biso   1.000  H
  H63      1.0000 0.83640  0.78150  0.83070  Biso   1.000  H
  H64      1.0000 0.33640  0.71850  0.83070  Biso   1.000  H
  H65      1.0000 0.01110  0.28310  0.14740  Biso   1.000  H
  H66      1.0000 0.51110  0.21690  0.14740  Biso   1.000  H
  H67      1.0000 0.98890  0.71690  0.85260  Biso   1.000  H
  H68      1.0000 0.48890  0.78310  0.85260  Biso   1.000  H
  H69      1.0000 0.99740  0.21970  0.21310  Biso   1.000  H
  H70      1.0000 0.49740  0.28030  0.21310  Biso   1.000  H
  H71      1.0000 0.00260  0.78030  0.78690  Biso   1.000  H
  H72      1.0000 0.50260  0.71970  0.78690  Biso   1.000  H
  H73      1.0000 0.69840  0.20050  0.85020  Biso   1.000  H
  H74      1.0000 0.19840  0.29950  0.85020  Biso   1.000  H
  H75      1.0000 0.30160  0.79950  0.14980  Biso   1.000  H
  H76      1.0000 0.80160  0.70050  0.14980  Biso   1.000  H
  H77      1.0000 0.58600  0.24770  0.88950  Biso   1.000  H
  H78      1.0000 0.08600  0.25230  0.88950  Biso   1.000  H
  H79      1.0000 0.41400  0.75230  0.11050  Biso   1.000  H
  H80      1.0000 0.91400  0.74770  0.11050  Biso   1.000  H
  H81      1.0000 0.52660  0.16300  0.86130  Biso   1.000  H
  H82      1.0000 0.02660  0.33700  0.86130  Biso   1.000  H
  H83      1.0000 0.47340  0.83700  0.13870  Biso   1.000  H
  H84      1.0000 0.97340  0.66300  0.13870  Biso   1.000  H
  H85      1.0000 0.90900  0.90770  0.05800  Biso   1.000  H
  H86      1.0000 0.40900  0.59230  0.05800  Biso   1.000  H
  H87      1.0000 0.09100  0.09230  0.94200  Biso   1.000  H
  H88      1.0000 0.59100  0.40770  0.94200  Biso   1.000  H
  H89      1.0000 0.70010  0.91310  0.02020  Biso   1.000  H
  H90      1.0000 0.20010  0.58690  0.02020  Biso   1.000  H
  H91      1.0000 0.29990  0.08690  0.97980  Biso   1.000  H
  H92      1.0000 0.79990  0.41310  0.97980  Biso   1.000  H
  H93      1.0000 0.76830  0.91990  0.11110  Biso   1.000  H
  H94      1.0000 0.26830  0.58010  0.11110  Biso   1.000  H
  H95      1.0000 0.23170  0.08010  0.88890  Biso   1.000  H
  H96      1.0000 0.73170  0.41990  0.88890  Biso   1.000  H
