data_image0
_cell_length_a       11.023
_cell_length_b       11.174
_cell_length_c       14.641
_cell_angle_alpha    103.763
_cell_angle_beta     104.969
_cell_angle_gamma    106.907

_symmetry_space_group_name_H-M    "P 1"
_symmetry_int_tables_number       1

loop_
  _symmetry_equiv_pos_as_xyz
  'x, y, z'

loop_
  _atom_site_label
  _atom_site_occupancy
  _atom_site_fract_x
  _atom_site_fract_y
  _atom_site_fract_z
  _atom_site_thermal_displace_type
  _atom_site_B_iso_or_equiv
  _atom_site_type_symbol
  Cu1      1.0000 0.29576  0.16740  0.24182  Biso   1.000  Cu
  Cu2      1.0000 0.70424  0.83260  0.75818  Biso   1.000  Cu
  N1       1.0000 0.48290  0.28210  0.27880  Biso   1.000  N
  N2       1.0000 0.51710  0.71790  0.72120  Biso   1.000  N
  F1       1.0000 0.53630  0.62330  0.30642  Biso   1.000  F
  F2       1.0000 0.46370  0.37670  0.69358  Biso   1.000  F
  C1       1.0000 0.54310  0.41240  0.29580  Biso   1.000  C
  C2       1.0000 0.45690  0.58760  0.70420  Biso   1.000  C
  Cu3      1.0000 0.53881  0.04606  0.27944  Biso   1.000  Cu
  Cu4      1.0000 0.46119  0.95394  0.72056  Biso   1.000  Cu
  N3       1.0000 0.58290  0.23220  0.29625  Biso   1.000  N
  N4       1.0000 0.41710  0.76780  0.70375  Biso   1.000  N
  F3       1.0000 0.37380  0.45620  0.18750  Biso   1.000  F
  F4       1.0000 0.62620  0.54380  0.81250  Biso   1.000  F
  C3       1.0000 0.68210  0.45210  0.32490  Biso   1.000  C
  C4       1.0000 0.31790  0.54790  0.67510  Biso   1.000  C
  H1       1.0000 0.74800  0.53810  0.34150  Biso   1.000  H
  H2       1.0000 0.25200  0.46190  0.65850  Biso   1.000  H
  Cu5      1.0000 0.22999  0.84219  0.14378  Biso   1.000  Cu
  Cu6      1.0000 0.77001  0.15781  0.85622  Biso   1.000  Cu
  N5       1.0000 0.50850  0.87210  0.19055  Biso   1.000  N
  N6       1.0000 0.49150  0.12790  0.80945  Biso   1.000  N
  C5       1.0000 0.70170  0.33430  0.32400  Biso   1.000  C
  C6       1.0000 0.29830  0.66570  0.67600  Biso   1.000  C
  F5       1.0000 0.38190  0.49070  0.33970  Biso   1.000  F
  F6       1.0000 0.61810  0.50930  0.66030  Biso   1.000  F
  N7       1.0000 0.37900  0.79200  0.12889  Biso   1.000  N
  N8       1.0000 0.62100  0.20800  0.87111  Biso   1.000  N
  F7       1.0000 0.84180  0.23800  0.26590  Biso   1.000  F
  F8       1.0000 0.15820  0.76200  0.73410  Biso   1.000  F
  C7       1.0000 0.45940  0.49540  0.28320  Biso   1.000  C
  C8       1.0000 0.54060  0.50460  0.71680  Biso   1.000  C
  N9       1.0000 0.18450  0.91030  0.26230  Biso   1.000  N
  N10      1.0000 0.81550  0.08970  0.73770  Biso   1.000  N
  C9       1.0000 0.83050  0.31040  0.34750  Biso   1.000  C
  C10      1.0000 0.16950  0.68960  0.65250  Biso   1.000  C
  F9       1.0000 0.93780  0.42120  0.38810  Biso   1.000  F
  F10      1.0000 0.06220  0.57880  0.61190  Biso   1.000  F
  F11      1.0000 0.84070  0.24280  0.41010  Biso   1.000  F
  F12      1.0000 0.15930  0.75720  0.58990  Biso   1.000  F
  N11      1.0000 0.21050  0.04220  0.30120  Biso   1.000  N
  N12      1.0000 0.78950  0.95780  0.69880  Biso   1.000  N
  C11      1.0000 0.59020  0.80730  0.17190  Biso   1.000  C
  C12      1.0000 0.40980  0.19270  0.82810  Biso   1.000  C
  F13      1.0000 0.77130  0.94000  0.32319  Biso   1.000  F
  F14      1.0000 0.22870  0.06000  0.67681  Biso   1.000  F
  N13      1.0000 0.14670  0.17970  0.12930  Biso   1.000  N
  N14      1.0000 0.85330  0.82030  0.87070  Biso   1.000  N
  C13      1.0000 0.51650  0.68480  0.09720  Biso   1.000  C
  C14      1.0000 0.48350  0.31520  0.90280  Biso   1.000  C
  H3       1.0000 0.54840  0.61970  0.06930  Biso   1.000  H
  H4       1.0000 0.45160  0.38030  0.93070  Biso   1.000  H
  N15      1.0000 0.51520  0.01870  0.41197  Biso   1.000  N
  N16      1.0000 0.48480  0.98130  0.58803  Biso   1.000  N
  F15      1.0000 0.80560  0.94920  0.18720  Biso   1.000  F
  F16      1.0000 0.19440  0.05080  0.81280  Biso   1.000  F
  C15      1.0000 0.38460  0.68030  0.07310  Biso   1.000  C
  C16      1.0000 0.61540  0.31970  0.92690  Biso   1.000  C
  N17      1.0000 0.93060  0.17900  0.97790  Biso   1.000  N
  N18      1.0000 0.06940  0.82100  0.02210  Biso   1.000  N
  F17      1.0000 0.79330  0.77510  0.22720  Biso   1.000  F
  F18      1.0000 0.20670  0.22490  0.77280  Biso   1.000  F
  C17      1.0000 0.73920  0.86810  0.22770  Biso   1.000  C
  C18      1.0000 0.26080  0.13190  0.77230  Biso   1.000  C
  F19      1.0000 0.27800  0.46050  0.96260  Biso   1.000  F
  F20      1.0000 0.72200  0.53950  0.03740  Biso   1.000  F
  C19      1.0000 0.25830  0.57270  0.99510  Biso   1.000  C
  C20      1.0000 0.74170  0.42730  0.00490  Biso   1.000  C
  F21      1.0000 0.15620  0.54310  0.02860  Biso   1.000  F
  F22      1.0000 0.84380  0.45690  0.97140  Biso   1.000  F
  C21      1.0000 0.13530  0.85050  0.32250  Biso   1.000  C
  C22      1.0000 0.86470  0.14950  0.67750  Biso   1.000  C
  C23      1.0000 0.12900  0.94350  0.40200  Biso   1.000  C
  C24      1.0000 0.87100  0.05650  0.59800  Biso   1.000  C
  H5       1.0000 0.09890  0.92890  0.45500  Biso   1.000  H
  H6       1.0000 0.90110  0.07110  0.54500  Biso   1.000  H
  F23      1.0000 0.21350  0.60840  0.91490  Biso   1.000  F
  F24      1.0000 0.78650  0.39160  0.08510  Biso   1.000  F
  F25      1.0000 0.02680  0.64030  0.20240  Biso   1.000  F
  F26      1.0000 0.97320  0.35970  0.79760  Biso   1.000  F
  C25      1.0000 0.17740  0.06200  0.38500  Biso   1.000  C
  C26      1.0000 0.82260  0.93800  0.61500  Biso   1.000  C
  C27      1.0000 0.09510  0.70600  0.29960  Biso   1.000  C
  C28      1.0000 0.90490  0.29400  0.70040  Biso   1.000  C
  F27      1.0000 0.19320  0.66680  0.32380  Biso   1.000  F
  F28      1.0000 0.80680  0.33320  0.67620  Biso   1.000  F
  C29      1.0000 0.19330  0.19640  0.44360  Biso   1.000  C
  C30      1.0000 0.80670  0.80360  0.55640  Biso   1.000  C
  F29      1.0000 0.00690  0.65980  0.34100  Biso   1.000  F
  F30      1.0000 0.99310  0.34020  0.65900  Biso   1.000  F
  F31      1.0000 0.32190  0.28410  0.47880  Biso   1.000  F
  F32      1.0000 0.67810  0.71590  0.52120  Biso   1.000  F
  C31      1.0000 0.02990  0.17410  0.14150  Biso   1.000  C
  C32      1.0000 0.97010  0.82590  0.85850  Biso   1.000  C
  H7       1.0000 0.01920  0.16880  0.20290  Biso   1.000  H
  H8       1.0000 0.98080  0.83120  0.79710  Biso   1.000  H
  F33      1.0000 0.12310  0.25120  0.38987  Biso   1.000  F
  F34      1.0000 0.87690  0.74880  0.61013  Biso   1.000  F
  C33      1.0000 0.15460  0.18740  0.04150  Biso   1.000  C
  C34      1.0000 0.84540  0.81260  0.95850  Biso   1.000  C
  H9       1.0000 0.23680  0.19350  0.02990  Biso   1.000  H
  H10      1.0000 0.76320  0.80650  0.97010  Biso   1.000  H
  C35      1.0000 0.52840  0.12000  0.48980  Biso   1.000  C
  C36      1.0000 0.47160  0.88000  0.51020  Biso   1.000  C
  H11      1.0000 0.54850  0.20650  0.48500  Biso   1.000  H
  H12      1.0000 0.45150  0.79350  0.51500  Biso   1.000  H
  F35      1.0000 0.15570  0.19750  0.52289  Biso   1.000  F
  F36      1.0000 0.84430  0.80250  0.47711  Biso   1.000  F
  C37      1.0000 0.48680  0.89960  0.42290  Biso   1.000  C
  C38      1.0000 0.51320  0.10040  0.57710  Biso   1.000  C
  H13      1.0000 0.47650  0.82580  0.36920  Biso   1.000  H
  H14      1.0000 0.52350  0.17420  0.63080  Biso   1.000  H
  C39      1.0000 0.92360  0.17580  0.06740  Biso   1.000  C
  C40      1.0000 0.07640  0.82420  0.93260  Biso   1.000  C
  H15      1.0000 0.84320  0.17470  0.08040  Biso   1.000  H
  H16      1.0000 0.15680  0.82530  0.91960  Biso   1.000  H
  C41      1.0000 0.04810  0.18710  0.96670  Biso   1.000  C
  C42      1.0000 0.95190  0.81290  0.03330  Biso   1.000  C
  H17      1.0000 0.05920  0.19270  0.90540  Biso   1.000  H
  H18      1.0000 0.94080  0.80730  0.09460  Biso   1.000  H
  Cl1      1.0000 0.42240  0.07109  0.03973  Biso   1.000  Cl
  Cl2      1.0000 0.57760  0.92891  0.96027  Biso   1.000  Cl
  C43      1.0000 0.43880  0.93530  0.95570  Biso   1.000  C
  C44      1.0000 0.56120  0.06470  0.04430  Biso   1.000  C
  H19      1.0000 0.39000  0.92500  0.88400  Biso   1.000  H
  H20      1.0000 0.61000  0.07500  0.11600  Biso   1.000  H
  H21      1.0000 0.37600  0.86000  0.97400  Biso   1.000  H
  H22      1.0000 0.62400  0.14000  0.02600  Biso   1.000  H
