data_image0
_cell_length_a       12.977
_cell_length_b       14.52
_cell_length_c       10.348
_cell_angle_alpha    90
_cell_angle_beta     92.101
_cell_angle_gamma    90

_symmetry_space_group_name_H-M    "P 1"
_symmetry_int_tables_number       1

loop_
  _symmetry_equiv_pos_as_xyz
  'x, y, z'

loop_
  _atom_site_label
  _atom_site_occupancy
  _atom_site_fract_x
  _atom_site_fract_y
  _atom_site_fract_z
  _atom_site_thermal_displace_type
  _atom_site_B_iso_or_equiv
  _atom_site_type_symbol
  Cu1      1.0000 0.95479  0.32161  0.31766  Biso   1.000  Cu
  Cu2      1.0000 0.95479  0.17839  0.81766  Biso   1.000  Cu
  Cu3      1.0000 0.04521  0.67839  0.68234  Biso   1.000  Cu
  Cu4      1.0000 0.04521  0.82161  0.18234  Biso   1.000  Cu
  S1       1.0000 0.79737  0.45174  0.55630  Biso   1.000  S
  S2       1.0000 0.79737  0.04826  0.05630  Biso   1.000  S
  S3       1.0000 0.20263  0.54826  0.44370  Biso   1.000  S
  S4       1.0000 0.20263  0.95174  0.94370  Biso   1.000  S
  F1       1.0000 0.60870  0.48740  0.47070  Biso   1.000  F
  F2       1.0000 0.60870  0.01260  0.97070  Biso   1.000  F
  F3       1.0000 0.39130  0.51260  0.52930  Biso   1.000  F
  F4       1.0000 0.39130  0.98740  0.02930  Biso   1.000  F
  F5       1.0000 0.73040  0.52720  0.34120  Biso   1.000  F
  F6       1.0000 0.73040  0.97280  0.84120  Biso   1.000  F
  F7       1.0000 0.26960  0.47280  0.65880  Biso   1.000  F
  F8       1.0000 0.26960  0.02720  0.15880  Biso   1.000  F
  F9       1.0000 0.68760  0.38330  0.36510  Biso   1.000  F
  F10      1.0000 0.68760  0.11670  0.86510  Biso   1.000  F
  F11      1.0000 0.31240  0.61670  0.63490  Biso   1.000  F
  F12      1.0000 0.31240  0.88330  0.13490  Biso   1.000  F
  O1       1.0000 0.88780  0.42120  0.49250  Biso   1.000  O
  O2       1.0000 0.88780  0.07880  0.99250  Biso   1.000  O
  O3       1.0000 0.11220  0.57880  0.50750  Biso   1.000  O
  O4       1.0000 0.11220  0.92120  0.00750  Biso   1.000  O
  O5       1.0000 0.80410  0.54320  0.61240  Biso   1.000  O
  O6       1.0000 0.80410  0.95680  0.11240  Biso   1.000  O
  O7       1.0000 0.19590  0.45680  0.38760  Biso   1.000  O
  O8       1.0000 0.19590  0.04320  0.88760  Biso   1.000  O
  O9       1.0000 0.75400  0.38330  0.64230  Biso   1.000  O
  O10      1.0000 0.75400  0.11670  0.14230  Biso   1.000  O
  O11      1.0000 0.24600  0.61670  0.35770  Biso   1.000  O
  O12      1.0000 0.24600  0.88330  0.85770  Biso   1.000  O
  O13      1.0000 0.43520  0.98900  0.39540  Biso   1.000  O
  O14      1.0000 0.43520  0.51100  0.89540  Biso   1.000  O
  O15      1.0000 0.56480  0.01100  0.60460  Biso   1.000  O
  O16      1.0000 0.56480  0.48900  0.10460  Biso   1.000  O
  O17      1.0000 0.55960  0.00110  0.30210  Biso   1.000  O
  O18      1.0000 0.55960  0.49890  0.80210  Biso   1.000  O
  O19      1.0000 0.44040  0.99890  0.69790  Biso   1.000  O
  O20      1.0000 0.44040  0.50110  0.19790  Biso   1.000  O
  N1       1.0000 0.88670  0.37710  0.17090  Biso   1.000  N
  N2       1.0000 0.88670  0.12290  0.67090  Biso   1.000  N
  N3       1.0000 0.11330  0.62290  0.82910  Biso   1.000  N
  N4       1.0000 0.11330  0.87710  0.32910  Biso   1.000  N
  N5       1.0000 0.95870  0.75080  0.06570  Biso   1.000  N
  N6       1.0000 0.95870  0.74920  0.56570  Biso   1.000  N
  N7       1.0000 0.04130  0.24920  0.93430  Biso   1.000  N
  N8       1.0000 0.04130  0.25080  0.43430  Biso   1.000  N
  N9       1.0000 0.47940  0.04290  0.33720  Biso   1.000  N
  N10      1.0000 0.47940  0.45710  0.83720  Biso   1.000  N
  N11      1.0000 0.52060  0.95710  0.66280  Biso   1.000  N
  N12      1.0000 0.52060  0.54290  0.16280  Biso   1.000  N
  C1       1.0000 0.82300  0.32840  0.09430  Biso   1.000  C
  C2       1.0000 0.82300  0.17160  0.59430  Biso   1.000  C
  C3       1.0000 0.17700  0.67160  0.90570  Biso   1.000  C
  C4       1.0000 0.17700  0.82840  0.40570  Biso   1.000  C
  H1       1.0000 0.81140  0.26580  0.11600  Biso   1.000  H
  H2       1.0000 0.81140  0.23420  0.61600  Biso   1.000  H
  H3       1.0000 0.18860  0.73420  0.88400  Biso   1.000  H
  H4       1.0000 0.18860  0.76580  0.38400  Biso   1.000  H
  C5       1.0000 0.77260  0.36350  0.98450  Biso   1.000  C
  C6       1.0000 0.77260  0.13650  0.48450  Biso   1.000  C
  C7       1.0000 0.22740  0.63650  0.01550  Biso   1.000  C
  C8       1.0000 0.22740  0.86350  0.51550  Biso   1.000  C
  H5       1.0000 0.72840  0.32530  0.93280  Biso   1.000  H
  H6       1.0000 0.72840  0.17470  0.43280  Biso   1.000  H
  H7       1.0000 0.27160  0.67470  0.06720  Biso   1.000  H
  H8       1.0000 0.27160  0.82530  0.56720  Biso   1.000  H
  C9       1.0000 0.78720  0.45460  0.95100  Biso   1.000  C
  C10      1.0000 0.78720  0.04540  0.45100  Biso   1.000  C
  C11      1.0000 0.21280  0.54540  0.04900  Biso   1.000  C
  C12      1.0000 0.21280  0.95460  0.54900  Biso   1.000  C
  H9       1.0000 0.75330  0.47980  0.87610  Biso   1.000  H
  H10      1.0000 0.75330  0.02020  0.37610  Biso   1.000  H
  H11      1.0000 0.24670  0.52020  0.12390  Biso   1.000  H
  H12      1.0000 0.24670  0.97980  0.62390  Biso   1.000  H
  C13      1.0000 0.85290  0.50900  0.02950  Biso   1.000  C
  C14      1.0000 0.85290  0.99100  0.52950  Biso   1.000  C
  C15      1.0000 0.14710  0.49100  0.97050  Biso   1.000  C
  C16      1.0000 0.14710  0.00900  0.47050  Biso   1.000  C
  C17      1.0000 0.90230  0.46990  0.13770  Biso   1.000  C
  C18      1.0000 0.90230  0.03010  0.63770  Biso   1.000  C
  C19      1.0000 0.09770  0.53010  0.86230  Biso   1.000  C
  C20      1.0000 0.09770  0.96990  0.36230  Biso   1.000  C
  C21      1.0000 0.97250  0.52130  0.21860  Biso   1.000  C
  C22      1.0000 0.97250  0.97870  0.71860  Biso   1.000  C
  C23      1.0000 0.02750  0.47870  0.78140  Biso   1.000  C
  C24      1.0000 0.02750  0.02130  0.28140  Biso   1.000  C
  H13      1.0000 0.00640  0.49270  0.29110  Biso   1.000  H
  H14      1.0000 0.00640  0.00730  0.79110  Biso   1.000  H
  H15      1.0000 0.99360  0.50730  0.70890  Biso   1.000  H
  H16      1.0000 0.99360  0.99270  0.20890  Biso   1.000  H
  C25      1.0000 0.99120  0.61260  0.19120  Biso   1.000  C
  C26      1.0000 0.99120  0.88740  0.69120  Biso   1.000  C
  C27      1.0000 0.00880  0.38740  0.80880  Biso   1.000  C
  C28      1.0000 0.00880  0.11260  0.30880  Biso   1.000  C
  H17      1.0000 0.03780  0.64670  0.24540  Biso   1.000  H
  H18      1.0000 0.03780  0.85330  0.74540  Biso   1.000  H
  H19      1.0000 0.96220  0.35330  0.75460  Biso   1.000  H
  H20      1.0000 0.96220  0.14670  0.25460  Biso   1.000  H
  C29      1.0000 0.94150  0.65650  0.08250  Biso   1.000  C
  C30      1.0000 0.94150  0.84350  0.58250  Biso   1.000  C
  C31      1.0000 0.05850  0.34350  0.91750  Biso   1.000  C
  C32      1.0000 0.05850  0.15650  0.41750  Biso   1.000  C
  C33      1.0000 0.87230  0.60750  0.00020  Biso   1.000  C
  C34      1.0000 0.87230  0.89250  0.50020  Biso   1.000  C
  C35      1.0000 0.12770  0.39250  0.99980  Biso   1.000  C
  C36      1.0000 0.12770  0.10750  0.49980  Biso   1.000  C
  C37      1.0000 0.82530  0.65470  0.89680  Biso   1.000  C
  C38      1.0000 0.82530  0.84530  0.39680  Biso   1.000  C
  C39      1.0000 0.17470  0.34530  0.10320  Biso   1.000  C
  C40      1.0000 0.17470  0.15470  0.60320  Biso   1.000  C
  H21      1.0000 0.78020  0.62310  0.83750  Biso   1.000  H
  H22      1.0000 0.78020  0.87690  0.33750  Biso   1.000  H
  H23      1.0000 0.21980  0.37690  0.16250  Biso   1.000  H
  H24      1.0000 0.21980  0.12310  0.66250  Biso   1.000  H
  C41      1.0000 0.84440  0.74780  0.88050  Biso   1.000  C
  C42      1.0000 0.84440  0.75220  0.38050  Biso   1.000  C
  C43      1.0000 0.15560  0.25220  0.11950  Biso   1.000  C
  C44      1.0000 0.15560  0.24780  0.61950  Biso   1.000  C
  H25      1.0000 0.81140  0.78090  0.81140  Biso   1.000  H
  H26      1.0000 0.81140  0.71910  0.31140  Biso   1.000  H
  H27      1.0000 0.18860  0.21910  0.18860  Biso   1.000  H
  H28      1.0000 0.18860  0.28090  0.68860  Biso   1.000  H
  C45      1.0000 0.91190  0.79190  0.96590  Biso   1.000  C
  C46      1.0000 0.91190  0.70810  0.46590  Biso   1.000  C
  C47      1.0000 0.08810  0.20810  0.03410  Biso   1.000  C
  C48      1.0000 0.08810  0.29190  0.53410  Biso   1.000  C
  H29      1.0000 0.92550  0.85540  0.95220  Biso   1.000  H
  H30      1.0000 0.92550  0.64460  0.45220  Biso   1.000  H
  H31      1.0000 0.07450  0.14460  0.04780  Biso   1.000  H
  H32      1.0000 0.07450  0.35540  0.54780  Biso   1.000  H
  C49      1.0000 0.70240  0.46540  0.42930  Biso   1.000  C
  C50      1.0000 0.70240  0.03460  0.92930  Biso   1.000  C
  C51      1.0000 0.29760  0.53460  0.57070  Biso   1.000  C
  C52      1.0000 0.29760  0.96540  0.07070  Biso   1.000  C
  C53      1.0000 0.42670  0.31830  0.30550  Biso   1.000  C
  C54      1.0000 0.42670  0.18170  0.80550  Biso   1.000  C
  C55      1.0000 0.57330  0.68170  0.69450  Biso   1.000  C
  C56      1.0000 0.57330  0.81830  0.19450  Biso   1.000  C
  H33      1.0000 0.41420  0.38250  0.29720  Biso   1.000  H
  H34      1.0000 0.41420  0.11750  0.79720  Biso   1.000  H
  H35      1.0000 0.58580  0.61750  0.70280  Biso   1.000  H
  H36      1.0000 0.58580  0.88250  0.20280  Biso   1.000  H
  C57      1.0000 0.50120  0.27620  0.23170  Biso   1.000  C
  C58      1.0000 0.50120  0.22380  0.73170  Biso   1.000  C
  C59      1.0000 0.49880  0.72380  0.76830  Biso   1.000  C
  C60      1.0000 0.49880  0.77620  0.26830  Biso   1.000  C
  H37      1.0000 0.53930  0.31180  0.17300  Biso   1.000  H
  H38      1.0000 0.53930  0.18820  0.67300  Biso   1.000  H
  H39      1.0000 0.46070  0.68820  0.82700  Biso   1.000  H
  H40      1.0000 0.46070  0.81180  0.32700  Biso   1.000  H
  C61      1.0000 0.51950  0.18200  0.24390  Biso   1.000  C
  C62      1.0000 0.51950  0.31800  0.74390  Biso   1.000  C
  C63      1.0000 0.48050  0.81800  0.75610  Biso   1.000  C
  C64      1.0000 0.48050  0.68200  0.25610  Biso   1.000  C
  H41      1.0000 0.57020  0.15330  0.19360  Biso   1.000  H
  H42      1.0000 0.57020  0.34670  0.69360  Biso   1.000  H
  H43      1.0000 0.42980  0.84670  0.80640  Biso   1.000  H
  H44      1.0000 0.42980  0.65330  0.30640  Biso   1.000  H
  C65      1.0000 0.46350  0.12980  0.32990  Biso   1.000  C
  C66      1.0000 0.46350  0.37020  0.82990  Biso   1.000  C
  C67      1.0000 0.53650  0.87020  0.67010  Biso   1.000  C
  C68      1.0000 0.53650  0.62980  0.17010  Biso   1.000  C
  C69      1.0000 0.38910  0.17190  0.40370  Biso   1.000  C
  C70      1.0000 0.38910  0.32810  0.90370  Biso   1.000  C
  C71      1.0000 0.61090  0.82810  0.59630  Biso   1.000  C
  C72      1.0000 0.61090  0.67190  0.09630  Biso   1.000  C
  H45      1.0000 0.35090  0.13630  0.46230  Biso   1.000  H
  H46      1.0000 0.35090  0.36370  0.96230  Biso   1.000  H
  H47      1.0000 0.64910  0.86370  0.53770  Biso   1.000  H
  H48      1.0000 0.64910  0.63630  0.03770  Biso   1.000  H
  C73      1.0000 0.37070  0.26610  0.39150  Biso   1.000  C
  C74      1.0000 0.37070  0.23390  0.89150  Biso   1.000  C
  C75      1.0000 0.62930  0.73390  0.60850  Biso   1.000  C
  C76      1.0000 0.62930  0.76610  0.10850  Biso   1.000  C
  H49      1.0000 0.32000  0.29480  0.44180  Biso   1.000  H
  H50      1.0000 0.32000  0.20520  0.94180  Biso   1.000  H
  H51      1.0000 0.68000  0.70520  0.55820  Biso   1.000  H
  H52      1.0000 0.68000  0.79480  0.05820  Biso   1.000  H
