data_image0
_cell_length_a       16.65
_cell_length_b       9.229
_cell_length_c       15.225
_cell_angle_alpha    90
_cell_angle_beta     107.138
_cell_angle_gamma    90

_symmetry_space_group_name_H-M    "P 1"
_symmetry_int_tables_number       1

loop_
  _symmetry_equiv_pos_as_xyz
  'x, y, z'

loop_
  _atom_site_label
  _atom_site_occupancy
  _atom_site_fract_x
  _atom_site_fract_y
  _atom_site_fract_z
  _atom_site_thermal_displace_type
  _atom_site_B_iso_or_equiv
  _atom_site_type_symbol
  Cu1      1.0000 0.18252  0.15572  0.86912  Biso   1.000  Cu
  Cu2      1.0000 0.18252  0.34428  0.36912  Biso   1.000  Cu
  Cu3      1.0000 0.81748  0.84428  0.13088  Biso   1.000  Cu
  Cu4      1.0000 0.81748  0.65572  0.63088  Biso   1.000  Cu
  S1       1.0000 0.18963  0.55588  0.78397  Biso   1.000  S
  S2       1.0000 0.18963  0.94412  0.28397  Biso   1.000  S
  S3       1.0000 0.81037  0.44412  0.21603  Biso   1.000  S
  S4       1.0000 0.81037  0.05588  0.71603  Biso   1.000  S
  F1       1.0000 0.35190  0.60950  0.84670  Biso   1.000  F
  F2       1.0000 0.35190  0.89050  0.34670  Biso   1.000  F
  F3       1.0000 0.64810  0.39050  0.15330  Biso   1.000  F
  F4       1.0000 0.64810  0.10950  0.65330  Biso   1.000  F
  F5       1.0000 0.28250  0.76640  0.75070  Biso   1.000  F
  F6       1.0000 0.28250  0.73360  0.25070  Biso   1.000  F
  F7       1.0000 0.71750  0.23360  0.24930  Biso   1.000  F
  F8       1.0000 0.71750  0.26640  0.74930  Biso   1.000  F
  F9       1.0000 0.30850  0.55630  0.70420  Biso   1.000  F
  F10      1.0000 0.30850  0.94370  0.20420  Biso   1.000  F
  F11      1.0000 0.69150  0.44370  0.29580  Biso   1.000  F
  F12      1.0000 0.69150  0.05630  0.79580  Biso   1.000  F
  O1       1.0000 0.21160  0.40710  0.80600  Biso   1.000  O
  O2       1.0000 0.21160  0.09290  0.30600  Biso   1.000  O
  O3       1.0000 0.78840  0.59290  0.19400  Biso   1.000  O
  O4       1.0000 0.78840  0.90710  0.69400  Biso   1.000  O
  O5       1.0000 0.17640  0.63970  0.85760  Biso   1.000  O
  O6       1.0000 0.17640  0.86030  0.35760  Biso   1.000  O
  O7       1.0000 0.82360  0.36030  0.14240  Biso   1.000  O
  O8       1.0000 0.82360  0.13970  0.64240  Biso   1.000  O
  O9       1.0000 0.13100  0.57870  0.69510  Biso   1.000  O
  O10      1.0000 0.13100  0.92130  0.19510  Biso   1.000  O
  O11      1.0000 0.86900  0.42130  0.30490  Biso   1.000  O
  O12      1.0000 0.86900  0.07870  0.80490  Biso   1.000  O
  N1       1.0000 0.30310  0.15620  0.95450  Biso   1.000  N
  N2       1.0000 0.30310  0.34380  0.45450  Biso   1.000  N
  N3       1.0000 0.69690  0.84380  0.04550  Biso   1.000  N
  N4       1.0000 0.69690  0.65620  0.54550  Biso   1.000  N
  N5       1.0000 0.16720  0.07210  0.74370  Biso   1.000  N
  N6       1.0000 0.16720  0.42790  0.24370  Biso   1.000  N
  N7       1.0000 0.83280  0.92790  0.25630  Biso   1.000  N
  N8       1.0000 0.83280  0.57210  0.75630  Biso   1.000  N
  N9       1.0000 0.90670  0.69770  0.57140  Biso   1.000  N
  N10      1.0000 0.90670  0.80230  0.07140  Biso   1.000  N
  N11      1.0000 0.09330  0.30230  0.42860  Biso   1.000  N
  N12      1.0000 0.09330  0.19770  0.92860  Biso   1.000  N
  N13      1.0000 0.43170  0.63360  0.11630  Biso   1.000  N
  N14      1.0000 0.43170  0.86640  0.61630  Biso   1.000  N
  N15      1.0000 0.56830  0.36640  0.88370  Biso   1.000  N
  N16      1.0000 0.56830  0.13360  0.38370  Biso   1.000  N
  C1       1.0000 0.50630  0.62640  0.17690  Biso   1.000  C
  C2       1.0000 0.50630  0.87360  0.67690  Biso   1.000  C
  C3       1.0000 0.49370  0.37360  0.82310  Biso   1.000  C
  C4       1.0000 0.49370  0.12640  0.32310  Biso   1.000  C
  H1       1.0000 0.52550  0.53450  0.20270  Biso   1.000  H
  H2       1.0000 0.52550  0.96550  0.70270  Biso   1.000  H
  H3       1.0000 0.47450  0.46550  0.79730  Biso   1.000  H
  H4       1.0000 0.47450  0.03450  0.29730  Biso   1.000  H
  C5       1.0000 0.55890  0.74430  0.20570  Biso   1.000  C
  C6       1.0000 0.55890  0.75570  0.70570  Biso   1.000  C
  C7       1.0000 0.44110  0.25570  0.79430  Biso   1.000  C
  C8       1.0000 0.44110  0.24430  0.29430  Biso   1.000  C
  H5       1.0000 0.61190  0.73240  0.25060  Biso   1.000  H
  H6       1.0000 0.61190  0.76760  0.75060  Biso   1.000  H
  H7       1.0000 0.38810  0.26760  0.74940  Biso   1.000  H
  H8       1.0000 0.38810  0.23240  0.24940  Biso   1.000  H
  C9       1.0000 0.53420  0.87740  0.16920  Biso   1.000  C
  C10      1.0000 0.53420  0.62260  0.66920  Biso   1.000  C
  C11      1.0000 0.46580  0.12260  0.83080  Biso   1.000  C
  C12      1.0000 0.46580  0.37740  0.33080  Biso   1.000  C
  H9       1.0000 0.57010  0.95890  0.18760  Biso   1.000  H
  H10      1.0000 0.57010  0.54110  0.68760  Biso   1.000  H
  H11      1.0000 0.42990  0.04110  0.81240  Biso   1.000  H
  H12      1.0000 0.42990  0.45890  0.31240  Biso   1.000  H
  C13      1.0000 0.45440  0.89300  0.10340  Biso   1.000  C
  C14      1.0000 0.45440  0.60700  0.60340  Biso   1.000  C
  C15      1.0000 0.54560  0.10700  0.89660  Biso   1.000  C
  C16      1.0000 0.54560  0.39300  0.39660  Biso   1.000  C
  C17      1.0000 0.40540  0.76590  0.08050  Biso   1.000  C
  C18      1.0000 0.40540  0.73410  0.58050  Biso   1.000  C
  C19      1.0000 0.59460  0.23410  0.91950  Biso   1.000  C
  C20      1.0000 0.59460  0.26590  0.41950  Biso   1.000  C
  C21      1.0000 0.32420  0.77430  0.01470  Biso   1.000  C
  C22      1.0000 0.32420  0.72570  0.51470  Biso   1.000  C
  C23      1.0000 0.67580  0.22570  0.98530  Biso   1.000  C
  C24      1.0000 0.67580  0.27430  0.48530  Biso   1.000  C
  H13      1.0000 0.29160  0.68850  0.99870  Biso   1.000  H
  H14      1.0000 0.29160  0.81150  0.49870  Biso   1.000  H
  H15      1.0000 0.70840  0.31150  0.00130  Biso   1.000  H
  H16      1.0000 0.70840  0.18850  0.50130  Biso   1.000  H
  C25      1.0000 0.29260  0.90030  0.97500  Biso   1.000  C
  C26      1.0000 0.29260  0.59970  0.47500  Biso   1.000  C
  C27      1.0000 0.70740  0.09970  0.02500  Biso   1.000  C
  C28      1.0000 0.70740  0.40030  0.52500  Biso   1.000  C
  H17      1.0000 0.23820  0.90200  0.93160  Biso   1.000  H
  H18      1.0000 0.23820  0.59800  0.43160  Biso   1.000  H
  H19      1.0000 0.76180  0.09800  0.06840  Biso   1.000  H
  H20      1.0000 0.76180  0.40200  0.56840  Biso   1.000  H
  C29      1.0000 0.33980  0.03200  0.99710  Biso   1.000  C
  C30      1.0000 0.33980  0.46800  0.49710  Biso   1.000  C
  C31      1.0000 0.66020  0.96800  0.00290  Biso   1.000  C
  C32      1.0000 0.66020  0.53200  0.50290  Biso   1.000  C
  C33      1.0000 0.42170  0.02880  0.06070  Biso   1.000  C
  C34      1.0000 0.42170  0.47120  0.56070  Biso   1.000  C
  C35      1.0000 0.57830  0.97120  0.93930  Biso   1.000  C
  C36      1.0000 0.57830  0.52880  0.43930  Biso   1.000  C
  C37      1.0000 0.46570  0.15960  0.07690  Biso   1.000  C
  C38      1.0000 0.46570  0.34040  0.57690  Biso   1.000  C
  C39      1.0000 0.53430  0.84040  0.92310  Biso   1.000  C
  C40      1.0000 0.53430  0.65960  0.42310  Biso   1.000  C
  H21      1.0000 0.52120  0.16220  0.11760  Biso   1.000  H
  H22      1.0000 0.52120  0.33780  0.61760  Biso   1.000  H
  H23      1.0000 0.47880  0.83780  0.88240  Biso   1.000  H
  H24      1.0000 0.47880  0.66220  0.38240  Biso   1.000  H
  C41      1.0000 0.42950  0.28390  0.03470  Biso   1.000  C
  C42      1.0000 0.42950  0.21610  0.53470  Biso   1.000  C
  C43      1.0000 0.57050  0.71610  0.96530  Biso   1.000  C
  C44      1.0000 0.57050  0.78390  0.46530  Biso   1.000  C
  H25      1.0000 0.45890  0.37330  0.04650  Biso   1.000  H
  H26      1.0000 0.45890  0.12670  0.54650  Biso   1.000  H
  H27      1.0000 0.54110  0.62670  0.95350  Biso   1.000  H
  H28      1.0000 0.54110  0.87330  0.45350  Biso   1.000  H
  C45      1.0000 0.34840  0.27720  0.97380  Biso   1.000  C
  C46      1.0000 0.34840  0.22280  0.47380  Biso   1.000  C
  C47      1.0000 0.65160  0.72280  0.02620  Biso   1.000  C
  C48      1.0000 0.65160  0.77720  0.52620  Biso   1.000  C
  H29      1.0000 0.32410  0.36410  0.94430  Biso   1.000  H
  H30      1.0000 0.32410  0.13590  0.44430  Biso   1.000  H
  H31      1.0000 0.67590  0.63590  0.05570  Biso   1.000  H
  H32      1.0000 0.67590  0.86410  0.55570  Biso   1.000  H
  C49      1.0000 0.22210  0.11310  0.70030  Biso   1.000  C
  C50      1.0000 0.22210  0.38690  0.20030  Biso   1.000  C
  C51      1.0000 0.77790  0.88690  0.29970  Biso   1.000  C
  C52      1.0000 0.77790  0.61310  0.79970  Biso   1.000  C
  H33      1.0000 0.26480  0.17910  0.73130  Biso   1.000  H
  H34      1.0000 0.26480  0.32090  0.23130  Biso   1.000  H
  H35      1.0000 0.73520  0.82090  0.26870  Biso   1.000  H
  H36      1.0000 0.73520  0.67910  0.76870  Biso   1.000  H
  C53      1.0000 0.22220  0.06750  0.61390  Biso   1.000  C
  C54      1.0000 0.22220  0.43250  0.11390  Biso   1.000  C
  C55      1.0000 0.77780  0.93250  0.38610  Biso   1.000  C
  C56      1.0000 0.77780  0.56750  0.88610  Biso   1.000  C
  H37      1.0000 0.26400  0.10000  0.58750  Biso   1.000  H
  H38      1.0000 0.26400  0.40000  0.08750  Biso   1.000  H
  H39      1.0000 0.73600  0.90000  0.41250  Biso   1.000  H
  H40      1.0000 0.73600  0.60000  0.91250  Biso   1.000  H
  C57      1.0000 0.16040  0.97440  0.56740  Biso   1.000  C
  C58      1.0000 0.16040  0.52560  0.06740  Biso   1.000  C
  C59      1.0000 0.83960  0.02560  0.43260  Biso   1.000  C
  C60      1.0000 0.83960  0.47440  0.93260  Biso   1.000  C
  H41      1.0000 0.15820  0.94290  0.50730  Biso   1.000  H
  H42      1.0000 0.15820  0.55710  0.00730  Biso   1.000  H
  H43      1.0000 0.84180  0.05710  0.49270  Biso   1.000  H
  H44      1.0000 0.84180  0.44290  0.99270  Biso   1.000  H
  C61      1.0000 0.09990  0.92530  0.60850  Biso   1.000  C
  C62      1.0000 0.09990  0.57470  0.10850  Biso   1.000  C
  C63      1.0000 0.90010  0.07470  0.39150  Biso   1.000  C
  C64      1.0000 0.90010  0.42530  0.89150  Biso   1.000  C
  C65      1.0000 0.10590  0.97700  0.69710  Biso   1.000  C
  C66      1.0000 0.10590  0.52300  0.19710  Biso   1.000  C
  C67      1.0000 0.89410  0.02300  0.30290  Biso   1.000  C
  C68      1.0000 0.89410  0.47700  0.80290  Biso   1.000  C
  C69      1.0000 0.04570  0.93220  0.74170  Biso   1.000  C
  C70      1.0000 0.04570  0.56780  0.24170  Biso   1.000  C
  C71      1.0000 0.95430  0.06780  0.25830  Biso   1.000  C
  C72      1.0000 0.95430  0.43220  0.75830  Biso   1.000  C
  H45      1.0000 0.05000  0.96680  0.80160  Biso   1.000  H
  H46      1.0000 0.05000  0.53320  0.30160  Biso   1.000  H
  H47      1.0000 0.95000  0.03320  0.19840  Biso   1.000  H
  H48      1.0000 0.95000  0.46680  0.69840  Biso   1.000  H
  C73      1.0000 0.98280  0.84120  0.69970  Biso   1.000  C
  C74      1.0000 0.98280  0.65880  0.19970  Biso   1.000  C
  C75      1.0000 0.01720  0.15880  0.30030  Biso   1.000  C
  C76      1.0000 0.01720  0.34120  0.80030  Biso   1.000  C
  H49      1.0000 0.94360  0.81250  0.73080  Biso   1.000  H
  H50      1.0000 0.94360  0.68750  0.23080  Biso   1.000  H
  H51      1.0000 0.05640  0.18750  0.26920  Biso   1.000  H
  H52      1.0000 0.05640  0.31250  0.76920  Biso   1.000  H
  C77      1.0000 0.97390  0.78770  0.61030  Biso   1.000  C
  C78      1.0000 0.97390  0.71230  0.11030  Biso   1.000  C
  C79      1.0000 0.02610  0.21230  0.38970  Biso   1.000  C
  C80      1.0000 0.02610  0.28770  0.88970  Biso   1.000  C
  C81      1.0000 0.03190  0.82700  0.56330  Biso   1.000  C
  C82      1.0000 0.03190  0.67300  0.06330  Biso   1.000  C
  C83      1.0000 0.96810  0.17300  0.43670  Biso   1.000  C
  C84      1.0000 0.96810  0.32700  0.93670  Biso   1.000  C
  C85      1.0000 0.02240  0.76650  0.47660  Biso   1.000  C
  C86      1.0000 0.02240  0.73350  0.97660  Biso   1.000  C
  C87      1.0000 0.97760  0.23350  0.52340  Biso   1.000  C
  C88      1.0000 0.97760  0.26650  0.02340  Biso   1.000  C
  H53      1.0000 0.06090  0.78980  0.44350  Biso   1.000  H
  H54      1.0000 0.06090  0.71020  0.94350  Biso   1.000  H
  H55      1.0000 0.93910  0.21020  0.55650  Biso   1.000  H
  H56      1.0000 0.93910  0.28980  0.05650  Biso   1.000  H
  C89      1.0000 0.95760  0.67400  0.44000  Biso   1.000  C
  C90      1.0000 0.95760  0.82600  0.94000  Biso   1.000  C
  C91      1.0000 0.04240  0.32600  0.56000  Biso   1.000  C
  C92      1.0000 0.04240  0.17400  0.06000  Biso   1.000  C
  H57      1.0000 0.95060  0.63150  0.38140  Biso   1.000  H
  H58      1.0000 0.95060  0.86850  0.88140  Biso   1.000  H
  H59      1.0000 0.04940  0.36850  0.61860  Biso   1.000  H
  H60      1.0000 0.04940  0.13150  0.11860  Biso   1.000  H
  C93      1.0000 0.90150  0.64240  0.48950  Biso   1.000  C
  C94      1.0000 0.90150  0.85760  0.98950  Biso   1.000  C
  C95      1.0000 0.09850  0.35760  0.51050  Biso   1.000  C
  C96      1.0000 0.09850  0.14240  0.01050  Biso   1.000  C
  H61      1.0000 0.85670  0.57730  0.46290  Biso   1.000  H
  H62      1.0000 0.85670  0.92270  0.96290  Biso   1.000  H
  H63      1.0000 0.14330  0.42270  0.53710  Biso   1.000  H
  H64      1.0000 0.14330  0.07730  0.03710  Biso   1.000  H
  C97      1.0000 0.28740  0.62620  0.77100  Biso   1.000  C
  C98      1.0000 0.28740  0.87380  0.27100  Biso   1.000  C
  C99      1.0000 0.71260  0.37380  0.22900  Biso   1.000  C
  C100     1.0000 0.71260  0.12620  0.72900  Biso   1.000  C
