data_image0
_cell_length_a       11.9433
_cell_length_b       13.227
_cell_length_c       15.0253
_cell_angle_alpha    98.87
_cell_angle_beta     108.65
_cell_angle_gamma    116.392

_symmetry_space_group_name_H-M    "P 1"
_symmetry_int_tables_number       1

loop_
  _symmetry_equiv_pos_as_xyz
  'x, y, z'

loop_
  _atom_site_label
  _atom_site_occupancy
  _atom_site_fract_x
  _atom_site_fract_y
  _atom_site_fract_z
  _atom_site_thermal_displace_type
  _atom_site_B_iso_or_equiv
  _atom_site_type_symbol
  Cu1      1.0000 0.64697  0.94474  0.81154  Biso   1.000  Cu
  Cu2      1.0000 0.35303  0.05526  0.18846  Biso   1.000  Cu
  Cu3      1.0000 0.89958  0.02095  0.74341  Biso   1.000  Cu
  Cu4      1.0000 0.10042  0.97905  0.25659  Biso   1.000  Cu
  Cu5      1.0000 0.57765  0.79439  0.59463  Biso   1.000  Cu
  Cu6      1.0000 0.42235  0.20561  0.40537  Biso   1.000  Cu
  N1       1.0000 0.73250  0.09830  0.79255  Biso   1.000  N
  N2       1.0000 0.26750  0.90170  0.20745  Biso   1.000  N
  N3       1.0000 0.83610  0.12940  0.76374  Biso   1.000  N
  N4       1.0000 0.16390  0.87060  0.23626  Biso   1.000  N
  N5       1.0000 0.47130  0.79370  0.73830  Biso   1.000  N
  N6       1.0000 0.52870  0.20630  0.26170  Biso   1.000  N
  N7       1.0000 0.43880  0.73200  0.64350  Biso   1.000  N
  N8       1.0000 0.56120  0.26800  0.35650  Biso   1.000  N
  N9       1.0000 0.72970  0.81110  0.56595  Biso   1.000  N
  N10      1.0000 0.27030  0.18890  0.43405  Biso   1.000  N
  N11      1.0000 0.86300  0.89690  0.63190  Biso   1.000  N
  N12      1.0000 0.13700  0.10310  0.36810  Biso   1.000  N
  N13      1.0000 0.77390  0.95080  0.94630  Biso   1.000  N
  N14      1.0000 0.22610  0.04920  0.05370  Biso   1.000  N
  N15      1.0000 0.95330  0.96380  0.12610  Biso   1.000  N
  N16      1.0000 0.04670  0.03620  0.87390  Biso   1.000  N
  N17      1.0000 0.52930  0.92030  0.53680  Biso   1.000  N
  N18      1.0000 0.47070  0.07970  0.46320  Biso   1.000  N
  C1       1.0000 0.70110  0.18330  0.79420  Biso   1.000  C
  C2       1.0000 0.29890  0.81670  0.20580  Biso   1.000  C
  C3       1.0000 0.78320  0.27280  0.76660  Biso   1.000  C
  C4       1.0000 0.21680  0.72720  0.23340  Biso   1.000  C
  H1       1.0000 0.78270  0.34340  0.76170  Biso   1.000  H
  H2       1.0000 0.21730  0.65660  0.23830  Biso   1.000  H
  C5       1.0000 0.86620  0.23370  0.74820  Biso   1.000  C
  C6       1.0000 0.13380  0.76630  0.25180  Biso   1.000  C
  C7       1.0000 0.59070  0.17410  0.82410  Biso   1.000  C
  C8       1.0000 0.40930  0.82590  0.17590  Biso   1.000  C
  C9       1.0000 0.97650  0.29130  0.71580  Biso   1.000  C
  C10      1.0000 0.02350  0.70870  0.28420  Biso   1.000  C
  C11      1.0000 0.35600  0.74010  0.75230  Biso   1.000  C
  C12      1.0000 0.64400  0.25990  0.24770  Biso   1.000  C
  C13      1.0000 0.24780  0.64390  0.66800  Biso   1.000  C
  C14      1.0000 0.75220  0.35610  0.33200  Biso   1.000  C
  H3       1.0000 0.15560  0.59070  0.65800  Biso   1.000  H
  H4       1.0000 0.84440  0.40930  0.34200  Biso   1.000  H
  C15      1.0000 0.30430  0.64280  0.60150  Biso   1.000  C
  C16      1.0000 0.69570  0.35720  0.39850  Biso   1.000  C
  C17      1.0000 0.35450  0.78720  0.84760  Biso   1.000  C
  C18      1.0000 0.64550  0.21280  0.15240  Biso   1.000  C
  C19      1.0000 0.23590  0.56220  0.49680  Biso   1.000  C
  C20      1.0000 0.76410  0.43780  0.50320  Biso   1.000  C
  C21      1.0000 0.73290  0.74990  0.48820  Biso   1.000  C
  C22      1.0000 0.26710  0.25010  0.51180  Biso   1.000  C
  C23      1.0000 0.86850  0.79430  0.50210  Biso   1.000  C
  C24      1.0000 0.13150  0.20570  0.49790  Biso   1.000  C
  H5       1.0000 0.90070  0.76760  0.45890  Biso   1.000  H
  H6       1.0000 0.09930  0.23240  0.54110  Biso   1.000  H
  C25      1.0000 0.94530  0.88580  0.59290  Biso   1.000  C
  C26      1.0000 0.05470  0.11420  0.40710  Biso   1.000  C
  C27      1.0000 0.60220  0.65270  0.40110  Biso   1.000  C
  C28      1.0000 0.39780  0.34730  0.59890  Biso   1.000  C
  C29      1.0000 0.09950  0.96540  0.64840  Biso   1.000  C
  C30      1.0000 0.90050  0.03460  0.35160  Biso   1.000  C
  C31      1.0000 0.75940  0.85270  0.96640  Biso   1.000  C
  C32      1.0000 0.24060  0.14730  0.03360  Biso   1.000  C
  H7       1.0000 0.68490  0.77600  0.91840  Biso   1.000  H
  H8       1.0000 0.31510  0.22400  0.08160  Biso   1.000  H
  C33      1.0000 0.84940  0.85870  0.05500  Biso   1.000  C
  C34      1.0000 0.15060  0.14130  0.94500  Biso   1.000  C
  H9       1.0000 0.83680  0.78610  0.06540  Biso   1.000  H
  H10      1.0000 0.16320  0.21390  0.93460  Biso   1.000  H
  C35      1.0000 0.96490  0.06180  0.10700  Biso   1.000  C
  C36      1.0000 0.03510  0.93820  0.89300  Biso   1.000  C
  H11      1.0000 0.03620  0.13860  0.15630  Biso   1.000  H
  H12      1.0000 0.96380  0.86140  0.84370  Biso   1.000  H
  C37      1.0000 0.87680  0.05530  0.01790  Biso   1.000  C
  C38      1.0000 0.12320  0.94470  0.98210  Biso   1.000  C
  H13      1.0000 0.88990  0.12790  0.00720  Biso   1.000  H
  H14      1.0000 0.11010  0.87210  0.99280  Biso   1.000  H
  C39      1.0000 0.42860  0.93500  0.54270  Biso   1.000  C
  C40      1.0000 0.57140  0.06500  0.45730  Biso   1.000  C
  H15      1.0000 0.37520  0.88980  0.57300  Biso   1.000  H
  H16      1.0000 0.62480  0.11020  0.42700  Biso   1.000  H
  C41      1.0000 0.60030  0.98600  0.49380  Biso   1.000  C
  C42      1.0000 0.39970  0.01400  0.50620  Biso   1.000  C
  H17      1.0000 0.67330  0.97820  0.48810  Biso   1.000  H
  H18      1.0000 0.32670  0.02180  0.51190  Biso   1.000  H
  F1       1.0000 0.59530  0.27470  0.84520  Biso   1.000  F
  F2       1.0000 0.40470  0.72530  0.15480  Biso   1.000  F
  F3       1.0000 0.46580  0.09310  0.75590  Biso   1.000  F
  F4       1.0000 0.53420  0.90690  0.24410  Biso   1.000  F
  F5       1.0000 0.60090  0.14380  0.90340  Biso   1.000  F
  F6       1.0000 0.39910  0.85620  0.09660  Biso   1.000  F
  F7       1.0000 0.93220  0.24620  0.61750  Biso   1.000  F
  F8       1.0000 0.06780  0.75380  0.38250  Biso   1.000  F
  F9       1.0000 0.08230  0.27880  0.75600  Biso   1.000  F
  F10      1.0000 0.91770  0.72120  0.24400  Biso   1.000  F
  F11      1.0000 0.02510  0.40750  0.73640  Biso   1.000  F
  F12      1.0000 0.97490  0.59250  0.26360  Biso   1.000  F
  F13      1.0000 0.28160  0.69530  0.87390  Biso   1.000  F
  F14      1.0000 0.71840  0.30470  0.12610  Biso   1.000  F
  F15      1.0000 0.47630  0.84740  0.92470  Biso   1.000  F
  F16      1.0000 0.52370  0.15260  0.07530  Biso   1.000  F
  F17      1.0000 0.29610  0.84550  0.84460  Biso   1.000  F
  F18      1.0000 0.70390  0.15450  0.15540  Biso   1.000  F
  F19      1.0000 0.25460  0.61950  0.43280  Biso   1.000  F
  F20      1.0000 0.74540  0.38050  0.56720  Biso   1.000  F
  F21      1.0000 0.28780  0.49700  0.47890  Biso   1.000  F
  F22      1.0000 0.71220  0.50300  0.52110  Biso   1.000  F
  F23      1.0000 0.10760  0.49240  0.46390  Biso   1.000  F
  F24      1.0000 0.89240  0.50760  0.53610  Biso   1.000  F
  F25      1.0000 0.52150  0.56660  0.42500  Biso   1.000  F
  F26      1.0000 0.47850  0.43340  0.57500  Biso   1.000  F
  F27      1.0000 0.62810  0.59900  0.33570  Biso   1.000  F
  F28      1.0000 0.37190  0.40100  0.66430  Biso   1.000  F
  F29      1.0000 0.52530  0.69150  0.35590  Biso   1.000  F
  F30      1.0000 0.47470  0.30850  0.64410  Biso   1.000  F
  F31      1.0000 0.14190  0.08160  0.68750  Biso   1.000  F
  F32      1.0000 0.85810  0.91840  0.31250  Biso   1.000  F
  F33      1.0000 0.15920  0.96080  0.58940  Biso   1.000  F
  F34      1.0000 0.84080  0.03920  0.41060  Biso   1.000  F
  F35      1.0000 0.15310  0.93950  0.72570  Biso   1.000  F
  F36      1.0000 0.84690  0.06050  0.27430  Biso   1.000  F
  C43      1.0000 0.93390  0.62340  0.81340  Biso   1.000  C
  C44      1.0000 0.06610  0.37660  0.18660  Biso   1.000  C
  H19      1.0000 0.98230  0.63900  0.77300  Biso   1.000  H
  H20      1.0000 0.01770  0.36100  0.22700  Biso   1.000  H
  C45      1.0000 0.99600  0.62120  0.90580  Biso   1.000  C
  C46      1.0000 0.00400  0.37880  0.09420  Biso   1.000  C
  H21      1.0000 0.08770  0.63610  0.93010  Biso   1.000  H
  H22      1.0000 0.91230  0.36390  0.06990  Biso   1.000  H
  C47      1.0000 0.92480  0.59710  0.96400  Biso   1.000  C
  C48      1.0000 0.07520  0.40290  0.03600  Biso   1.000  C
  H23      1.0000 0.96730  0.59560  0.02870  Biso   1.000  H
  H24      1.0000 0.03270  0.40440  0.97130  Biso   1.000  H
  C49      1.0000 0.79220  0.57550  0.92740  Biso   1.000  C
  C50      1.0000 0.20780  0.42450  0.07260  Biso   1.000  C
  H25      1.0000 0.74200  0.55780  0.96650  Biso   1.000  H
  H26      1.0000 0.25800  0.44220  0.03350  Biso   1.000  H
  C51      1.0000 0.73290  0.57930  0.83590  Biso   1.000  C
  C52      1.0000 0.26710  0.42070  0.16410  Biso   1.000  C
  H27      1.0000 0.64140  0.56490  0.81150  Biso   1.000  H
  H28      1.0000 0.35860  0.43510  0.18850  Biso   1.000  H
  C53      1.0000 0.80250  0.60350  0.77810  Biso   1.000  C
  C54      1.0000 0.19750  0.39650  0.22190  Biso   1.000  C
  H29      1.0000 0.76030  0.60660  0.71400  Biso   1.000  H
  H30      1.0000 0.23970  0.39340  0.28600  Biso   1.000  H
  C55      1.0000 0.57290  0.48610  0.08390  Biso   1.000  C
  C56      1.0000 0.42710  0.51390  0.91610  Biso   1.000  C
  H31      1.0000 0.62380  0.47650  0.14150  Biso   1.000  H
  H32      1.0000 0.37620  0.52350  0.85850  Biso   1.000  H
  C57      1.0000 0.49880  0.39540  0.99260  Biso   1.000  C
  C58      1.0000 0.50120  0.60460  0.00740  Biso   1.000  C
  H33      1.0000 0.49730  0.32230  0.98760  Biso   1.000  H
  H34      1.0000 0.50270  0.67770  0.01240  Biso   1.000  H
  C59      1.0000 0.42680  0.40900  0.90840  Biso   1.000  C
  C60      1.0000 0.57320  0.59100  0.09160  Biso   1.000  C
  H35      1.0000 0.37710  0.34620  0.84510  Biso   1.000  H
  H36      1.0000 0.62290  0.65380  0.15490  Biso   1.000  H
