data_image0
_cell_length_a       13.421
_cell_length_b       8.007
_cell_length_c       15.313
_cell_angle_alpha    90
_cell_angle_beta     103.86
_cell_angle_gamma    90

_symmetry_space_group_name_H-M    "P 1"
_symmetry_int_tables_number       1

loop_
  _symmetry_equiv_pos_as_xyz
  'x, y, z'

loop_
  _atom_site_label
  _atom_site_occupancy
  _atom_site_fract_x
  _atom_site_fract_y
  _atom_site_fract_z
  _atom_site_thermal_displace_type
  _atom_site_B_iso_or_equiv
  _atom_site_type_symbol
  Cu1      1.0000 0.73110  0.89162  0.87049  Biso   1.000  Cu
  Cu2      1.0000 0.73110  0.60838  0.37049  Biso   1.000  Cu
  Cu3      1.0000 0.26890  0.10838  0.12951  Biso   1.000  Cu
  Cu4      1.0000 0.26890  0.39162  0.62951  Biso   1.000  Cu
  S1       1.0000 0.78049  0.46858  0.81777  Biso   1.000  S
  S2       1.0000 0.78049  0.03142  0.31777  Biso   1.000  S
  S3       1.0000 0.21951  0.53142  0.18223  Biso   1.000  S
  S4       1.0000 0.21951  0.96858  0.68223  Biso   1.000  S
  F1       1.0000 0.96930  0.48050  0.80130  Biso   1.000  F
  F2       1.0000 0.96930  0.01950  0.30130  Biso   1.000  F
  F3       1.0000 0.03070  0.51950  0.19870  Biso   1.000  F
  F4       1.0000 0.03070  0.98050  0.69870  Biso   1.000  F
  F5       1.0000 0.90960  0.23100  0.80160  Biso   1.000  F
  F6       1.0000 0.90960  0.26900  0.30160  Biso   1.000  F
  F7       1.0000 0.09040  0.76900  0.19840  Biso   1.000  F
  F8       1.0000 0.09040  0.73100  0.69840  Biso   1.000  F
  F9       1.0000 0.95280  0.36980  0.92532  Biso   1.000  F
  F10      1.0000 0.95280  0.13020  0.42532  Biso   1.000  F
  F11      1.0000 0.04720  0.63020  0.07468  Biso   1.000  F
  F12      1.0000 0.04720  0.86980  0.57468  Biso   1.000  F
  O1       1.0000 0.72680  0.34770  0.85910  Biso   1.000  O
  O2       1.0000 0.72680  0.15230  0.35910  Biso   1.000  O
  O3       1.0000 0.27320  0.65230  0.14090  Biso   1.000  O
  O4       1.0000 0.27320  0.84770  0.64090  Biso   1.000  O
  O5       1.0000 0.80110  0.62610  0.86530  Biso   1.000  O
  O6       1.0000 0.80110  0.87390  0.36530  Biso   1.000  O
  O7       1.0000 0.19890  0.37390  0.13470  Biso   1.000  O
  O8       1.0000 0.19890  0.12610  0.63470  Biso   1.000  O
  O9       1.0000 0.74890  0.48050  0.72173  Biso   1.000  O
  O10      1.0000 0.74890  0.01950  0.22173  Biso   1.000  O
  O11      1.0000 0.25110  0.51950  0.27827  Biso   1.000  O
  O12      1.0000 0.25110  0.98050  0.77827  Biso   1.000  O
  N1       1.0000 0.61960  0.83080  0.93617  Biso   1.000  N
  N2       1.0000 0.61960  0.66920  0.43617  Biso   1.000  N
  N3       1.0000 0.38040  0.16920  0.06383  Biso   1.000  N
  N4       1.0000 0.38040  0.33080  0.56383  Biso   1.000  N
  N5       1.0000 0.28370  0.45240  0.75930  Biso   1.000  N
  N6       1.0000 0.28370  0.04760  0.25930  Biso   1.000  N
  N7       1.0000 0.71630  0.54760  0.24070  Biso   1.000  N
  N8       1.0000 0.71630  0.95240  0.74070  Biso   1.000  N
  N9       1.0000 0.84110  0.99100  0.96610  Biso   1.000  N
  N10      1.0000 0.84110  0.50900  0.46610  Biso   1.000  N
  N11      1.0000 0.15890  0.00900  0.03390  Biso   1.000  N
  N12      1.0000 0.15890  0.49100  0.53390  Biso   1.000  N
  C1       1.0000 0.63080  0.87710  0.02170  Biso   1.000  C
  C2       1.0000 0.63080  0.62290  0.52170  Biso   1.000  C
  C3       1.0000 0.36920  0.12290  0.97830  Biso   1.000  C
  C4       1.0000 0.36920  0.37710  0.47830  Biso   1.000  C
  H1       1.0000 0.68990  0.94010  0.04940  Biso   1.000  H
  H2       1.0000 0.68990  0.55990  0.54940  Biso   1.000  H
  H3       1.0000 0.31010  0.05990  0.95060  Biso   1.000  H
  H4       1.0000 0.31010  0.44010  0.45060  Biso   1.000  H
  C5       1.0000 0.56080  0.83860  0.07270  Biso   1.000  C
  C6       1.0000 0.56080  0.66140  0.57270  Biso   1.000  C
  C7       1.0000 0.43920  0.16140  0.92730  Biso   1.000  C
  C8       1.0000 0.43920  0.33860  0.42730  Biso   1.000  C
  H5       1.0000 0.57220  0.87540  0.13330  Biso   1.000  H
  H6       1.0000 0.57220  0.62460  0.63330  Biso   1.000  H
  H7       1.0000 0.42780  0.12460  0.86670  Biso   1.000  H
  H8       1.0000 0.42780  0.37540  0.36670  Biso   1.000  H
  C9       1.0000 0.47490  0.74630  0.03420  Biso   1.000  C
  C10      1.0000 0.47490  0.75370  0.53420  Biso   1.000  C
  C11      1.0000 0.52510  0.25370  0.96580  Biso   1.000  C
  C12      1.0000 0.52510  0.24630  0.46580  Biso   1.000  C
  H9       1.0000 0.42660  0.71800  0.06810  Biso   1.000  H
  H10      1.0000 0.42660  0.78200  0.56810  Biso   1.000  H
  H11      1.0000 0.57340  0.28200  0.93190  Biso   1.000  H
  H12      1.0000 0.57340  0.21800  0.43190  Biso   1.000  H
  C13      1.0000 0.45940  0.69420  0.94360  Biso   1.000  C
  C14      1.0000 0.45940  0.80580  0.44360  Biso   1.000  C
  C15      1.0000 0.54060  0.30580  0.05640  Biso   1.000  C
  C16      1.0000 0.54060  0.19420  0.55640  Biso   1.000  C
  C17      1.0000 0.53390  0.73970  0.89650  Biso   1.000  C
  C18      1.0000 0.53390  0.76030  0.39650  Biso   1.000  C
  C19      1.0000 0.46610  0.26030  0.10350  Biso   1.000  C
  C20      1.0000 0.46610  0.23970  0.60350  Biso   1.000  C
  C21      1.0000 0.52180  0.69000  0.80540  Biso   1.000  C
  C22      1.0000 0.52180  0.81000  0.30540  Biso   1.000  C
  C23      1.0000 0.47820  0.31000  0.19460  Biso   1.000  C
  C24      1.0000 0.47820  0.19000  0.69460  Biso   1.000  C
  H13      1.0000 0.57280  0.72000  0.77460  Biso   1.000  H
  H14      1.0000 0.57280  0.78000  0.27460  Biso   1.000  H
  H15      1.0000 0.42720  0.28000  0.22540  Biso   1.000  H
  H16      1.0000 0.42720  0.22000  0.72540  Biso   1.000  H
  C25      1.0000 0.43930  0.60100  0.76180  Biso   1.000  C
  C26      1.0000 0.43930  0.89900  0.26180  Biso   1.000  C
  C27      1.0000 0.56070  0.39900  0.23820  Biso   1.000  C
  C28      1.0000 0.56070  0.10100  0.73820  Biso   1.000  C
  H17      1.0000 0.43210  0.57250  0.70040  Biso   1.000  H
  H18      1.0000 0.43210  0.92750  0.20040  Biso   1.000  H
  H19      1.0000 0.56790  0.42750  0.29960  Biso   1.000  H
  H20      1.0000 0.56790  0.07250  0.79960  Biso   1.000  H
  C29      1.0000 0.36250  0.54890  0.80690  Biso   1.000  C
  C30      1.0000 0.36250  0.95110  0.30690  Biso   1.000  C
  C31      1.0000 0.63750  0.45110  0.19310  Biso   1.000  C
  C32      1.0000 0.63750  0.04890  0.69310  Biso   1.000  C
  C33      1.0000 0.37110  0.59580  0.89720  Biso   1.000  C
  C34      1.0000 0.37110  0.90420  0.39720  Biso   1.000  C
  C35      1.0000 0.62890  0.40420  0.10280  Biso   1.000  C
  C36      1.0000 0.62890  0.09580  0.60280  Biso   1.000  C
  C37      1.0000 0.29510  0.53840  0.93940  Biso   1.000  C
  C38      1.0000 0.29510  0.96160  0.43940  Biso   1.000  C
  C39      1.0000 0.70490  0.46160  0.06060  Biso   1.000  C
  C40      1.0000 0.70490  0.03840  0.56060  Biso   1.000  C
  H21      1.0000 0.29770  0.56770  0.00000  Biso   1.000  H
  H22      1.0000 0.29770  0.93230  0.50000  Biso   1.000  H
  H23      1.0000 0.70230  0.43230  0.00000  Biso   1.000  H
  H24      1.0000 0.70230  0.06770  0.50000  Biso   1.000  H
  C41      1.0000 0.21770  0.44010  0.89180  Biso   1.000  C
  C42      1.0000 0.21770  0.05990  0.39180  Biso   1.000  C
  C43      1.0000 0.78230  0.55990  0.10820  Biso   1.000  C
  C44      1.0000 0.78230  0.94010  0.60820  Biso   1.000  C
  H25      1.0000 0.16620  0.39980  0.91940  Biso   1.000  H
  H26      1.0000 0.16620  0.10020  0.41940  Biso   1.000  H
  H27      1.0000 0.83380  0.60020  0.08060  Biso   1.000  H
  H28      1.0000 0.83380  0.89980  0.58060  Biso   1.000  H
  C45      1.0000 0.21450  0.39900  0.80310  Biso   1.000  C
  C46      1.0000 0.21450  0.10100  0.30310  Biso   1.000  C
  C47      1.0000 0.78550  0.60100  0.19690  Biso   1.000  C
  C48      1.0000 0.78550  0.89900  0.69690  Biso   1.000  C
  H29      1.0000 0.16030  0.32930  0.77190  Biso   1.000  H
  H30      1.0000 0.16030  0.17070  0.27190  Biso   1.000  H
  H31      1.0000 0.83970  0.67070  0.22810  Biso   1.000  H
  H32      1.0000 0.83970  0.82930  0.72810  Biso   1.000  H
  C49      1.0000 0.88990  0.06570  0.02410  Biso   1.000  C
  C50      1.0000 0.88990  0.43430  0.52410  Biso   1.000  C
  C51      1.0000 0.11010  0.93430  0.97590  Biso   1.000  C
  C52      1.0000 0.11010  0.56570  0.47590  Biso   1.000  C
  C53      1.0000 0.94980  0.16120  0.09910  Biso   1.000  C
  C54      1.0000 0.94980  0.33880  0.59910  Biso   1.000  C
  C55      1.0000 0.05020  0.83880  0.90090  Biso   1.000  C
  C56      1.0000 0.05020  0.66120  0.40090  Biso   1.000  C
  H33      1.0000 0.98160  0.08510  0.14800  Biso   1.000  H
  H34      1.0000 0.98160  0.41490  0.64800  Biso   1.000  H
  H35      1.0000 0.01840  0.91490  0.85200  Biso   1.000  H
  H36      1.0000 0.01840  0.58510  0.35200  Biso   1.000  H
  H37      1.0000 0.90480  0.23960  0.12050  Biso   1.000  H
  H38      1.0000 0.90480  0.26040  0.62050  Biso   1.000  H
  H39      1.0000 0.09520  0.76040  0.87950  Biso   1.000  H
  H40      1.0000 0.09520  0.73960  0.37950  Biso   1.000  H
  H41      1.0000 0.00340  0.22350  0.07950  Biso   1.000  H
  H42      1.0000 0.00340  0.27650  0.57950  Biso   1.000  H
  H43      1.0000 0.99660  0.77650  0.92050  Biso   1.000  H
  H44      1.0000 0.99660  0.72350  0.42050  Biso   1.000  H
  C57      1.0000 0.90890  0.38250  0.83780  Biso   1.000  C
  C58      1.0000 0.90890  0.11750  0.33780  Biso   1.000  C
  C59      1.0000 0.09110  0.61750  0.16220  Biso   1.000  C
  C60      1.0000 0.09110  0.88250  0.66220  Biso   1.000  C
