data_image0
_cell_length_a       12.8457
_cell_length_b       9.1323
_cell_length_c       25.5568
_cell_angle_alpha    90
_cell_angle_beta     94.255
_cell_angle_gamma    90

_symmetry_space_group_name_H-M    "P 1"
_symmetry_int_tables_number       1

loop_
  _symmetry_equiv_pos_as_xyz
  'x, y, z'

loop_
  _atom_site_label
  _atom_site_occupancy
  _atom_site_fract_x
  _atom_site_fract_y
  _atom_site_fract_z
  _atom_site_thermal_displace_type
  _atom_site_B_iso_or_equiv
  _atom_site_type_symbol
  Cu1      1.0000 0.32485  0.46623  0.16281  Biso   1.000  Cu
  Cu2      1.0000 0.32485  0.03377  0.66281  Biso   1.000  Cu
  Cu3      1.0000 0.67515  0.53377  0.83719  Biso   1.000  Cu
  Cu4      1.0000 0.67515  0.96623  0.33719  Biso   1.000  Cu
  S1       1.0000 0.19350  0.83731  0.17569  Biso   1.000  S
  S2       1.0000 0.19350  0.66269  0.67569  Biso   1.000  S
  S3       1.0000 0.80650  0.16269  0.82431  Biso   1.000  S
  S4       1.0000 0.80650  0.33731  0.32431  Biso   1.000  S
  F1       1.0000 0.13630  0.00560  0.25030  Biso   1.000  F
  F2       1.0000 0.13630  0.49440  0.75030  Biso   1.000  F
  F3       1.0000 0.86370  0.99440  0.74970  Biso   1.000  F
  F4       1.0000 0.86370  0.50560  0.24970  Biso   1.000  F
  F5       1.0000 0.10480  0.77890  0.26093  Biso   1.000  F
  F6       1.0000 0.10480  0.72110  0.76093  Biso   1.000  F
  F7       1.0000 0.89520  0.22110  0.73907  Biso   1.000  F
  F8       1.0000 0.89520  0.27890  0.23907  Biso   1.000  F
  F9       1.0000 0.26250  0.86280  0.27250  Biso   1.000  F
  F10      1.0000 0.26250  0.63720  0.77250  Biso   1.000  F
  F11      1.0000 0.73750  0.13720  0.72750  Biso   1.000  F
  F12      1.0000 0.73750  0.36280  0.22750  Biso   1.000  F
  O1       1.0000 0.22670  0.68930  0.17726  Biso   1.000  O
  O2       1.0000 0.22670  0.81070  0.67726  Biso   1.000  O
  O3       1.0000 0.77330  0.31070  0.82274  Biso   1.000  O
  O4       1.0000 0.77330  0.18930  0.32274  Biso   1.000  O
  O5       1.0000 0.27140  0.93620  0.16260  Biso   1.000  O
  O6       1.0000 0.27140  0.56380  0.66260  Biso   1.000  O
  O7       1.0000 0.72860  0.06380  0.83740  Biso   1.000  O
  O8       1.0000 0.72860  0.43620  0.33740  Biso   1.000  O
  O9       1.0000 0.09220  0.86430  0.15057  Biso   1.000  O
  O10      1.0000 0.09220  0.63570  0.65057  Biso   1.000  O
  O11      1.0000 0.90780  0.13570  0.84943  Biso   1.000  O
  O12      1.0000 0.90780  0.36430  0.34943  Biso   1.000  O
  O13      1.0000 0.38990  0.27780  0.50675  Biso   1.000  O
  O14      1.0000 0.38990  0.22220  0.00675  Biso   1.000  O
  O15      1.0000 0.61010  0.72220  0.49325  Biso   1.000  O
  O16      1.0000 0.61010  0.77780  0.99325  Biso   1.000  O
  O17      1.0000 0.54750  0.25290  0.48450  Biso   1.000  O
  O18      1.0000 0.54750  0.24710  0.98450  Biso   1.000  O
  O19      1.0000 0.45250  0.74710  0.51550  Biso   1.000  O
  O20      1.0000 0.45250  0.75290  0.01550  Biso   1.000  O
  O21      1.0000 0.92950  0.98970  0.08250  Biso   1.000  O
  O22      1.0000 0.92950  0.51030  0.58250  Biso   1.000  O
  O23      1.0000 0.07050  0.01030  0.91750  Biso   1.000  O
  O24      1.0000 0.07050  0.48970  0.41750  Biso   1.000  O
  N1       1.0000 0.46440  0.52800  0.14137  Biso   1.000  N
  N2       1.0000 0.46440  0.97200  0.64137  Biso   1.000  N
  N3       1.0000 0.53560  0.47200  0.85863  Biso   1.000  N
  N4       1.0000 0.53560  0.02800  0.35863  Biso   1.000  N
  N5       1.0000 0.72020  0.89210  0.26885  Biso   1.000  N
  N6       1.0000 0.72020  0.60790  0.76885  Biso   1.000  N
  N7       1.0000 0.27980  0.10790  0.73115  Biso   1.000  N
  N8       1.0000 0.27980  0.39210  0.23115  Biso   1.000  N
  N9       1.0000 0.23980  0.37640  0.09995  Biso   1.000  N
  N10      1.0000 0.23980  0.12360  0.59995  Biso   1.000  N
  N11      1.0000 0.76020  0.62360  0.90005  Biso   1.000  N
  N12      1.0000 0.76020  0.87640  0.40005  Biso   1.000  N
  N13      1.0000 0.09800  0.69180  0.92288  Biso   1.000  N
  N14      1.0000 0.09800  0.80820  0.42288  Biso   1.000  N
  N15      1.0000 0.90200  0.30820  0.07712  Biso   1.000  N
  N16      1.0000 0.90200  0.19180  0.57712  Biso   1.000  N
  N17      1.0000 0.46070  0.30950  0.47913  Biso   1.000  N
  N18      1.0000 0.46070  0.19050  0.97913  Biso   1.000  N
  N19      1.0000 0.53930  0.69050  0.52087  Biso   1.000  N
  N20      1.0000 0.53930  0.80950  0.02087  Biso   1.000  N
  C1       1.0000 0.49880  0.46730  0.09839  Biso   1.000  C
  C2       1.0000 0.49880  0.03270  0.59839  Biso   1.000  C
  C3       1.0000 0.50120  0.53270  0.90161  Biso   1.000  C
  C4       1.0000 0.50120  0.96730  0.40161  Biso   1.000  C
  H1       1.0000 0.45290  0.40480  0.07780  Biso   1.000  H
  H2       1.0000 0.45290  0.09520  0.57780  Biso   1.000  H
  H3       1.0000 0.54710  0.59520  0.92220  Biso   1.000  H
  H4       1.0000 0.54710  0.90480  0.42220  Biso   1.000  H
  C5       1.0000 0.59880  0.49110  0.08213  Biso   1.000  C
  C6       1.0000 0.59880  0.00890  0.58213  Biso   1.000  C
  C7       1.0000 0.40120  0.50890  0.91787  Biso   1.000  C
  C8       1.0000 0.40120  0.99110  0.41787  Biso   1.000  C
  H5       1.0000 0.62020  0.44470  0.05140  Biso   1.000  H
  H6       1.0000 0.62020  0.05530  0.55140  Biso   1.000  H
  H7       1.0000 0.37980  0.55530  0.94860  Biso   1.000  H
  H8       1.0000 0.37980  0.94470  0.44860  Biso   1.000  H
  C9       1.0000 0.66550  0.58180  0.11078  Biso   1.000  C
  C10      1.0000 0.66550  0.91820  0.61078  Biso   1.000  C
  C11      1.0000 0.33450  0.41820  0.88922  Biso   1.000  C
  C12      1.0000 0.33450  0.08180  0.38922  Biso   1.000  C
  H9       1.0000 0.73360  0.59930  0.10010  Biso   1.000  H
  H10      1.0000 0.73360  0.90070  0.60010  Biso   1.000  H
  H11      1.0000 0.26640  0.40070  0.89990  Biso   1.000  H
  H12      1.0000 0.26640  0.09930  0.39990  Biso   1.000  H
  C13      1.0000 0.63260  0.64950  0.15653  Biso   1.000  C
  C14      1.0000 0.63260  0.85050  0.65653  Biso   1.000  C
  C15      1.0000 0.36740  0.35050  0.84347  Biso   1.000  C
  C16      1.0000 0.36740  0.14950  0.34347  Biso   1.000  C
  C17      1.0000 0.53130  0.61880  0.17063  Biso   1.000  C
  C18      1.0000 0.53130  0.88120  0.67063  Biso   1.000  C
  C19      1.0000 0.46870  0.38120  0.82937  Biso   1.000  C
  C20      1.0000 0.46870  0.11880  0.32937  Biso   1.000  C
  C21      1.0000 0.49480  0.68260  0.21676  Biso   1.000  C
  C22      1.0000 0.49480  0.81740  0.71676  Biso   1.000  C
  C23      1.0000 0.50520  0.31740  0.78324  Biso   1.000  C
  C24      1.0000 0.50520  0.18260  0.28324  Biso   1.000  C
  H13      1.0000 0.42570  0.66320  0.22570  Biso   1.000  H
  H14      1.0000 0.42570  0.83680  0.72570  Biso   1.000  H
  H15      1.0000 0.57430  0.33680  0.77430  Biso   1.000  H
  H16      1.0000 0.57430  0.16320  0.27430  Biso   1.000  H
  C25      1.0000 0.55730  0.77030  0.24802  Biso   1.000  C
  C26      1.0000 0.55730  0.72970  0.74802  Biso   1.000  C
  C27      1.0000 0.44270  0.22970  0.75198  Biso   1.000  C
  C28      1.0000 0.44270  0.27030  0.25198  Biso   1.000  C
  H17      1.0000 0.53190  0.81070  0.27890  Biso   1.000  H
  H18      1.0000 0.53190  0.68930  0.77890  Biso   1.000  H
  H19      1.0000 0.46810  0.18930  0.72110  Biso   1.000  H
  H20      1.0000 0.46810  0.31070  0.22110  Biso   1.000  H
  C29      1.0000 0.66080  0.80290  0.23528  Biso   1.000  C
  C30      1.0000 0.66080  0.69710  0.73528  Biso   1.000  C
  C31      1.0000 0.33920  0.19710  0.76472  Biso   1.000  C
  C32      1.0000 0.33920  0.30290  0.26472  Biso   1.000  C
  C33      1.0000 0.69850  0.74650  0.18921  Biso   1.000  C
  C34      1.0000 0.69850  0.75350  0.68921  Biso   1.000  C
  C35      1.0000 0.30150  0.25350  0.81079  Biso   1.000  C
  C36      1.0000 0.30150  0.24650  0.31079  Biso   1.000  C
  C37      1.0000 0.79930  0.78890  0.17647  Biso   1.000  C
  C38      1.0000 0.79930  0.71110  0.67647  Biso   1.000  C
  C39      1.0000 0.20070  0.21110  0.82353  Biso   1.000  C
  C40      1.0000 0.20070  0.28890  0.32353  Biso   1.000  C
  H21      1.0000 0.82640  0.75550  0.14500  Biso   1.000  H
  H22      1.0000 0.82640  0.74450  0.64500  Biso   1.000  H
  H23      1.0000 0.17360  0.24450  0.85500  Biso   1.000  H
  H24      1.0000 0.17360  0.25550  0.35500  Biso   1.000  H
  C41      1.0000 0.85750  0.87890  0.21023  Biso   1.000  C
  C42      1.0000 0.85750  0.62110  0.71023  Biso   1.000  C
  C43      1.0000 0.14250  0.12110  0.78977  Biso   1.000  C
  C44      1.0000 0.14250  0.37890  0.28977  Biso   1.000  C
  H25      1.0000 0.92550  0.90880  0.20240  Biso   1.000  H
  H26      1.0000 0.92550  0.59120  0.70240  Biso   1.000  H
  H27      1.0000 0.07450  0.09120  0.79760  Biso   1.000  H
  H28      1.0000 0.07450  0.40880  0.29760  Biso   1.000  H
  C45      1.0000 0.81590  0.92570  0.25590  Biso   1.000  C
  C46      1.0000 0.81590  0.57430  0.75590  Biso   1.000  C
  C47      1.0000 0.18410  0.07430  0.74410  Biso   1.000  C
  C48      1.0000 0.18410  0.42570  0.24410  Biso   1.000  C
  H29      1.0000 0.85820  0.98530  0.27940  Biso   1.000  H
  H30      1.0000 0.85820  0.51470  0.77940  Biso   1.000  H
  H31      1.0000 0.14180  0.01470  0.72060  Biso   1.000  H
  H32      1.0000 0.14180  0.48530  0.22060  Biso   1.000  H
  C49      1.0000 0.22040  0.23360  0.10367  Biso   1.000  C
  C50      1.0000 0.22040  0.26640  0.60367  Biso   1.000  C
  C51      1.0000 0.77960  0.76640  0.89633  Biso   1.000  C
  C52      1.0000 0.77960  0.73360  0.39633  Biso   1.000  C
  H33      1.0000 0.24500  0.18420  0.13490  Biso   1.000  H
  H34      1.0000 0.24500  0.31580  0.63490  Biso   1.000  H
  H35      1.0000 0.75500  0.81580  0.86510  Biso   1.000  H
  H36      1.0000 0.75500  0.68420  0.36510  Biso   1.000  H
  C53      1.0000 0.16640  0.15300  0.06446  Biso   1.000  C
  C54      1.0000 0.16640  0.34700  0.56446  Biso   1.000  C
  C55      1.0000 0.83360  0.84700  0.93554  Biso   1.000  C
  C56      1.0000 0.83360  0.65300  0.43554  Biso   1.000  C
  H37      1.0000 0.15590  0.05080  0.06870  Biso   1.000  H
  H38      1.0000 0.15590  0.44920  0.56870  Biso   1.000  H
  H39      1.0000 0.84410  0.94920  0.93130  Biso   1.000  H
  H40      1.0000 0.84410  0.55080  0.43130  Biso   1.000  H
  C57      1.0000 0.12850  0.22210  0.01976  Biso   1.000  C
  C58      1.0000 0.12850  0.27790  0.51976  Biso   1.000  C
  C59      1.0000 0.87150  0.77790  0.98024  Biso   1.000  C
  C60      1.0000 0.87150  0.72210  0.48024  Biso   1.000  C
  H41      1.0000 0.09060  0.16860  0.99280  Biso   1.000  H
  H42      1.0000 0.09060  0.33140  0.49280  Biso   1.000  H
  H43      1.0000 0.90940  0.83140  0.00720  Biso   1.000  H
  H44      1.0000 0.90940  0.66860  0.50720  Biso   1.000  H
  C61      1.0000 0.14600  0.37350  0.01381  Biso   1.000  C
  C62      1.0000 0.14600  0.12650  0.51381  Biso   1.000  C
  C63      1.0000 0.85400  0.62650  0.98619  Biso   1.000  C
  C64      1.0000 0.85400  0.87350  0.48619  Biso   1.000  C
  C65      1.0000 0.20450  0.44750  0.05495  Biso   1.000  C
  C66      1.0000 0.20450  0.05250  0.55495  Biso   1.000  C
  C67      1.0000 0.79550  0.55250  0.94505  Biso   1.000  C
  C68      1.0000 0.79550  0.94750  0.44505  Biso   1.000  C
  C69      1.0000 0.22790  0.59940  0.04985  Biso   1.000  C
  C70      1.0000 0.22790  0.90060  0.54985  Biso   1.000  C
  C71      1.0000 0.77210  0.40060  0.95015  Biso   1.000  C
  C72      1.0000 0.77210  0.09940  0.45015  Biso   1.000  C
  H45      1.0000 0.26880  0.64770  0.07710  Biso   1.000  H
  H46      1.0000 0.26880  0.85230  0.57710  Biso   1.000  H
  H47      1.0000 0.73120  0.35230  0.92290  Biso   1.000  H
  H48      1.0000 0.73120  0.14770  0.42290  Biso   1.000  H
  C73      1.0000 0.19260  0.67540  0.00673  Biso   1.000  C
  C74      1.0000 0.19260  0.82460  0.50673  Biso   1.000  C
  C75      1.0000 0.80740  0.32460  0.99327  Biso   1.000  C
  C76      1.0000 0.80740  0.17540  0.49327  Biso   1.000  C
  H49      1.0000 0.20880  0.77650  0.00420  Biso   1.000  H
  H50      1.0000 0.20880  0.72350  0.50420  Biso   1.000  H
  H51      1.0000 0.79120  0.22350  0.99580  Biso   1.000  H
  H52      1.0000 0.79120  0.27650  0.49580  Biso   1.000  H
  C77      1.0000 0.13130  0.60650  0.96496  Biso   1.000  C
  C78      1.0000 0.13130  0.89350  0.46496  Biso   1.000  C
  C79      1.0000 0.86870  0.39350  0.03504  Biso   1.000  C
  C80      1.0000 0.86870  0.10650  0.53504  Biso   1.000  C
  C81      1.0000 0.10750  0.45560  0.96802  Biso   1.000  C
  C82      1.0000 0.10750  0.04440  0.46802  Biso   1.000  C
  C83      1.0000 0.89250  0.54440  0.03198  Biso   1.000  C
  C84      1.0000 0.89250  0.95560  0.53198  Biso   1.000  C
  C85      1.0000 0.04620  0.39350  0.92599  Biso   1.000  C
  C86      1.0000 0.04620  0.10650  0.42599  Biso   1.000  C
  C87      1.0000 0.95380  0.60650  0.07401  Biso   1.000  C
  C88      1.0000 0.95380  0.89350  0.57401  Biso   1.000  C
  H53      1.0000 0.02760  0.29290  0.92670  Biso   1.000  H
  H54      1.0000 0.02760  0.20710  0.42670  Biso   1.000  H
  H55      1.0000 0.97240  0.70710  0.07330  Biso   1.000  H
  H56      1.0000 0.97240  0.79290  0.57330  Biso   1.000  H
  C89      1.0000 0.01340  0.47920  0.88383  Biso   1.000  C
  C90      1.0000 0.01340  0.02080  0.38383  Biso   1.000  C
  C91      1.0000 0.98660  0.52080  0.11617  Biso   1.000  C
  C92      1.0000 0.98660  0.97920  0.61617  Biso   1.000  C
  H57      1.0000 0.97260  0.43850  0.85490  Biso   1.000  H
  H58      1.0000 0.97260  0.06150  0.35490  Biso   1.000  H
  H59      1.0000 0.02740  0.56150  0.14510  Biso   1.000  H
  H60      1.0000 0.02740  0.93850  0.64510  Biso   1.000  H
  C93      1.0000 0.04090  0.62760  0.88417  Biso   1.000  C
  C94      1.0000 0.04090  0.87240  0.38417  Biso   1.000  C
  C95      1.0000 0.95910  0.37240  0.11583  Biso   1.000  C
  C96      1.0000 0.95910  0.12760  0.61583  Biso   1.000  C
  H61      1.0000 0.01710  0.68570  0.85480  Biso   1.000  H
  H62      1.0000 0.01710  0.81430  0.35480  Biso   1.000  H
  H63      1.0000 0.98290  0.31430  0.14520  Biso   1.000  H
  H64      1.0000 0.98290  0.18570  0.64520  Biso   1.000  H
  C97      1.0000 0.44000  0.41740  0.43699  Biso   1.000  C
  C98      1.0000 0.44000  0.08260  0.93699  Biso   1.000  C
  C99      1.0000 0.56000  0.58260  0.56301  Biso   1.000  C
  C100     1.0000 0.56000  0.91740  0.06301  Biso   1.000  C
  C101     1.0000 0.34450  0.48610  0.43195  Biso   1.000  C
  C102     1.0000 0.34450  0.01390  0.93195  Biso   1.000  C
  C103     1.0000 0.65550  0.51390  0.56805  Biso   1.000  C
  C104     1.0000 0.65550  0.98610  0.06805  Biso   1.000  C
  H65      1.0000 0.29280  0.46470  0.45550  Biso   1.000  H
  H66      1.0000 0.29280  0.03530  0.95550  Biso   1.000  H
  H67      1.0000 0.70720  0.53530  0.54450  Biso   1.000  H
  H68      1.0000 0.70720  0.96470  0.04450  Biso   1.000  H
  C105     1.0000 0.32520  0.58590  0.39229  Biso   1.000  C
  C106     1.0000 0.32520  0.91410  0.89229  Biso   1.000  C
  C107     1.0000 0.67480  0.41410  0.60771  Biso   1.000  C
  C108     1.0000 0.67480  0.08590  0.10771  Biso   1.000  C
  H69      1.0000 0.26000  0.63540  0.38850  Biso   1.000  H
  H70      1.0000 0.26000  0.86460  0.88850  Biso   1.000  H
  H71      1.0000 0.74000  0.36460  0.61150  Biso   1.000  H
  H72      1.0000 0.74000  0.13540  0.11150  Biso   1.000  H
  C109     1.0000 0.40130  0.61430  0.35768  Biso   1.000  C
  C110     1.0000 0.40130  0.88570  0.85768  Biso   1.000  C
  C111     1.0000 0.59870  0.38570  0.64232  Biso   1.000  C
  C112     1.0000 0.59870  0.11430  0.14232  Biso   1.000  C
  H73      1.0000 0.38770  0.68310  0.33010  Biso   1.000  H
  H74      1.0000 0.38770  0.81690  0.83010  Biso   1.000  H
  H75      1.0000 0.61230  0.31690  0.66990  Biso   1.000  H
  H76      1.0000 0.61230  0.18310  0.16990  Biso   1.000  H
  C113     1.0000 0.49640  0.54330  0.36304  Biso   1.000  C
  C114     1.0000 0.49640  0.95670  0.86304  Biso   1.000  C
  C115     1.0000 0.50360  0.45670  0.63696  Biso   1.000  C
  C116     1.0000 0.50360  0.04330  0.13696  Biso   1.000  C
  H77      1.0000 0.54760  0.56260  0.33900  Biso   1.000  H
  H78      1.0000 0.54760  0.93740  0.83900  Biso   1.000  H
  H79      1.0000 0.45240  0.43740  0.66100  Biso   1.000  H
  H80      1.0000 0.45240  0.06260  0.16100  Biso   1.000  H
  C117     1.0000 0.51740  0.44410  0.40344  Biso   1.000  C
  C118     1.0000 0.51740  0.05590  0.90344  Biso   1.000  C
  C119     1.0000 0.48260  0.55590  0.59656  Biso   1.000  C
  C120     1.0000 0.48260  0.94410  0.09656  Biso   1.000  C
  H81      1.0000 0.58300  0.39580  0.40790  Biso   1.000  H
  H82      1.0000 0.58300  0.10420  0.90790  Biso   1.000  H
  H83      1.0000 0.41700  0.60420  0.59210  Biso   1.000  H
  H84      1.0000 0.41700  0.89580  0.09210  Biso   1.000  H
  C121     1.0000 0.17260  0.87640  0.24460  Biso   1.000  C
  C122     1.0000 0.17260  0.62360  0.74460  Biso   1.000  C
  C123     1.0000 0.82740  0.12360  0.75540  Biso   1.000  C
  C124     1.0000 0.82740  0.37640  0.25540  Biso   1.000  C
