data_image0
_cell_length_a       9.8425
_cell_length_b       12.2763
_cell_length_c       13.213
_cell_angle_alpha    83.306
_cell_angle_beta     85.895
_cell_angle_gamma    75.71

_symmetry_space_group_name_H-M    "P 1"
_symmetry_int_tables_number       1

loop_
  _symmetry_equiv_pos_as_xyz
  'x, y, z'

loop_
  _atom_site_label
  _atom_site_occupancy
  _atom_site_fract_x
  _atom_site_fract_y
  _atom_site_fract_z
  _atom_site_thermal_displace_type
  _atom_site_B_iso_or_equiv
  _atom_site_type_symbol
  Cu1      1.0000 0.38038  0.59956  0.22900  Biso   1.000  Cu
  Cu2      1.0000 0.61962  0.40044  0.77100  Biso   1.000  Cu
  N1       1.0000 0.18164  0.60245  0.27539  Biso   1.000  N
  N2       1.0000 0.81836  0.39755  0.72461  Biso   1.000  N
  F1       1.0000 0.24480  0.38168  0.19407  Biso   1.000  F
  F2       1.0000 0.75520  0.61832  0.80593  Biso   1.000  F
  C1       1.0000 0.09210  0.54040  0.25860  Biso   1.000  C
  C2       1.0000 0.90790  0.45960  0.74140  Biso   1.000  C
  Cu3      1.0000 0.22229  0.78055  0.39076  Biso   1.000  Cu
  Cu4      1.0000 0.77771  0.21945  0.60924  Biso   1.000  Cu
  N3       1.0000 0.11976  0.67089  0.34864  Biso   1.000  N
  N4       1.0000 0.88024  0.32911  0.65136  Biso   1.000  N
  C3       1.0000 0.97230  0.56600  0.31930  Biso   1.000  C
  C4       1.0000 0.02770  0.43400  0.68070  Biso   1.000  C
  H1       1.0000 0.89290  0.53460  0.32230  Biso   1.000  H
  H2       1.0000 0.10710  0.46540  0.67770  Biso   1.000  H
  F3       1.0000 0.13080  0.50651  0.08635  Biso   1.000  F
  F4       1.0000 0.86920  0.49349  0.91365  Biso   1.000  F
  N5       1.0000 0.45380  0.73804  0.24007  Biso   1.000  N
  N6       1.0000 0.54620  0.26196  0.75993  Biso   1.000  N
  F5       1.0000 0.02330  0.40136  0.18506  Biso   1.000  F
  F6       1.0000 0.97670  0.59864  0.81494  Biso   1.000  F
  C5       1.0000 0.99390  0.64780  0.37460  Biso   1.000  C
  C6       1.0000 0.00610  0.35220  0.62540  Biso   1.000  C
  N7       1.0000 0.38000  0.81692  0.30010  Biso   1.000  N
  N8       1.0000 0.62000  0.18308  0.69990  Biso   1.000  N
  F7       1.0000 0.95992  0.70875  0.53931  Biso   1.000  F
  F8       1.0000 0.04008  0.29125  0.46069  Biso   1.000  F
  C7       1.0000 0.12320  0.45800  0.18090  Biso   1.000  C
  C8       1.0000 0.87680  0.54200  0.81910  Biso   1.000  C
  N9       1.0000 0.50186  0.47575  0.33858  Biso   1.000  N
  N10      1.0000 0.49814  0.52425  0.66142  Biso   1.000  N
  F9       1.0000 0.83884  0.81451  0.42180  Biso   1.000  F
  F10      1.0000 0.16116  0.18549  0.57820  Biso   1.000  F
  C9       1.0000 0.89780  0.70750  0.45290  Biso   1.000  C
  C10      1.0000 0.10220  0.29250  0.54710  Biso   1.000  C
  F11      1.0000 0.79100  0.65728  0.47808  Biso   1.000  F
  F12      1.0000 0.20900  0.34272  0.52192  Biso   1.000  F
  C11      1.0000 0.56610  0.77500  0.19850  Biso   1.000  C
  C12      1.0000 0.43390  0.22500  0.80150  Biso   1.000  C
  N11      1.0000 0.66387  0.32288  0.48305  Biso   1.000  N
  N12      1.0000 0.33613  0.67712  0.51695  Biso   1.000  N
  N13      1.0000 0.09250  0.91118  0.45467  Biso   1.000  N
  N14      1.0000 0.90750  0.08882  0.54533  Biso   1.000  N
  F13      1.0000 0.71503  0.60133  0.15974  Biso   1.000  F
  F14      1.0000 0.28497  0.39867  0.84026  Biso   1.000  F
  C13      1.0000 0.56640  0.87740  0.22980  Biso   1.000  C
  C14      1.0000 0.43360  0.12260  0.77020  Biso   1.000  C
  H3       1.0000 0.63260  0.92190  0.21180  Biso   1.000  H
  H4       1.0000 0.36740  0.07810  0.78820  Biso   1.000  H
  N15      1.0000 0.44660  0.53616  0.09467  Biso   1.000  N
  N16      1.0000 0.55340  0.46384  0.90533  Biso   1.000  N
  F15      1.0000 0.61720  0.71275  0.03472  Biso   1.000  F
  F16      1.0000 0.38280  0.28725  0.96528  Biso   1.000  F
  C15      1.0000 0.44790  0.90070  0.29350  Biso   1.000  C
  C16      1.0000 0.55210  0.09930  0.70650  Biso   1.000  C
  F17      1.0000 0.78200  0.75280  0.11089  Biso   1.000  F
  F18      1.0000 0.21800  0.24720  0.88911  Biso   1.000  F
  C17      1.0000 0.66820  0.71100  0.12630  Biso   1.000  C
  C18      1.0000 0.33180  0.28900  0.87370  Biso   1.000  C
  F19      1.0000 0.37390  0.98026  0.44848  Biso   1.000  F
  F20      1.0000 0.62610  0.01974  0.55152  Biso   1.000  F
  C19      1.0000 0.39360  0.00240  0.34790  Biso   1.000  C
  C20      1.0000 0.60640  0.99760  0.65210  Biso   1.000  C
  C21      1.0000 0.60620  0.50045  0.38302  Biso   1.000  C
  C22      1.0000 0.39380  0.49955  0.61698  Biso   1.000  C
  H5       1.0000 0.62610  0.57240  0.36540  Biso   1.000  H
  H6       1.0000 0.37390  0.42760  0.63460  Biso   1.000  H
  F21      1.0000 0.26970  0.06420  0.31438  Biso   1.000  F
  F22      1.0000 0.73030  0.93580  0.68562  Biso   1.000  F
  F23      1.0000 0.48200  0.07055  0.33450  Biso   1.000  F
  F24      1.0000 0.51800  0.92945  0.66550  Biso   1.000  F
  C23      1.0000 0.68610  0.42495  0.45379  Biso   1.000  C
  C24      1.0000 0.31390  0.57505  0.54621  Biso   1.000  C
  H7       1.0000 0.75990  0.44640  0.48290  Biso   1.000  H
  H8       1.0000 0.24010  0.55360  0.51710  Biso   1.000  H
  C25      1.0000 0.55800  0.29920  0.43930  Biso   1.000  C
  C26      1.0000 0.44200  0.70080  0.56070  Biso   1.000  C
  H9       1.0000 0.53660  0.22800  0.45820  Biso   1.000  H
  H10      1.0000 0.46340  0.77200  0.54180  Biso   1.000  H
  C27      1.0000 0.47840  0.37390  0.36782  Biso   1.000  C
  C28      1.0000 0.52160  0.62610  0.63218  Biso   1.000  C
  H11      1.0000 0.40480  0.35240  0.33850  Biso   1.000  H
  H12      1.0000 0.59520  0.64760  0.66150  Biso   1.000  H
  C29      1.0000 0.08720  0.91970  0.55494  Biso   1.000  C
  C30      1.0000 0.91280  0.08030  0.44506  Biso   1.000  C
  H13      1.0000 0.14860  0.86350  0.59700  Biso   1.000  H
  H14      1.0000 0.85140  0.13650  0.40300  Biso   1.000  H
  C31      1.0000 0.00390  0.99330  0.40055  Biso   1.000  C
  C32      1.0000 0.99610  0.00670  0.59945  Biso   1.000  C
  H15      1.0000 0.00370  0.99160  0.32890  Biso   1.000  H
  H16      1.0000 0.99630  0.00840  0.67110  Biso   1.000  H
  C33      1.0000 0.55580  0.44720  0.08557  Biso   1.000  C
  C34      1.0000 0.44420  0.55280  0.91443  Biso   1.000  C
  H17      1.0000 0.59830  0.40690  0.14560  Biso   1.000  H
  H18      1.0000 0.40170  0.59310  0.85440  Biso   1.000  H
  C35      1.0000 0.39150  0.58790  0.00722  Biso   1.000  C
  C36      1.0000 0.60850  0.41210  0.99278  Biso   1.000  C
  H19      1.0000 0.31320  0.65100  0.00930  Biso   1.000  H
  H20      1.0000 0.68680  0.34900  0.99070  Biso   1.000  H
  C37      1.0000 0.06800  0.81980  0.94820  Biso   1.000  C
  C38      1.0000 0.93200  0.18020  0.05180  Biso   1.000  C
  H21      1.0000 0.98180  0.79800  0.96140  Biso   1.000  H
  H22      1.0000 0.01820  0.20200  0.03860  Biso   1.000  H
  C39      1.0000 0.13600  0.81010  0.85250  Biso   1.000  C
  C40      1.0000 0.86400  0.18990  0.14750  Biso   1.000  C
  H23      1.0000 0.09550  0.78290  0.80040  Biso   1.000  H
  H24      1.0000 0.90450  0.21710  0.19960  Biso   1.000  H
  C41      1.0000 0.12490  0.86080  0.02410  Biso   1.000  C
  C42      1.0000 0.87510  0.13920  0.97590  Biso   1.000  C
  C43      1.0000 0.26040  0.83980  0.83380  Biso   1.000  C
  C44      1.0000 0.73960  0.16020  0.16620  Biso   1.000  C
  H25      1.0000 0.30720  0.83320  0.76850  Biso   1.000  H
  H26      1.0000 0.69280  0.16680  0.23150  Biso   1.000  H
  C45      1.0000 0.25030  0.89090  0.00360  Biso   1.000  C
  C46      1.0000 0.74970  0.10910  0.99640  Biso   1.000  C
  H27      1.0000 0.29070  0.92000  0.05450  Biso   1.000  H
  H28      1.0000 0.70930  0.08000  0.94550  Biso   1.000  H
  C47      1.0000 0.31760  0.87870  0.90840  Biso   1.000  C
  C48      1.0000 0.68240  0.12130  0.09160  Biso   1.000  C
  H29      1.0000 0.40540  0.89800  0.89520  Biso   1.000  H
  H30      1.0000 0.59460  0.10200  0.10480  Biso   1.000  H
  C49      1.0000 0.05390  0.87270  0.12860  Biso   1.000  C
  C50      1.0000 0.94610  0.12730  0.87140  Biso   1.000  C
  H31      1.0000 0.12200  0.87910  0.17690  Biso   1.000  H
  H32      1.0000 0.87800  0.12090  0.82310  Biso   1.000  H
  H33      1.0000 0.01720  0.80610  0.15100  Biso   1.000  H
  H34      1.0000 0.98280  0.19390  0.84900  Biso   1.000  H
  H35      1.0000 0.97650  0.94060  0.12580  Biso   1.000  H
  H36      1.0000 0.02350  0.05940  0.87420  Biso   1.000  H
