data_image0
_cell_length_a       10.709
_cell_length_b       10.6142
_cell_length_c       22.43
_cell_angle_alpha    90
_cell_angle_beta     90
_cell_angle_gamma    90

_symmetry_space_group_name_H-M    "P 1"
_symmetry_int_tables_number       1

loop_
  _symmetry_equiv_pos_as_xyz
  'x, y, z'

loop_
  _atom_site_label
  _atom_site_occupancy
  _atom_site_fract_x
  _atom_site_fract_y
  _atom_site_fract_z
  _atom_site_thermal_displace_type
  _atom_site_B_iso_or_equiv
  _atom_site_type_symbol
  Cu1      1.0000 0.20679  0.11343  0.73103  Biso   1.000  Cu
  Cu2      1.0000 0.29321  0.88657  0.23103  Biso   1.000  Cu
  Cu3      1.0000 0.79321  0.61343  0.76897  Biso   1.000  Cu
  Cu4      1.0000 0.70679  0.38657  0.26897  Biso   1.000  Cu
  Cu5      1.0000 0.79321  0.88657  0.26897  Biso   1.000  Cu
  Cu6      1.0000 0.70679  0.11343  0.76897  Biso   1.000  Cu
  Cu7      1.0000 0.20679  0.38657  0.23103  Biso   1.000  Cu
  Cu8      1.0000 0.29321  0.61343  0.73103  Biso   1.000  Cu
  N1       1.0000 0.08746  0.26702  0.73812  Biso   1.000  N
  N2       1.0000 0.41254  0.73298  0.23812  Biso   1.000  N
  N3       1.0000 0.91254  0.76702  0.76188  Biso   1.000  N
  N4       1.0000 0.58746  0.23298  0.26188  Biso   1.000  N
  N5       1.0000 0.91254  0.73298  0.26188  Biso   1.000  N
  N6       1.0000 0.58746  0.26702  0.76188  Biso   1.000  N
  N7       1.0000 0.08746  0.23298  0.23812  Biso   1.000  N
  N8       1.0000 0.41254  0.76702  0.73812  Biso   1.000  N
  N9       1.0000 0.25821  0.09614  0.64829  Biso   1.000  N
  N10      1.0000 0.24179  0.90386  0.14829  Biso   1.000  N
  N11      1.0000 0.74179  0.59614  0.85171  Biso   1.000  N
  N12      1.0000 0.75821  0.40386  0.35171  Biso   1.000  N
  N13      1.0000 0.74179  0.90386  0.35171  Biso   1.000  N
  N14      1.0000 0.75821  0.09614  0.85171  Biso   1.000  N
  N15      1.0000 0.25821  0.40386  0.14829  Biso   1.000  N
  N16      1.0000 0.24179  0.59614  0.64829  Biso   1.000  N
  C1       1.0000 0.05391  0.34331  0.69372  Biso   1.000  C
  C2       1.0000 0.44609  0.65669  0.19372  Biso   1.000  C
  C3       1.0000 0.94609  0.84331  0.80628  Biso   1.000  C
  C4       1.0000 0.55391  0.15669  0.30628  Biso   1.000  C
  C5       1.0000 0.94609  0.65669  0.30628  Biso   1.000  C
  C6       1.0000 0.55391  0.34331  0.80628  Biso   1.000  C
  C7       1.0000 0.05391  0.15669  0.19372  Biso   1.000  C
  C8       1.0000 0.44609  0.84331  0.69372  Biso   1.000  C
  H1       1.0000 0.09080  0.33230  0.65610  Biso   1.000  H
  H2       1.0000 0.40920  0.66770  0.15610  Biso   1.000  H
  H3       1.0000 0.90920  0.83230  0.84390  Biso   1.000  H
  H4       1.0000 0.59080  0.16770  0.34390  Biso   1.000  H
  H5       1.0000 0.90920  0.66770  0.34390  Biso   1.000  H
  H6       1.0000 0.59080  0.33230  0.84390  Biso   1.000  H
  H7       1.0000 0.09080  0.16770  0.15610  Biso   1.000  H
  H8       1.0000 0.40920  0.83230  0.65610  Biso   1.000  H
  C9       1.0000 0.27614  0.07369  0.59967  Biso   1.000  C
  C10      1.0000 0.22386  0.92631  0.09967  Biso   1.000  C
  C11      1.0000 0.72386  0.57369  0.90033  Biso   1.000  C
  C12      1.0000 0.77614  0.42631  0.40033  Biso   1.000  C
  C13      1.0000 0.72386  0.92631  0.40033  Biso   1.000  C
  C14      1.0000 0.77614  0.07369  0.90033  Biso   1.000  C
  C15      1.0000 0.27614  0.42631  0.09967  Biso   1.000  C
  C16      1.0000 0.22386  0.57369  0.59967  Biso   1.000  C
  N17      1.0000 0.30782  0.11715  0.80343  Biso   1.000  N
  N18      1.0000 0.19218  0.88285  0.30343  Biso   1.000  N
  N19      1.0000 0.69218  0.61715  0.69657  Biso   1.000  N
  N20      1.0000 0.80782  0.38285  0.19657  Biso   1.000  N
  N21      1.0000 0.69218  0.88285  0.19657  Biso   1.000  N
  N22      1.0000 0.80782  0.11715  0.69657  Biso   1.000  N
  N23      1.0000 0.30782  0.38285  0.30343  Biso   1.000  N
  N24      1.0000 0.19218  0.61715  0.80343  Biso   1.000  N
  C17      1.0000 0.29900  0.03930  0.53806  Biso   1.000  C
  C18      1.0000 0.20100  0.96070  0.03806  Biso   1.000  C
  C19      1.0000 0.70100  0.53930  0.96194  Biso   1.000  C
  C20      1.0000 0.79900  0.46070  0.46194  Biso   1.000  C
  C21      1.0000 0.70100  0.96070  0.46194  Biso   1.000  C
  C22      1.0000 0.79900  0.03930  0.96194  Biso   1.000  C
  C23      1.0000 0.29900  0.46070  0.03806  Biso   1.000  C
  C24      1.0000 0.20100  0.53930  0.53806  Biso   1.000  C
  H9       1.0000 0.37850  0.99600  0.53510  Biso   1.000  H
  H10      1.0000 0.12150  0.00400  0.03510  Biso   1.000  H
  H11      1.0000 0.62150  0.49600  0.96490  Biso   1.000  H
  H12      1.0000 0.87850  0.50400  0.46490  Biso   1.000  H
  H13      1.0000 0.62150  0.00400  0.46490  Biso   1.000  H
  H14      1.0000 0.87850  0.99600  0.96490  Biso   1.000  H
  H15      1.0000 0.37850  0.50400  0.03510  Biso   1.000  H
  H16      1.0000 0.12150  0.49600  0.53510  Biso   1.000  H
  H17      1.0000 0.30100  0.11480  0.51370  Biso   1.000  H
  H18      1.0000 0.19900  0.88520  0.01370  Biso   1.000  H
  H19      1.0000 0.69900  0.61480  0.98630  Biso   1.000  H
  H20      1.0000 0.80100  0.38520  0.48630  Biso   1.000  H
  H21      1.0000 0.69900  0.88520  0.48630  Biso   1.000  H
  H22      1.0000 0.80100  0.11480  0.98630  Biso   1.000  H
  H23      1.0000 0.30100  0.38520  0.01370  Biso   1.000  H
  H24      1.0000 0.19900  0.61480  0.51370  Biso   1.000  H
  H25      1.0000 0.23280  0.98420  0.52420  Biso   1.000  H
  H26      1.0000 0.26720  0.01580  0.02420  Biso   1.000  H
  H27      1.0000 0.76720  0.48420  0.97580  Biso   1.000  H
  H28      1.0000 0.73280  0.51580  0.47580  Biso   1.000  H
  H29      1.0000 0.76720  0.01580  0.47580  Biso   1.000  H
  H30      1.0000 0.73280  0.98420  0.97580  Biso   1.000  H
  H31      1.0000 0.23280  0.51580  0.02420  Biso   1.000  H
  H32      1.0000 0.26720  0.48420  0.52420  Biso   1.000  H
  C25      1.0000 0.96758  0.43716  0.70102  Biso   1.000  C
  C26      1.0000 0.53242  0.56284  0.20102  Biso   1.000  C
  C27      1.0000 0.03242  0.93716  0.79898  Biso   1.000  C
  C28      1.0000 0.46758  0.06284  0.29898  Biso   1.000  C
  C29      1.0000 0.03242  0.56284  0.29898  Biso   1.000  C
  C30      1.0000 0.46758  0.43716  0.79898  Biso   1.000  C
  C31      1.0000 0.96758  0.06284  0.20102  Biso   1.000  C
  C32      1.0000 0.53242  0.93716  0.70102  Biso   1.000  C
  H33      1.0000 0.94690  0.48810  0.66820  Biso   1.000  H
  H34      1.0000 0.55310  0.51190  0.16820  Biso   1.000  H
  H35      1.0000 0.05310  0.98810  0.83180  Biso   1.000  H
  H36      1.0000 0.44690  0.01190  0.33180  Biso   1.000  H
  H37      1.0000 0.05310  0.51190  0.33180  Biso   1.000  H
  H38      1.0000 0.44690  0.48810  0.83180  Biso   1.000  H
  H39      1.0000 0.94690  0.01190  0.16820  Biso   1.000  H
  H40      1.0000 0.55310  0.98810  0.66820  Biso   1.000  H
  N25      1.0000 0.91167  0.45876  0.75335  Biso   1.000  N
  N26      1.0000 0.58833  0.54124  0.25335  Biso   1.000  N
  N27      1.0000 0.08833  0.95876  0.74665  Biso   1.000  N
  N28      1.0000 0.41167  0.04124  0.24665  Biso   1.000  N
  N29      1.0000 0.08833  0.54124  0.24665  Biso   1.000  N
  N30      1.0000 0.41167  0.45876  0.74665  Biso   1.000  N
  N31      1.0000 0.91167  0.04124  0.25335  Biso   1.000  N
  N32      1.0000 0.58833  0.95876  0.75335  Biso   1.000  N
  C33      1.0000 0.34744  0.11820  0.85029  Biso   1.000  C
  C34      1.0000 0.15256  0.88180  0.35029  Biso   1.000  C
  C35      1.0000 0.65256  0.61820  0.64971  Biso   1.000  C
  C36      1.0000 0.84744  0.38180  0.14971  Biso   1.000  C
  C37      1.0000 0.65256  0.88180  0.14971  Biso   1.000  C
  C38      1.0000 0.84744  0.11820  0.64971  Biso   1.000  C
  C39      1.0000 0.34744  0.38180  0.35029  Biso   1.000  C
  C40      1.0000 0.15256  0.61820  0.85029  Biso   1.000  C
  C41      1.0000 0.94480  0.38222  0.79775  Biso   1.000  C
  C42      1.0000 0.55520  0.61778  0.29775  Biso   1.000  C
  C43      1.0000 0.05520  0.88222  0.70225  Biso   1.000  C
  C44      1.0000 0.44480  0.11778  0.20225  Biso   1.000  C
  C45      1.0000 0.05520  0.61778  0.20225  Biso   1.000  C
  C46      1.0000 0.44480  0.38222  0.70225  Biso   1.000  C
  C47      1.0000 0.94480  0.11778  0.29775  Biso   1.000  C
  C48      1.0000 0.55520  0.88222  0.79775  Biso   1.000  C
  H41      1.0000 0.90780  0.39310  0.83540  Biso   1.000  H
  H42      1.0000 0.59220  0.60690  0.33540  Biso   1.000  H
  H43      1.0000 0.09220  0.89310  0.66460  Biso   1.000  H
  H44      1.0000 0.40780  0.10690  0.16460  Biso   1.000  H
  H45      1.0000 0.09220  0.60690  0.16460  Biso   1.000  H
  H46      1.0000 0.40780  0.39310  0.66460  Biso   1.000  H
  H47      1.0000 0.90780  0.10690  0.33540  Biso   1.000  H
  H48      1.0000 0.59220  0.89310  0.83540  Biso   1.000  H
  C49      1.0000 0.39920  0.11980  0.90993  Biso   1.000  C
  C50      1.0000 0.10080  0.88020  0.40993  Biso   1.000  C
  C51      1.0000 0.60080  0.61980  0.59007  Biso   1.000  C
  C52      1.0000 0.89920  0.38020  0.09007  Biso   1.000  C
  C53      1.0000 0.60080  0.88020  0.09007  Biso   1.000  C
  C54      1.0000 0.89920  0.11980  0.59007  Biso   1.000  C
  C55      1.0000 0.39920  0.38020  0.40993  Biso   1.000  C
  C56      1.0000 0.10080  0.61980  0.90993  Biso   1.000  C
  H49      1.0000 0.39090  0.03690  0.92770  Biso   1.000  H
  H50      1.0000 0.10910  0.96310  0.42770  Biso   1.000  H
  H51      1.0000 0.60910  0.53690  0.57230  Biso   1.000  H
  H52      1.0000 0.89090  0.46310  0.07230  Biso   1.000  H
  H53      1.0000 0.60910  0.96310  0.07230  Biso   1.000  H
  H54      1.0000 0.89090  0.03690  0.57230  Biso   1.000  H
  H55      1.0000 0.39090  0.46310  0.42770  Biso   1.000  H
  H56      1.0000 0.10910  0.53690  0.92770  Biso   1.000  H
  H57      1.0000 0.35450  0.18090  0.93400  Biso   1.000  H
  H58      1.0000 0.14550  0.81910  0.43400  Biso   1.000  H
  H59      1.0000 0.64550  0.68090  0.56600  Biso   1.000  H
  H60      1.0000 0.85450  0.31910  0.06600  Biso   1.000  H
  H61      1.0000 0.64550  0.81910  0.06600  Biso   1.000  H
  H62      1.0000 0.85450  0.18090  0.56600  Biso   1.000  H
  H63      1.0000 0.35450  0.31910  0.43400  Biso   1.000  H
  H64      1.0000 0.14550  0.68090  0.93400  Biso   1.000  H
  H65      1.0000 0.48680  0.14270  0.90810  Biso   1.000  H
  H66      1.0000 0.01320  0.85730  0.40810  Biso   1.000  H
  H67      1.0000 0.51320  0.64270  0.59190  Biso   1.000  H
  H68      1.0000 0.98680  0.35730  0.09190  Biso   1.000  H
  H69      1.0000 0.51320  0.85730  0.09190  Biso   1.000  H
  H70      1.0000 0.98680  0.14270  0.59190  Biso   1.000  H
  H71      1.0000 0.48680  0.35730  0.40810  Biso   1.000  H
  H72      1.0000 0.01320  0.64270  0.90810  Biso   1.000  H
  C57      1.0000 0.03090  0.28814  0.79020  Biso   1.000  C
  C58      1.0000 0.46910  0.71186  0.29020  Biso   1.000  C
  C59      1.0000 0.96910  0.78814  0.70980  Biso   1.000  C
  C60      1.0000 0.53090  0.21186  0.20980  Biso   1.000  C
  C61      1.0000 0.96910  0.71186  0.20980  Biso   1.000  C
  C62      1.0000 0.53090  0.28814  0.70980  Biso   1.000  C
  C63      1.0000 0.03090  0.21186  0.29020  Biso   1.000  C
  C64      1.0000 0.46910  0.78814  0.79020  Biso   1.000  C
  H73      1.0000 0.05100  0.23660  0.82290  Biso   1.000  H
  H74      1.0000 0.44900  0.76340  0.32290  Biso   1.000  H
  H75      1.0000 0.94900  0.73660  0.67710  Biso   1.000  H
  H76      1.0000 0.55100  0.26340  0.17710  Biso   1.000  H
  H77      1.0000 0.94900  0.76340  0.17710  Biso   1.000  H
  H78      1.0000 0.55100  0.23660  0.67710  Biso   1.000  H
  H79      1.0000 0.05100  0.26340  0.32290  Biso   1.000  H
  H80      1.0000 0.44900  0.73660  0.82290  Biso   1.000  H
  F1       1.0000 0.56862  0.13443  0.57974  Biso   1.000  F
  F2       1.0000 0.93138  0.86557  0.07974  Biso   1.000  F
  F3       1.0000 0.43138  0.63443  0.92026  Biso   1.000  F
  F4       1.0000 0.06862  0.36557  0.42026  Biso   1.000  F
  F5       1.0000 0.43138  0.86557  0.42026  Biso   1.000  F
  F6       1.0000 0.06862  0.13443  0.92026  Biso   1.000  F
  F7       1.0000 0.56862  0.36557  0.07974  Biso   1.000  F
  F8       1.0000 0.93138  0.63443  0.57974  Biso   1.000  F
  F9       1.0000 0.59356  0.23675  0.49190  Biso   1.000  F
  F10      1.0000 0.90644  0.76325  0.99190  Biso   1.000  F
  F11      1.0000 0.40644  0.73675  0.00810  Biso   1.000  F
  F12      1.0000 0.09356  0.26325  0.50810  Biso   1.000  F
  F13      1.0000 0.40644  0.76325  0.50810  Biso   1.000  F
  F14      1.0000 0.09356  0.23675  0.00810  Biso   1.000  F
  F15      1.0000 0.59356  0.26325  0.99190  Biso   1.000  F
  F16      1.0000 0.90644  0.73675  0.49190  Biso   1.000  F
  F17      1.0000 0.45847  0.31192  0.56070  Biso   1.000  F
  F18      1.0000 0.04153  0.68808  0.06070  Biso   1.000  F
  F19      1.0000 0.54153  0.81192  0.93930  Biso   1.000  F
  F20      1.0000 0.95847  0.18808  0.43930  Biso   1.000  F
  F21      1.0000 0.54153  0.68808  0.43930  Biso   1.000  F
  F22      1.0000 0.95847  0.31192  0.93930  Biso   1.000  F
  F23      1.0000 0.45847  0.18808  0.06070  Biso   1.000  F
  F24      1.0000 0.04153  0.81192  0.56070  Biso   1.000  F
  F25      1.0000 0.66615  0.32227  0.57770  Biso   1.000  F
  F26      1.0000 0.83385  0.67773  0.07770  Biso   1.000  F
  F27      1.0000 0.33385  0.82227  0.92230  Biso   1.000  F
  F28      1.0000 0.16615  0.17773  0.42230  Biso   1.000  F
  F29      1.0000 0.33385  0.67773  0.42230  Biso   1.000  F
  F30      1.0000 0.16615  0.32227  0.92230  Biso   1.000  F
  F31      1.0000 0.66615  0.17773  0.07770  Biso   1.000  F
  F32      1.0000 0.83385  0.82227  0.57770  Biso   1.000  F
  B1       1.0000 0.57100  0.25130  0.55214  Biso   1.000  B
  B2       1.0000 0.92900  0.74870  0.05214  Biso   1.000  B
  B3       1.0000 0.42900  0.75130  0.94786  Biso   1.000  B
  B4       1.0000 0.07100  0.24870  0.44786  Biso   1.000  B
  B5       1.0000 0.42900  0.74870  0.44786  Biso   1.000  B
  B6       1.0000 0.07100  0.25130  0.94786  Biso   1.000  B
  B7       1.0000 0.57100  0.24870  0.05214  Biso   1.000  B
  B8       1.0000 0.92900  0.75130  0.55214  Biso   1.000  B
