data_image0
_cell_length_a       9.0249
_cell_length_b       15.855
_cell_length_c       10.8836
_cell_angle_alpha    90
_cell_angle_beta     90
_cell_angle_gamma    90

_symmetry_space_group_name_H-M    "P 1"
_symmetry_int_tables_number       1

loop_
  _symmetry_equiv_pos_as_xyz
  'x, y, z'

loop_
  _atom_site_label
  _atom_site_occupancy
  _atom_site_fract_x
  _atom_site_fract_y
  _atom_site_fract_z
  _atom_site_thermal_displace_type
  _atom_site_B_iso_or_equiv
  _atom_site_type_symbol
  Cu1      1.0000 0.23384  0.75000  0.56273  Biso   1.000  Cu
  Cu2      1.0000 0.26616  0.25000  0.06273  Biso   1.000  Cu
  Cu3      1.0000 0.73384  0.75000  0.93727  Biso   1.000  Cu
  Cu4      1.0000 0.76616  0.25000  0.43727  Biso   1.000  Cu
  S1       1.0000 0.98696  0.75000  0.94610  Biso   1.000  S
  S2       1.0000 0.51304  0.25000  0.44610  Biso   1.000  S
  S3       1.0000 0.48696  0.75000  0.55390  Biso   1.000  S
  S4       1.0000 0.01304  0.25000  0.05390  Biso   1.000  S
  N1       1.0000 0.14280  0.66660  0.43230  Biso   1.000  N
  N2       1.0000 0.35720  0.33340  0.93230  Biso   1.000  N
  N3       1.0000 0.64280  0.83340  0.06770  Biso   1.000  N
  N4       1.0000 0.85720  0.16660  0.56770  Biso   1.000  N
  N5       1.0000 0.85720  0.33340  0.56770  Biso   1.000  N
  N6       1.0000 0.64280  0.66660  0.06770  Biso   1.000  N
  N7       1.0000 0.35720  0.16660  0.93230  Biso   1.000  N
  N8       1.0000 0.14280  0.83340  0.43230  Biso   1.000  N
  N9       1.0000 0.12410  0.75000  0.71500  Biso   1.000  N
  N10      1.0000 0.37590  0.25000  0.21500  Biso   1.000  N
  N11      1.0000 0.62410  0.75000  0.78500  Biso   1.000  N
  N12      1.0000 0.87590  0.25000  0.28500  Biso   1.000  N
  C1       1.0000 0.04890  0.70310  0.35500  Biso   1.000  C
  C2       1.0000 0.45110  0.29690  0.85500  Biso   1.000  C
  C3       1.0000 0.54890  0.79690  0.14500  Biso   1.000  C
  C4       1.0000 0.95110  0.20310  0.64500  Biso   1.000  C
  C5       1.0000 0.95110  0.29690  0.64500  Biso   1.000  C
  C6       1.0000 0.54890  0.70310  0.14500  Biso   1.000  C
  C7       1.0000 0.45110  0.20310  0.85500  Biso   1.000  C
  C8       1.0000 0.04890  0.79690  0.35500  Biso   1.000  C
  C9       1.0000 0.95900  0.84370  0.27380  Biso   1.000  C
  C10      1.0000 0.54100  0.15630  0.77380  Biso   1.000  C
  C11      1.0000 0.45900  0.65630  0.22620  Biso   1.000  C
  C12      1.0000 0.04100  0.34370  0.72620  Biso   1.000  C
  C13      1.0000 0.04100  0.15630  0.72620  Biso   1.000  C
  C14      1.0000 0.45900  0.84370  0.22620  Biso   1.000  C
  C15      1.0000 0.54100  0.34370  0.77380  Biso   1.000  C
  C16      1.0000 0.95900  0.65630  0.27380  Biso   1.000  C
  C17      1.0000 0.97080  0.92950  0.27200  Biso   1.000  C
  C18      1.0000 0.52920  0.07050  0.77200  Biso   1.000  C
  C19      1.0000 0.47080  0.57050  0.22800  Biso   1.000  C
  C20      1.0000 0.02920  0.42950  0.72800  Biso   1.000  C
  C21      1.0000 0.02920  0.07050  0.72800  Biso   1.000  C
  C22      1.0000 0.47080  0.92950  0.22800  Biso   1.000  C
  C23      1.0000 0.52920  0.42950  0.77200  Biso   1.000  C
  C24      1.0000 0.97080  0.57050  0.27200  Biso   1.000  C
  C25      1.0000 0.07320  0.97000  0.34850  Biso   1.000  C
  C26      1.0000 0.42680  0.03000  0.84850  Biso   1.000  C
  C27      1.0000 0.57320  0.53000  0.15150  Biso   1.000  C
  C28      1.0000 0.92680  0.47000  0.65150  Biso   1.000  C
  C29      1.0000 0.92680  0.03000  0.65150  Biso   1.000  C
  C30      1.0000 0.57320  0.97000  0.15150  Biso   1.000  C
  C31      1.0000 0.42680  0.47000  0.84850  Biso   1.000  C
  C32      1.0000 0.07320  0.53000  0.34850  Biso   1.000  C
  C33      1.0000 0.09550  0.05870  0.34810  Biso   1.000  C
  C34      1.0000 0.40450  0.94130  0.84810  Biso   1.000  C
  C35      1.0000 0.59550  0.44130  0.15190  Biso   1.000  C
  C36      1.0000 0.90450  0.55870  0.65190  Biso   1.000  C
  C37      1.0000 0.90450  0.94130  0.65190  Biso   1.000  C
  C38      1.0000 0.59550  0.05870  0.15190  Biso   1.000  C
  C39      1.0000 0.40450  0.55870  0.84810  Biso   1.000  C
  C40      1.0000 0.09550  0.44130  0.34810  Biso   1.000  C
  C41      1.0000 0.19830  0.09390  0.42310  Biso   1.000  C
  C42      1.0000 0.30170  0.90610  0.92310  Biso   1.000  C
  C43      1.0000 0.69830  0.40610  0.07690  Biso   1.000  C
  C44      1.0000 0.80170  0.59390  0.57690  Biso   1.000  C
  C45      1.0000 0.80170  0.90610  0.57690  Biso   1.000  C
  C46      1.0000 0.69830  0.09390  0.07690  Biso   1.000  C
  C47      1.0000 0.30170  0.59390  0.92310  Biso   1.000  C
  C48      1.0000 0.19830  0.40610  0.42310  Biso   1.000  C
  C49      1.0000 0.28220  0.04400  0.50280  Biso   1.000  C
  C50      1.0000 0.21780  0.95600  0.00280  Biso   1.000  C
  C51      1.0000 0.78220  0.45600  0.99720  Biso   1.000  C
  C52      1.0000 0.71780  0.54400  0.49720  Biso   1.000  C
  C53      1.0000 0.71780  0.95600  0.49720  Biso   1.000  C
  C54      1.0000 0.78220  0.04400  0.99720  Biso   1.000  C
  C55      1.0000 0.21780  0.54400  0.00280  Biso   1.000  C
  C56      1.0000 0.28220  0.45600  0.50280  Biso   1.000  C
  C57      1.0000 0.26170  0.95810  0.50820  Biso   1.000  C
  C58      1.0000 0.23830  0.04190  0.00820  Biso   1.000  C
  C59      1.0000 0.76170  0.54190  0.99180  Biso   1.000  C
  C60      1.0000 0.73830  0.45810  0.49180  Biso   1.000  C
  C61      1.0000 0.73830  0.04190  0.49180  Biso   1.000  C
  C62      1.0000 0.76170  0.95810  0.99180  Biso   1.000  C
  C63      1.0000 0.23830  0.45810  0.00820  Biso   1.000  C
  C64      1.0000 0.26170  0.54190  0.50820  Biso   1.000  C
  C65      1.0000 0.15760  0.91970  0.43000  Biso   1.000  C
  C66      1.0000 0.34240  0.08030  0.93000  Biso   1.000  C
  C67      1.0000 0.65760  0.58030  0.07000  Biso   1.000  C
  C68      1.0000 0.84240  0.41970  0.57000  Biso   1.000  C
  C69      1.0000 0.84240  0.08030  0.57000  Biso   1.000  C
  C70      1.0000 0.65760  0.91970  0.07000  Biso   1.000  C
  C71      1.0000 0.34240  0.41970  0.93000  Biso   1.000  C
  C72      1.0000 0.15760  0.58030  0.43000  Biso   1.000  C
  C73      1.0000 0.06200  0.75000  0.80810  Biso   1.000  C
  C74      1.0000 0.43800  0.25000  0.30810  Biso   1.000  C
  C75      1.0000 0.56200  0.75000  0.69190  Biso   1.000  C
  C76      1.0000 0.93800  0.25000  0.19190  Biso   1.000  C
  H1       1.0000 0.89230  0.81650  0.22220  Biso   1.000  H
  H2       1.0000 0.60770  0.18350  0.72220  Biso   1.000  H
  H3       1.0000 0.39230  0.68350  0.27780  Biso   1.000  H
  H4       1.0000 0.10770  0.31650  0.77780  Biso   1.000  H
  H5       1.0000 0.10770  0.18350  0.77780  Biso   1.000  H
  H6       1.0000 0.39230  0.81650  0.27780  Biso   1.000  H
  H7       1.0000 0.60770  0.31650  0.72220  Biso   1.000  H
  H8       1.0000 0.89230  0.68350  0.22220  Biso   1.000  H
  H9       1.0000 0.91090  0.96100  0.21980  Biso   1.000  H
  H10      1.0000 0.58910  0.03900  0.71980  Biso   1.000  H
  H11      1.0000 0.41090  0.53900  0.28020  Biso   1.000  H
  H12      1.0000 0.08910  0.46100  0.78020  Biso   1.000  H
  H13      1.0000 0.08910  0.03900  0.78020  Biso   1.000  H
  H14      1.0000 0.41090  0.96100  0.28020  Biso   1.000  H
  H15      1.0000 0.58910  0.46100  0.71980  Biso   1.000  H
  H16      1.0000 0.91090  0.53900  0.21980  Biso   1.000  H
  H17      1.0000 0.03940  0.09270  0.29630  Biso   1.000  H
  H18      1.0000 0.46060  0.90730  0.79630  Biso   1.000  H
  H19      1.0000 0.53940  0.40730  0.20370  Biso   1.000  H
  H20      1.0000 0.96060  0.59270  0.70370  Biso   1.000  H
  H21      1.0000 0.96060  0.90730  0.70370  Biso   1.000  H
  H22      1.0000 0.53940  0.09270  0.20370  Biso   1.000  H
  H23      1.0000 0.46060  0.59270  0.79630  Biso   1.000  H
  H24      1.0000 0.03940  0.40730  0.29630  Biso   1.000  H
  H25      1.0000 0.21320  0.15190  0.42150  Biso   1.000  H
  H26      1.0000 0.28680  0.84810  0.92150  Biso   1.000  H
  H27      1.0000 0.71320  0.34810  0.07850  Biso   1.000  H
  H28      1.0000 0.78680  0.65190  0.57850  Biso   1.000  H
  H29      1.0000 0.78680  0.84810  0.57850  Biso   1.000  H
  H30      1.0000 0.71320  0.15190  0.07850  Biso   1.000  H
  H31      1.0000 0.28680  0.65190  0.92150  Biso   1.000  H
  H32      1.0000 0.21320  0.34810  0.42150  Biso   1.000  H
  H33      1.0000 0.35290  0.06920  0.55300  Biso   1.000  H
  H34      1.0000 0.14710  0.93080  0.05300  Biso   1.000  H
  H35      1.0000 0.85290  0.43080  0.94700  Biso   1.000  H
  H36      1.0000 0.64710  0.56920  0.44700  Biso   1.000  H
  H37      1.0000 0.64710  0.93080  0.44700  Biso   1.000  H
  H38      1.0000 0.85290  0.06920  0.94700  Biso   1.000  H
  H39      1.0000 0.14710  0.56920  0.05300  Biso   1.000  H
  H40      1.0000 0.35290  0.43080  0.55300  Biso   1.000  H
  H41      1.0000 0.31630  0.92560  0.56320  Biso   1.000  H
  H42      1.0000 0.18370  0.07440  0.06320  Biso   1.000  H
  H43      1.0000 0.81630  0.57440  0.93680  Biso   1.000  H
  H44      1.0000 0.68370  0.42560  0.43680  Biso   1.000  H
  H45      1.0000 0.68370  0.07440  0.43680  Biso   1.000  H
  H46      1.0000 0.81630  0.92560  0.93680  Biso   1.000  H
  H47      1.0000 0.18370  0.42560  0.06320  Biso   1.000  H
  H48      1.0000 0.31630  0.57440  0.56320  Biso   1.000  H
