data_image0
_cell_length_a       13.0683
_cell_length_b       12.5425
_cell_length_c       11.4732
_cell_angle_alpha    90
_cell_angle_beta     94.94
_cell_angle_gamma    90

_symmetry_space_group_name_H-M    "P 1"
_symmetry_int_tables_number       1

loop_
  _symmetry_equiv_pos_as_xyz
  'x, y, z'

loop_
  _atom_site_label
  _atom_site_occupancy
  _atom_site_fract_x
  _atom_site_fract_y
  _atom_site_fract_z
  _atom_site_thermal_displace_type
  _atom_site_B_iso_or_equiv
  _atom_site_type_symbol
  C1       1.0000 0.30070  0.94170  0.92000  Biso   1.000  C
  C2       1.0000 0.80070  0.44170  0.92000  Biso   1.000  C
  C3       1.0000 0.69930  0.94170  0.58000  Biso   1.000  C
  C4       1.0000 0.19930  0.44170  0.58000  Biso   1.000  C
  C5       1.0000 0.69930  0.05830  0.08000  Biso   1.000  C
  C6       1.0000 0.19930  0.55830  0.08000  Biso   1.000  C
  C7       1.0000 0.30070  0.05830  0.42000  Biso   1.000  C
  C8       1.0000 0.80070  0.55830  0.42000  Biso   1.000  C
  H1       1.0000 0.25690  0.95550  0.85340  Biso   1.000  H
  H2       1.0000 0.75690  0.45550  0.85340  Biso   1.000  H
  H3       1.0000 0.74310  0.95550  0.64660  Biso   1.000  H
  H4       1.0000 0.24310  0.45550  0.64660  Biso   1.000  H
  H5       1.0000 0.74310  0.04450  0.14660  Biso   1.000  H
  H6       1.0000 0.24310  0.54450  0.14660  Biso   1.000  H
  H7       1.0000 0.25690  0.04450  0.35340  Biso   1.000  H
  H8       1.0000 0.75690  0.54450  0.35340  Biso   1.000  H
  C9       1.0000 0.33430  0.83940  0.95370  Biso   1.000  C
  C10      1.0000 0.83430  0.33940  0.95370  Biso   1.000  C
  C11      1.0000 0.66570  0.83940  0.54630  Biso   1.000  C
  C12      1.0000 0.16570  0.33940  0.54630  Biso   1.000  C
  C13      1.0000 0.66570  0.16060  0.04630  Biso   1.000  C
  C14      1.0000 0.16570  0.66060  0.04630  Biso   1.000  C
  C15      1.0000 0.33430  0.16060  0.45370  Biso   1.000  C
  C16      1.0000 0.83430  0.66060  0.45370  Biso   1.000  C
  H9       1.0000 0.31820  0.77530  0.91570  Biso   1.000  H
  H10      1.0000 0.81820  0.27530  0.91570  Biso   1.000  H
  H11      1.0000 0.68180  0.77530  0.58430  Biso   1.000  H
  H12      1.0000 0.18180  0.27530  0.58430  Biso   1.000  H
  H13      1.0000 0.68180  0.22470  0.08430  Biso   1.000  H
  H14      1.0000 0.18180  0.72470  0.08430  Biso   1.000  H
  H15      1.0000 0.31820  0.22470  0.41570  Biso   1.000  H
  H16      1.0000 0.81820  0.72470  0.41570  Biso   1.000  H
  C17      1.0000 0.39660  0.85420  0.05550  Biso   1.000  C
  C18      1.0000 0.89660  0.35420  0.05550  Biso   1.000  C
  C19      1.0000 0.60340  0.85420  0.44450  Biso   1.000  C
  C20      1.0000 0.10340  0.35420  0.44450  Biso   1.000  C
  C21      1.0000 0.60340  0.14580  0.94450  Biso   1.000  C
  C22      1.0000 0.10340  0.64580  0.94450  Biso   1.000  C
  C23      1.0000 0.39660  0.14580  0.55550  Biso   1.000  C
  C24      1.0000 0.89660  0.64580  0.55550  Biso   1.000  C
  H17      1.0000 0.43180  0.80190  0.10030  Biso   1.000  H
  H18      1.0000 0.93180  0.30190  0.10030  Biso   1.000  H
  H19      1.0000 0.56820  0.80190  0.39970  Biso   1.000  H
  H20      1.0000 0.06820  0.30190  0.39970  Biso   1.000  H
  H21      1.0000 0.56820  0.19810  0.89970  Biso   1.000  H
  H22      1.0000 0.06820  0.69810  0.89970  Biso   1.000  H
  H23      1.0000 0.43180  0.19810  0.60030  Biso   1.000  H
  H24      1.0000 0.93180  0.69810  0.60030  Biso   1.000  H
  C25      1.0000 0.44910  0.01530  0.16960  Biso   1.000  C
  C26      1.0000 0.94910  0.51530  0.16960  Biso   1.000  C
  C27      1.0000 0.55090  0.01530  0.33040  Biso   1.000  C
  C28      1.0000 0.05090  0.51530  0.33040  Biso   1.000  C
  C29      1.0000 0.55090  0.98470  0.83040  Biso   1.000  C
  C30      1.0000 0.05090  0.48470  0.83040  Biso   1.000  C
  C31      1.0000 0.44910  0.98470  0.66960  Biso   1.000  C
  C32      1.0000 0.94910  0.48470  0.66960  Biso   1.000  C
  C33      1.0000 0.50000  0.17240  0.25000  Biso   1.000  C
  C34      1.0000 0.00000  0.67240  0.25000  Biso   1.000  C
  C35      1.0000 0.50000  0.82760  0.75000  Biso   1.000  C
  C36      1.0000 0.00000  0.32760  0.75000  Biso   1.000  C
  C37      1.0000 0.47440  0.44030  0.19340  Biso   1.000  C
  C38      1.0000 0.97440  0.94030  0.19340  Biso   1.000  C
  C39      1.0000 0.52560  0.44030  0.30660  Biso   1.000  C
  C40      1.0000 0.02560  0.94030  0.30660  Biso   1.000  C
  C41      1.0000 0.52560  0.55970  0.80660  Biso   1.000  C
  C42      1.0000 0.02560  0.05970  0.80660  Biso   1.000  C
  C43      1.0000 0.47440  0.55970  0.69340  Biso   1.000  C
  C44      1.0000 0.97440  0.05970  0.69340  Biso   1.000  C
  H25      1.0000 0.45590  0.50060  0.14940  Biso   1.000  H
  H26      1.0000 0.95590  0.00060  0.14940  Biso   1.000  H
  H27      1.0000 0.54410  0.50060  0.35060  Biso   1.000  H
  H28      1.0000 0.04410  0.00060  0.35060  Biso   1.000  H
  H29      1.0000 0.54410  0.49940  0.85060  Biso   1.000  H
  H30      1.0000 0.04410  0.99940  0.85060  Biso   1.000  H
  H31      1.0000 0.45590  0.49940  0.64940  Biso   1.000  H
  H32      1.0000 0.95590  0.99940  0.64940  Biso   1.000  H
  Cu1      1.0000 0.31458  0.17553  0.02496  Biso   1.000  Cu
  Cu2      1.0000 0.81458  0.67553  0.02496  Biso   1.000  Cu
  Cu3      1.0000 0.68542  0.17553  0.47504  Biso   1.000  Cu
  Cu4      1.0000 0.18542  0.67553  0.47504  Biso   1.000  Cu
  Cu5      1.0000 0.68542  0.82447  0.97504  Biso   1.000  Cu
  Cu6      1.0000 0.18542  0.32447  0.97504  Biso   1.000  Cu
  Cu7      1.0000 0.31458  0.82447  0.52496  Biso   1.000  Cu
  Cu8      1.0000 0.81458  0.32447  0.52496  Biso   1.000  Cu
  I1       1.0000 0.16509  0.20885  0.15566  Biso   1.000  I
  I2       1.0000 0.66509  0.70885  0.15566  Biso   1.000  I
  I3       1.0000 0.83491  0.20885  0.34434  Biso   1.000  I
  I4       1.0000 0.33491  0.70885  0.34434  Biso   1.000  I
  I5       1.0000 0.83491  0.79115  0.84434  Biso   1.000  I
  I6       1.0000 0.33491  0.29115  0.84434  Biso   1.000  I
  I7       1.0000 0.16509  0.79115  0.65566  Biso   1.000  I
  I8       1.0000 0.66509  0.29115  0.65566  Biso   1.000  I
  N1       1.0000 0.33760  0.01630  0.99260  Biso   1.000  N
  N2       1.0000 0.83760  0.51630  0.99260  Biso   1.000  N
  N3       1.0000 0.66240  0.01630  0.50740  Biso   1.000  N
  N4       1.0000 0.16240  0.51630  0.50740  Biso   1.000  N
  N5       1.0000 0.66240  0.98370  0.00740  Biso   1.000  N
  N6       1.0000 0.16240  0.48370  0.00740  Biso   1.000  N
  N7       1.0000 0.33760  0.98370  0.49260  Biso   1.000  N
  N8       1.0000 0.83760  0.48370  0.49260  Biso   1.000  N
  N9       1.0000 0.39630  0.96090  0.07730  Biso   1.000  N
  N10      1.0000 0.89630  0.46090  0.07730  Biso   1.000  N
  N11      1.0000 0.60370  0.96090  0.42270  Biso   1.000  N
  N12      1.0000 0.10370  0.46090  0.42270  Biso   1.000  N
  N13      1.0000 0.60370  0.03910  0.92270  Biso   1.000  N
  N14      1.0000 0.10370  0.53910  0.92270  Biso   1.000  N
  N15      1.0000 0.39630  0.03910  0.57730  Biso   1.000  N
  N16      1.0000 0.89630  0.53910  0.57730  Biso   1.000  N
  N17      1.0000 0.44360  0.12380  0.16240  Biso   1.000  N
  N18      1.0000 0.94360  0.62380  0.16240  Biso   1.000  N
  N19      1.0000 0.55640  0.12380  0.33760  Biso   1.000  N
  N20      1.0000 0.05640  0.62380  0.33760  Biso   1.000  N
  N21      1.0000 0.55640  0.87620  0.83760  Biso   1.000  N
  N22      1.0000 0.05640  0.37620  0.83760  Biso   1.000  N
  N23      1.0000 0.44360  0.87620  0.66240  Biso   1.000  N
  N24      1.0000 0.94360  0.37620  0.66240  Biso   1.000  N
  N25      1.0000 0.50000  0.27950  0.25000  Biso   1.000  N
  N26      1.0000 0.00000  0.77950  0.25000  Biso   1.000  N
  N27      1.0000 0.50000  0.72050  0.75000  Biso   1.000  N
  N28      1.0000 0.00000  0.22050  0.75000  Biso   1.000  N
  N29      1.0000 0.45660  0.33970  0.15950  Biso   1.000  N
  N30      1.0000 0.95660  0.83970  0.15950  Biso   1.000  N
  N31      1.0000 0.54340  0.33970  0.34050  Biso   1.000  N
  N32      1.0000 0.04340  0.83970  0.34050  Biso   1.000  N
  N33      1.0000 0.54340  0.66030  0.84050  Biso   1.000  N
  N34      1.0000 0.04340  0.16030  0.84050  Biso   1.000  N
  N35      1.0000 0.45660  0.66030  0.65950  Biso   1.000  N
  N36      1.0000 0.95660  0.16030  0.65950  Biso   1.000  N
  H33      1.0000 0.42240  0.31590  0.08990  Biso   1.000  H
  H34      1.0000 0.92240  0.81590  0.08990  Biso   1.000  H
  H35      1.0000 0.57760  0.31590  0.41010  Biso   1.000  H
  H36      1.0000 0.07760  0.81590  0.41010  Biso   1.000  H
  H37      1.0000 0.57760  0.68410  0.91010  Biso   1.000  H
  H38      1.0000 0.07760  0.18410  0.91010  Biso   1.000  H
  H39      1.0000 0.42240  0.68410  0.58990  Biso   1.000  H
  H40      1.0000 0.92240  0.18410  0.58990  Biso   1.000  H
  N37      1.0000 0.50000  0.95670  0.25000  Biso   1.000  N
  N38      1.0000 0.00000  0.45670  0.25000  Biso   1.000  N
  N39      1.0000 0.50000  0.04330  0.75000  Biso   1.000  N
  N40      1.0000 0.00000  0.54330  0.75000  Biso   1.000  N
