data_image0
_cell_length_a       5.6089
_cell_length_b       10.0854
_cell_length_c       12.0023
_cell_angle_alpha    81.6
_cell_angle_beta     77.301
_cell_angle_gamma    85.702

_symmetry_space_group_name_H-M    "P 1"
_symmetry_int_tables_number       1

loop_
  _symmetry_equiv_pos_as_xyz
  'x, y, z'

loop_
  _atom_site_label
  _atom_site_occupancy
  _atom_site_fract_x
  _atom_site_fract_y
  _atom_site_fract_z
  _atom_site_thermal_displace_type
  _atom_site_B_iso_or_equiv
  _atom_site_type_symbol
  Cu1      1.0000 0.25400  0.01093  0.47863  Biso   1.000  Cu
  Cu2      1.0000 0.74600  0.98907  0.52137  Biso   1.000  Cu
  I1       1.0000 0.98234  0.21615  0.42686  Biso   1.000  I
  I2       1.0000 0.01766  0.78385  0.57314  Biso   1.000  I
  C1       1.0000 0.81820  0.21780  0.11750  Biso   1.000  C
  C2       1.0000 0.18180  0.78220  0.88250  Biso   1.000  C
  H1       1.0000 0.76610  0.30510  0.08790  Biso   1.000  H
  H2       1.0000 0.23390  0.69490  0.91210  Biso   1.000  H
  C3       1.0000 0.04960  0.16610  0.06960  Biso   1.000  C
  C4       1.0000 0.95040  0.83390  0.93040  Biso   1.000  C
  C5       1.0000 0.11970  0.03930  0.11560  Biso   1.000  C
  C6       1.0000 0.88030  0.96070  0.88440  Biso   1.000  C
  H3       1.0000 0.27670  0.00090  0.08620  Biso   1.000  H
  H4       1.0000 0.72330  0.99910  0.91380  Biso   1.000  H
  C7       1.0000 0.96520  0.97140  0.20150  Biso   1.000  C
  C8       1.0000 0.03480  0.02860  0.79850  Biso   1.000  C
  H5       1.0000 0.01750  0.88360  0.22980  Biso   1.000  H
  H6       1.0000 0.98250  0.11640  0.77020  Biso   1.000  H
  C9       1.0000 0.74230  0.01650  0.25140  Biso   1.000  C
  C10      1.0000 0.25770  0.98350  0.74860  Biso   1.000  C
  C11      1.0000 0.21700  0.24510  0.97370  Biso   1.000  C
  C12      1.0000 0.78300  0.75490  0.02630  Biso   1.000  C
  N1       1.0000 0.66340  0.14510  0.20690  Biso   1.000  N
  N2       1.0000 0.33660  0.85490  0.79310  Biso   1.000  N
  H7       1.0000 0.51710  0.17860  0.23560  Biso   1.000  H
  H8       1.0000 0.48290  0.82140  0.76440  Biso   1.000  H
  O1       1.0000 0.18090  0.35900  0.93900  Biso   1.000  O
  O2       1.0000 0.81910  0.64100  0.06100  Biso   1.000  O
  O3       1.0000 0.41720  0.17250  0.93220  Biso   1.000  O
  O4       1.0000 0.58280  0.82750  0.06780  Biso   1.000  O
  H9       1.0000 0.51580  0.22230  0.88430  Biso   1.000  H
  H10      1.0000 0.48420  0.77770  0.11570  Biso   1.000  H
  S1       1.0000 0.57570  0.91372  0.36223  Biso   1.000  S
  S2       1.0000 0.42430  0.08628  0.63777  Biso   1.000  S
  C13      1.0000 0.26550  0.48250  0.16830  Biso   1.000  C
  C14      1.0000 0.73450  0.51750  0.83170  Biso   1.000  C
  H11      1.0000 0.14140  0.49130  0.12120  Biso   1.000  H
  H12      1.0000 0.85860  0.50870  0.87880  Biso   1.000  H
  H13      1.0000 0.28100  0.38880  0.20280  Biso   1.000  H
  H14      1.0000 0.71900  0.61120  0.79720  Biso   1.000  H
  H15      1.0000 0.42300  0.50990  0.11970  Biso   1.000  H
  H16      1.0000 0.57700  0.49010  0.88030  Biso   1.000  H
  C15      1.0000 0.42200  0.54420  0.35030  Biso   1.000  C
  C16      1.0000 0.57800  0.45580  0.64970  Biso   1.000  C
  H17      1.0000 0.40410  0.59650  0.41460  Biso   1.000  H
  H18      1.0000 0.59590  0.40350  0.58540  Biso   1.000  H
  H19      1.0000 0.57670  0.56410  0.29570  Biso   1.000  H
  H20      1.0000 0.42330  0.43590  0.70430  Biso   1.000  H
  H21      1.0000 0.42130  0.44830  0.37970  Biso   1.000  H
  H22      1.0000 0.57870  0.55170  0.62030  Biso   1.000  H
  O5       1.0000 0.22560  0.72780  0.21610  Biso   1.000  O
  O6       1.0000 0.77440  0.27220  0.78390  Biso   1.000  O
  S3       1.0000 0.17620  0.58715  0.27972  Biso   1.000  S
  S4       1.0000 0.82380  0.41285  0.72028  Biso   1.000  S
