data_image0
_cell_length_a       7.6184
_cell_length_b       22.781
_cell_length_c       10.2776
_cell_angle_alpha    90
_cell_angle_beta     106.759
_cell_angle_gamma    90

_symmetry_space_group_name_H-M    "P 1"
_symmetry_int_tables_number       1

loop_
  _symmetry_equiv_pos_as_xyz
  'x, y, z'

loop_
  _atom_site_label
  _atom_site_occupancy
  _atom_site_fract_x
  _atom_site_fract_y
  _atom_site_fract_z
  _atom_site_thermal_displace_type
  _atom_site_B_iso_or_equiv
  _atom_site_type_symbol
  I1       1.0000 0.41420  0.04308  0.77318  Biso   1.000  I
  I2       1.0000 0.08580  0.54308  0.72682  Biso   1.000  I
  I3       1.0000 0.58580  0.95692  0.22682  Biso   1.000  I
  I4       1.0000 0.91420  0.45692  0.27318  Biso   1.000  I
  I5       1.0000 0.87241  0.07952  0.54896  Biso   1.000  I
  I6       1.0000 0.62759  0.57952  0.95104  Biso   1.000  I
  I7       1.0000 0.12759  0.92048  0.45104  Biso   1.000  I
  I8       1.0000 0.37241  0.42048  0.04896  Biso   1.000  I
  Cu1      1.0000 0.57750  0.05040  0.36366  Biso   1.000  Cu
  Cu2      1.0000 0.92250  0.55040  0.13634  Biso   1.000  Cu
  Cu3      1.0000 0.42250  0.94960  0.63634  Biso   1.000  Cu
  Cu4      1.0000 0.07750  0.44960  0.86366  Biso   1.000  Cu
  Cu5      1.0000 0.18341  0.03497  0.52741  Biso   1.000  Cu
  Cu6      1.0000 0.31659  0.53497  0.97259  Biso   1.000  Cu
  Cu7      1.0000 0.81659  0.96503  0.47259  Biso   1.000  Cu
  Cu8      1.0000 0.68341  0.46503  0.02741  Biso   1.000  Cu
  S1       1.0000 0.30720  0.08635  0.38430  Biso   1.000  S
  S2       1.0000 0.19280  0.58635  0.11570  Biso   1.000  S
  S3       1.0000 0.69280  0.91365  0.61570  Biso   1.000  S
  S4       1.0000 0.80720  0.41365  0.88430  Biso   1.000  S
  O1       1.0000 0.54560  0.11770  0.19650  Biso   1.000  O
  O2       1.0000 0.95440  0.61770  0.30350  Biso   1.000  O
  O3       1.0000 0.45440  0.88230  0.80350  Biso   1.000  O
  O4       1.0000 0.04560  0.38230  0.69650  Biso   1.000  O
  N1       1.0000 0.00060  0.06400  0.19440  Biso   1.000  N
  N2       1.0000 0.49940  0.56400  0.30560  Biso   1.000  N
  N3       1.0000 0.99940  0.93600  0.80560  Biso   1.000  N
  N4       1.0000 0.50060  0.43600  0.69440  Biso   1.000  N
  H1       1.0000 0.96630  0.05200  0.26480  Biso   1.000  H
  H2       1.0000 0.53370  0.55200  0.23520  Biso   1.000  H
  H3       1.0000 0.03370  0.94800  0.73520  Biso   1.000  H
  H4       1.0000 0.46630  0.44800  0.76480  Biso   1.000  H
  O5       1.0000 0.39480  0.17060  0.02260  Biso   1.000  O
  O6       1.0000 0.10520  0.67060  0.47740  Biso   1.000  O
  O7       1.0000 0.60520  0.82940  0.97740  Biso   1.000  O
  O8       1.0000 0.89480  0.32940  0.52260  Biso   1.000  O
  H5       1.0000 0.50090  0.18160  0.02510  Biso   1.000  H
  H6       1.0000 0.99910  0.68160  0.47490  Biso   1.000  H
  H7       1.0000 0.49910  0.81840  0.97490  Biso   1.000  H
  H8       1.0000 0.00090  0.31840  0.52510  Biso   1.000  H
  C1       1.0000 0.17070  0.08410  0.21940  Biso   1.000  C
  C2       1.0000 0.32930  0.58410  0.28060  Biso   1.000  C
  C3       1.0000 0.82930  0.91590  0.78060  Biso   1.000  C
  C4       1.0000 0.67070  0.41590  0.71940  Biso   1.000  C
  C5       1.0000 0.22010  0.10580  0.10500  Biso   1.000  C
  C6       1.0000 0.27990  0.60580  0.39500  Biso   1.000  C
  C7       1.0000 0.77990  0.89420  0.89500  Biso   1.000  C
  C8       1.0000 0.72010  0.39420  0.60500  Biso   1.000  C
  C9       1.0000 0.09420  0.10280  0.97920  Biso   1.000  C
  C10      1.0000 0.40580  0.60280  0.52080  Biso   1.000  C
  C11      1.0000 0.90580  0.89720  0.02080  Biso   1.000  C
  C12      1.0000 0.59420  0.39720  0.47920  Biso   1.000  C
  H9       1.0000 0.12700  0.11700  0.90260  Biso   1.000  H
  H10      1.0000 0.37300  0.61700  0.59740  Biso   1.000  H
  H11      1.0000 0.87300  0.88300  0.09740  Biso   1.000  H
  H12      1.0000 0.62700  0.38300  0.40260  Biso   1.000  H
  C13      1.0000 0.40450  0.13140  0.11490  Biso   1.000  C
  C14      1.0000 0.09550  0.63140  0.38510  Biso   1.000  C
  C15      1.0000 0.59550  0.86860  0.88510  Biso   1.000  C
  C16      1.0000 0.90450  0.36860  0.61490  Biso   1.000  C
  C17      1.0000 0.91840  0.07930  0.96020  Biso   1.000  C
  C18      1.0000 0.58160  0.57930  0.53980  Biso   1.000  C
  C19      1.0000 0.08160  0.92070  0.03980  Biso   1.000  C
  C20      1.0000 0.41840  0.42070  0.46020  Biso   1.000  C
  H13      1.0000 0.83330  0.07700  0.87220  Biso   1.000  H
  H14      1.0000 0.66670  0.57700  0.62780  Biso   1.000  H
  H15      1.0000 0.16670  0.92300  0.12780  Biso   1.000  H
  H16      1.0000 0.33330  0.42300  0.37220  Biso   1.000  H
  C21      1.0000 0.87410  0.06020  0.07040  Biso   1.000  C
  C22      1.0000 0.62590  0.56020  0.42960  Biso   1.000  C
  C23      1.0000 0.12590  0.93980  0.92960  Biso   1.000  C
  C24      1.0000 0.37410  0.43980  0.57040  Biso   1.000  C
  H17      1.0000 0.75610  0.04430  0.06190  Biso   1.000  H
  H18      1.0000 0.74390  0.54430  0.43810  Biso   1.000  H
  H19      1.0000 0.24390  0.95570  0.93810  Biso   1.000  H
  H20      1.0000 0.25610  0.45570  0.56190  Biso   1.000  H
  C25      1.0000 0.29790  0.25750  0.58860  Biso   1.000  C
  C26      1.0000 0.20210  0.75750  0.91140  Biso   1.000  C
  C27      1.0000 0.70210  0.74250  0.41140  Biso   1.000  C
  C28      1.0000 0.79790  0.24250  0.08860  Biso   1.000  C
  O9       1.0000 0.18650  0.28670  0.49990  Biso   1.000  O
  O10      1.0000 0.31350  0.78670  0.00010  Biso   1.000  O
  O11      1.0000 0.81350  0.71330  0.50010  Biso   1.000  O
  O12      1.0000 0.68650  0.21330  0.99990  Biso   1.000  O
  C29      1.0000 0.47550  0.24480  0.43460  Biso   1.000  C
  C30      1.0000 0.02450  0.74480  0.06540  Biso   1.000  C
  C31      1.0000 0.52450  0.75520  0.56540  Biso   1.000  C
  C32      1.0000 0.97550  0.25520  0.93460  Biso   1.000  C
  H21      1.0000 0.38190  0.27140  0.38000  Biso   1.000  H
  H22      1.0000 0.11810  0.77140  0.12000  Biso   1.000  H
  H23      1.0000 0.61810  0.72860  0.62000  Biso   1.000  H
  H24      1.0000 0.88190  0.22860  0.88000  Biso   1.000  H
  H25      1.0000 0.46850  0.20710  0.38750  Biso   1.000  H
  H26      1.0000 0.03150  0.70710  0.11250  Biso   1.000  H
  H27      1.0000 0.53150  0.79290  0.61250  Biso   1.000  H
  H28      1.0000 0.96850  0.29290  0.88750  Biso   1.000  H
  H29      1.0000 0.59710  0.26210  0.44750  Biso   1.000  H
  H30      1.0000 0.90290  0.76210  0.05250  Biso   1.000  H
  H31      1.0000 0.40290  0.73790  0.55250  Biso   1.000  H
  H32      1.0000 0.09710  0.23790  0.94750  Biso   1.000  H
  C33      1.0000 0.26400  0.24800  0.72130  Biso   1.000  C
  C34      1.0000 0.23600  0.74800  0.77870  Biso   1.000  C
  C35      1.0000 0.73600  0.75200  0.27870  Biso   1.000  C
  C36      1.0000 0.76400  0.25200  0.22130  Biso   1.000  C
  H33      1.0000 0.14980  0.26750  0.72210  Biso   1.000  H
  H34      1.0000 0.35020  0.76750  0.77790  Biso   1.000  H
  H35      1.0000 0.85020  0.73250  0.27790  Biso   1.000  H
  H36      1.0000 0.64980  0.23250  0.22210  Biso   1.000  H
  H37      1.0000 0.36600  0.26450  0.79350  Biso   1.000  H
  H38      1.0000 0.13400  0.76450  0.70650  Biso   1.000  H
  H39      1.0000 0.63400  0.73550  0.20650  Biso   1.000  H
  H40      1.0000 0.86600  0.23550  0.29350  Biso   1.000  H
  H41      1.0000 0.25450  0.20580  0.73660  Biso   1.000  H
  H42      1.0000 0.24550  0.70580  0.76340  Biso   1.000  H
  H43      1.0000 0.74550  0.79420  0.26340  Biso   1.000  H
  H44      1.0000 0.75450  0.29420  0.23660  Biso   1.000  H
  N5       1.0000 0.44430  0.23570  0.56550  Biso   1.000  N
  N6       1.0000 0.05570  0.73570  0.93450  Biso   1.000  N
  N7       1.0000 0.55570  0.76430  0.43450  Biso   1.000  N
  N8       1.0000 0.94430  0.26430  0.06550  Biso   1.000  N
  C37      1.0000 0.57600  0.20070  0.65980  Biso   1.000  C
  C38      1.0000 0.92400  0.70070  0.84020  Biso   1.000  C
  C39      1.0000 0.42400  0.79930  0.34020  Biso   1.000  C
  C40      1.0000 0.07600  0.29930  0.15980  Biso   1.000  C
  H45      1.0000 0.54290  0.19740  0.74460  Biso   1.000  H
  H46      1.0000 0.95710  0.69740  0.75540  Biso   1.000  H
  H47      1.0000 0.45710  0.80260  0.25540  Biso   1.000  H
  H48      1.0000 0.04290  0.30260  0.24460  Biso   1.000  H
  H49      1.0000 0.69750  0.21900  0.67820  Biso   1.000  H
  H50      1.0000 0.80250  0.71900  0.82180  Biso   1.000  H
  H51      1.0000 0.30250  0.78100  0.32180  Biso   1.000  H
  H52      1.0000 0.19750  0.28100  0.17820  Biso   1.000  H
  H53      1.0000 0.58000  0.16150  0.62130  Biso   1.000  H
  H54      1.0000 0.92000  0.66150  0.87870  Biso   1.000  H
  H55      1.0000 0.42000  0.83850  0.37870  Biso   1.000  H
  H56      1.0000 0.08000  0.33850  0.12130  Biso   1.000  H
