data_image0
_cell_length_a       4.275
_cell_length_b       8.235
_cell_length_c       13.887
_cell_angle_alpha    103.63
_cell_angle_beta     90.623
_cell_angle_gamma    99.902

_symmetry_space_group_name_H-M    "P 1"
_symmetry_int_tables_number       1

loop_
  _symmetry_equiv_pos_as_xyz
  'x, y, z'

loop_
  _atom_site_label
  _atom_site_occupancy
  _atom_site_fract_x
  _atom_site_fract_y
  _atom_site_fract_z
  _atom_site_thermal_displace_type
  _atom_site_B_iso_or_equiv
  _atom_site_type_symbol
  Cu1      1.0000 0.28980  0.92970  0.42005  Biso   1.000  Cu
  Cu2      1.0000 0.71020  0.07030  0.57995  Biso   1.000  Cu
  I1       1.0000 0.15952  0.87935  0.59765  Biso   1.000  I
  I2       1.0000 0.84048  0.12065  0.40235  Biso   1.000  I
  N1       1.0000 0.23310  0.72970  0.29660  Biso   1.000  N
  N2       1.0000 0.76690  0.27030  0.70340  Biso   1.000  N
  N3       1.0000 0.17480  0.48700  0.11730  Biso   1.000  N
  N4       1.0000 0.82520  0.51300  0.88270  Biso   1.000  N
  C1       1.0000 0.10750  0.75400  0.21350  Biso   1.000  C
  C2       1.0000 0.89250  0.24600  0.78650  Biso   1.000  C
  H1       1.0000 0.03840  0.85580  0.21560  Biso   1.000  H
  H2       1.0000 0.96160  0.14420  0.78440  Biso   1.000  H
  C3       1.0000 0.07800  0.63460  0.12610  Biso   1.000  C
  C4       1.0000 0.92200  0.36540  0.87390  Biso   1.000  C
  H3       1.0000 0.98660  0.65680  0.07060  Biso   1.000  H
  H4       1.0000 0.01340  0.34320  0.92940  Biso   1.000  H
  C5       1.0000 0.30020  0.46230  0.20070  Biso   1.000  C
  C6       1.0000 0.69980  0.53770  0.79930  Biso   1.000  C
  C7       1.0000 0.33670  0.58480  0.28980  Biso   1.000  C
  C8       1.0000 0.66330  0.41520  0.71020  Biso   1.000  C
  C9       1.0000 0.47960  0.55850  0.38180  Biso   1.000  C
  C10      1.0000 0.52040  0.44150  0.61820  Biso   1.000  C
  H5       1.0000 0.55010  0.66640  0.42750  Biso   1.000  H
  H6       1.0000 0.44990  0.33360  0.57250  Biso   1.000  H
  H7       1.0000 0.65740  0.50190  0.36560  Biso   1.000  H
  H8       1.0000 0.34260  0.49810  0.63440  Biso   1.000  H
  H9       1.0000 0.32340  0.49010  0.41160  Biso   1.000  H
  H10      1.0000 0.67660  0.50990  0.58840  Biso   1.000  H
  C11      1.0000 0.40400  0.29350  0.19180  Biso   1.000  C
  C12      1.0000 0.59600  0.70650  0.80820  Biso   1.000  C
  H11      1.0000 0.63010  0.31500  0.20900  Biso   1.000  H
  H12      1.0000 0.36990  0.68500  0.79100  Biso   1.000  H
  H13      1.0000 0.29720  0.24040  0.24080  Biso   1.000  H
  H14      1.0000 0.70280  0.75960  0.75920  Biso   1.000  H
  C13      1.0000 0.34400  0.17030  0.09380  Biso   1.000  C
  C14      1.0000 0.65600  0.82970  0.90620  Biso   1.000  C
  H15      1.0000 0.12090  0.14800  0.07500  Biso   1.000  H
  H16      1.0000 0.87910  0.85200  0.92500  Biso   1.000  H
  H17      1.0000 0.40980  0.06630  0.09780  Biso   1.000  H
  H18      1.0000 0.59020  0.93370  0.90220  Biso   1.000  H
  H19      1.0000 0.46190  0.21670  0.04510  Biso   1.000  H
  H20      1.0000 0.53810  0.78330  0.95490  Biso   1.000  H
