data_image0
_cell_length_a       19.631
_cell_length_b       4.1503
_cell_length_c       20.21
_cell_angle_alpha    90
_cell_angle_beta     106.168
_cell_angle_gamma    90

_symmetry_space_group_name_H-M    "P 1"
_symmetry_int_tables_number       1

loop_
  _symmetry_equiv_pos_as_xyz
  'x, y, z'

loop_
  _atom_site_label
  _atom_site_occupancy
  _atom_site_fract_x
  _atom_site_fract_y
  _atom_site_fract_z
  _atom_site_thermal_displace_type
  _atom_site_B_iso_or_equiv
  _atom_site_type_symbol
  I1       1.0000 0.84138  0.07448  0.32215  Biso   1.000  I
  I2       1.0000 0.65862  0.57448  0.17785  Biso   1.000  I
  I3       1.0000 0.15862  0.92552  0.67785  Biso   1.000  I
  I4       1.0000 0.34138  0.42552  0.82215  Biso   1.000  I
  Cu1      1.0000 0.74709  0.07870  0.19968  Biso   1.000  Cu
  Cu2      1.0000 0.75291  0.57870  0.30032  Biso   1.000  Cu
  Cu3      1.0000 0.25291  0.92130  0.80032  Biso   1.000  Cu
  Cu4      1.0000 0.24709  0.42130  0.69968  Biso   1.000  Cu
  N1       1.0000 0.80360  0.03770  0.12770  Biso   1.000  N
  N2       1.0000 0.69640  0.53770  0.37230  Biso   1.000  N
  N3       1.0000 0.19640  0.96230  0.87230  Biso   1.000  N
  N4       1.0000 0.30360  0.46230  0.62770  Biso   1.000  N
  C1       1.0000 0.77590  0.88910  0.06780  Biso   1.000  C
  C2       1.0000 0.72410  0.38910  0.43220  Biso   1.000  C
  C3       1.0000 0.22410  0.11090  0.93220  Biso   1.000  C
  C4       1.0000 0.27590  0.61090  0.56780  Biso   1.000  C
  C5       1.0000 0.86930  0.15240  0.14020  Biso   1.000  C
  C6       1.0000 0.63070  0.65240  0.35980  Biso   1.000  C
  C7       1.0000 0.13070  0.84760  0.85980  Biso   1.000  C
  C8       1.0000 0.36930  0.34760  0.64020  Biso   1.000  C
  C9       1.0000 0.81140  0.84700  0.01890  Biso   1.000  C
  C10      1.0000 0.68860  0.34700  0.48110  Biso   1.000  C
  C11      1.0000 0.18860  0.15300  0.98110  Biso   1.000  C
  C12      1.0000 0.31140  0.65300  0.51890  Biso   1.000  C
  H1       1.0000 0.72990  0.80980  0.05870  Biso   1.000  H
  H2       1.0000 0.77010  0.30980  0.44130  Biso   1.000  H
  H3       1.0000 0.27010  0.19020  0.94130  Biso   1.000  H
  H4       1.0000 0.22990  0.69020  0.55870  Biso   1.000  H
  C13      1.0000 0.90790  0.11710  0.09270  Biso   1.000  C
  C14      1.0000 0.59210  0.61710  0.40730  Biso   1.000  C
  C15      1.0000 0.09210  0.88290  0.90730  Biso   1.000  C
  C16      1.0000 0.40790  0.38290  0.59270  Biso   1.000  C
  H5       1.0000 0.88970  0.25830  0.18150  Biso   1.000  H
  H6       1.0000 0.61030  0.75830  0.31850  Biso   1.000  H
  H7       1.0000 0.11030  0.74170  0.81850  Biso   1.000  H
  H8       1.0000 0.38970  0.24170  0.68150  Biso   1.000  H
  H9       1.0000 0.79030  0.73600  0.97840  Biso   1.000  H
  H10      1.0000 0.70970  0.23600  0.52160  Biso   1.000  H
  H11      1.0000 0.20970  0.26400  0.02160  Biso   1.000  H
  H12      1.0000 0.29030  0.76400  0.47840  Biso   1.000  H
  C17      1.0000 0.87830  0.96900  0.03060  Biso   1.000  C
  C18      1.0000 0.62170  0.46900  0.46940  Biso   1.000  C
  C19      1.0000 0.12170  0.03100  0.96940  Biso   1.000  C
  C20      1.0000 0.37830  0.53100  0.53060  Biso   1.000  C
  Br1      1.0000 0.00132  0.27890  0.11404  Biso   1.000  Br
  Br2      1.0000 0.49868  0.77890  0.38596  Biso   1.000  Br
  Br3      1.0000 0.99868  0.72110  0.88596  Biso   1.000  Br
  Br4      1.0000 0.50132  0.22110  0.61404  Biso   1.000  Br
  H13      1.0000 0.90300  0.95200  0.99750  Biso   1.000  H
  H14      1.0000 0.59700  0.45200  0.50250  Biso   1.000  H
  H15      1.0000 0.09700  0.04800  0.00250  Biso   1.000  H
  H16      1.0000 0.40300  0.54800  0.49750  Biso   1.000  H
  Cu5      1.0000 0.76731  0.41830  0.70996  Biso   1.000  Cu
  Cu6      1.0000 0.73269  0.91830  0.79004  Biso   1.000  Cu
  Cu7      1.0000 0.23269  0.58170  0.29004  Biso   1.000  Cu
  Cu8      1.0000 0.26731  0.08170  0.20996  Biso   1.000  Cu
  I5       1.0000 0.68671  0.91594  0.65391  Biso   1.000  I
  I6       1.0000 0.81329  0.41594  0.84609  Biso   1.000  I
  I7       1.0000 0.31329  0.08406  0.34609  Biso   1.000  I
  I8       1.0000 0.18671  0.58406  0.15391  Biso   1.000  I
  C21      1.0000 0.52290  0.94300  0.87150  Biso   1.000  C
  C22      1.0000 0.97710  0.44300  0.62850  Biso   1.000  C
  C23      1.0000 0.47710  0.05700  0.12850  Biso   1.000  C
  C24      1.0000 0.02290  0.55700  0.37150  Biso   1.000  C
  C25      1.0000 0.52170  0.80000  0.80970  Biso   1.000  C
  C26      1.0000 0.97830  0.30000  0.69030  Biso   1.000  C
  C27      1.0000 0.47830  0.20000  0.19030  Biso   1.000  C
  C28      1.0000 0.02170  0.70000  0.30970  Biso   1.000  C
  N5       1.0000 0.64320  0.93490  0.82380  Biso   1.000  N
  N6       1.0000 0.85680  0.43490  0.67620  Biso   1.000  N
  N7       1.0000 0.35680  0.06510  0.17620  Biso   1.000  N
  N8       1.0000 0.14320  0.56510  0.32380  Biso   1.000  N
  C29      1.0000 0.58160  0.79800  0.78760  Biso   1.000  C
  C30      1.0000 0.91840  0.29800  0.71240  Biso   1.000  C
  C31      1.0000 0.41840  0.20200  0.21240  Biso   1.000  C
  C32      1.0000 0.08160  0.70200  0.28760  Biso   1.000  C
  C33      1.0000 0.58580  0.08080  0.90920  Biso   1.000  C
  C34      1.0000 0.91420  0.58080  0.59080  Biso   1.000  C
  C35      1.0000 0.41420  0.91920  0.09080  Biso   1.000  C
  C36      1.0000 0.08580  0.41920  0.40920  Biso   1.000  C
  H17      1.0000 0.48020  0.70570  0.78300  Biso   1.000  H
  H18      1.0000 0.01980  0.20570  0.71700  Biso   1.000  H
  H19      1.0000 0.51980  0.29430  0.21700  Biso   1.000  H
  H20      1.0000 0.98020  0.79430  0.28300  Biso   1.000  H
  H21      1.0000 0.57980  0.69890  0.74590  Biso   1.000  H
  H22      1.0000 0.92020  0.19890  0.75410  Biso   1.000  H
  H23      1.0000 0.42020  0.30110  0.25410  Biso   1.000  H
  H24      1.0000 0.07980  0.80110  0.24590  Biso   1.000  H
  Br5      1.0000 0.59454  0.27450  0.99450  Biso   1.000  Br
  Br6      1.0000 0.90546  0.77450  0.50550  Biso   1.000  Br
  Br7      1.0000 0.40546  0.72550  0.00550  Biso   1.000  Br
  Br8      1.0000 0.09454  0.22550  0.49450  Biso   1.000  Br
  C37      1.0000 0.64400  0.07400  0.88320  Biso   1.000  C
  C38      1.0000 0.85600  0.57400  0.61680  Biso   1.000  C
  C39      1.0000 0.35600  0.92600  0.11680  Biso   1.000  C
  C40      1.0000 0.14400  0.42600  0.38320  Biso   1.000  C
  H25      1.0000 0.68580  0.17170  0.90860  Biso   1.000  H
  H26      1.0000 0.81420  0.67170  0.59140  Biso   1.000  H
  H27      1.0000 0.31420  0.82830  0.09140  Biso   1.000  H
  H28      1.0000 0.18580  0.32830  0.40860  Biso   1.000  H
  H29      1.0000 0.48270  0.94560  0.88740  Biso   1.000  H
  H30      1.0000 0.01730  0.44560  0.61260  Biso   1.000  H
  H31      1.0000 0.51730  0.05440  0.11260  Biso   1.000  H
  H32      1.0000 0.98270  0.55440  0.38740  Biso   1.000  H
