data_image0
_cell_length_a       16.774
_cell_length_b       4.16
_cell_length_c       21.793
_cell_angle_alpha    90
_cell_angle_beta     92.017
_cell_angle_gamma    90

_symmetry_space_group_name_H-M    "P 1"
_symmetry_int_tables_number       1

loop_
  _symmetry_equiv_pos_as_xyz
  'x, y, z'

loop_
  _atom_site_label
  _atom_site_occupancy
  _atom_site_fract_x
  _atom_site_fract_y
  _atom_site_fract_z
  _atom_site_thermal_displace_type
  _atom_site_B_iso_or_equiv
  _atom_site_type_symbol
  I1       1.0000 0.02946  0.52982  0.16280  Biso   1.000  I
  I2       1.0000 0.97054  0.02982  0.33720  Biso   1.000  I
  I3       1.0000 0.97054  0.47018  0.83720  Biso   1.000  I
  I4       1.0000 0.02946  0.97018  0.66280  Biso   1.000  I
  Cu1      1.0000 0.05364  0.01708  0.23625  Biso   1.000  Cu
  Cu2      1.0000 0.94636  0.51708  0.26375  Biso   1.000  Cu
  Cu3      1.0000 0.94636  0.98292  0.76375  Biso   1.000  Cu
  Cu4      1.0000 0.05364  0.48292  0.73625  Biso   1.000  Cu
  Br1      1.0000 0.39586  0.82912  0.20648  Biso   1.000  Br
  Br2      1.0000 0.60414  0.32912  0.29352  Biso   1.000  Br
  Br3      1.0000 0.60414  0.17088  0.79352  Biso   1.000  Br
  Br4      1.0000 0.39586  0.67088  0.70648  Biso   1.000  Br
  N1       1.0000 0.17260  0.04830  0.26420  Biso   1.000  N
  N2       1.0000 0.82740  0.54830  0.23580  Biso   1.000  N
  N3       1.0000 0.82740  0.95170  0.73580  Biso   1.000  N
  N4       1.0000 0.17260  0.45170  0.76420  Biso   1.000  N
  N5       1.0000 0.26510  0.30350  0.33290  Biso   1.000  N
  N6       1.0000 0.73490  0.80350  0.16710  Biso   1.000  N
  N7       1.0000 0.73490  0.69650  0.66710  Biso   1.000  N
  N8       1.0000 0.26510  0.19650  0.83290  Biso   1.000  N
  C1       1.0000 0.32490  0.18700  0.30120  Biso   1.000  C
  C2       1.0000 0.67510  0.68700  0.19880  Biso   1.000  C
  C3       1.0000 0.67510  0.81300  0.69880  Biso   1.000  C
  C4       1.0000 0.32490  0.31300  0.80120  Biso   1.000  C
  H1       1.0000 0.37710  0.23600  0.31340  Biso   1.000  H
  H2       1.0000 0.62290  0.73600  0.18660  Biso   1.000  H
  H3       1.0000 0.62290  0.76400  0.68660  Biso   1.000  H
  H4       1.0000 0.37710  0.26400  0.81340  Biso   1.000  H
  C5       1.0000 0.31080  0.99510  0.25050  Biso   1.000  C
  C6       1.0000 0.68920  0.49510  0.24950  Biso   1.000  C
  C7       1.0000 0.68920  0.00490  0.74950  Biso   1.000  C
  C8       1.0000 0.31080  0.50490  0.75050  Biso   1.000  C
  C9       1.0000 0.23300  0.92760  0.23290  Biso   1.000  C
  C10      1.0000 0.76700  0.42760  0.26710  Biso   1.000  C
  C11      1.0000 0.76700  0.07240  0.76710  Biso   1.000  C
  C12      1.0000 0.23300  0.57240  0.73290  Biso   1.000  C
  H5       1.0000 0.22230  0.79680  0.19900  Biso   1.000  H
  H6       1.0000 0.77770  0.29680  0.30100  Biso   1.000  H
  H7       1.0000 0.77770  0.20320  0.80100  Biso   1.000  H
  H8       1.0000 0.22230  0.70320  0.69900  Biso   1.000  H
  C13      1.0000 0.19200  0.22770  0.31280  Biso   1.000  C
  C14      1.0000 0.80800  0.72770  0.18720  Biso   1.000  C
  C15      1.0000 0.80800  0.77230  0.68720  Biso   1.000  C
  C16      1.0000 0.19200  0.27230  0.81280  Biso   1.000  C
  H9       1.0000 0.15010  0.30820  0.33510  Biso   1.000  H
  H10      1.0000 0.84990  0.80820  0.16490  Biso   1.000  H
  H11      1.0000 0.84990  0.69180  0.66490  Biso   1.000  H
  H12      1.0000 0.15010  0.19180  0.83510  Biso   1.000  H
  I5       1.0000 0.53691  0.26956  0.08679  Biso   1.000  I
  I6       1.0000 0.46309  0.76956  0.41321  Biso   1.000  I
  I7       1.0000 0.46309  0.73044  0.91321  Biso   1.000  I
  I8       1.0000 0.53691  0.23044  0.58679  Biso   1.000  I
  Cu5      1.0000 0.55696  0.76550  0.01354  Biso   1.000  Cu
  Cu6      1.0000 0.44304  0.26550  0.48646  Biso   1.000  Cu
  Cu7      1.0000 0.44304  0.23450  0.98646  Biso   1.000  Cu
  Cu8      1.0000 0.55696  0.73450  0.51354  Biso   1.000  Cu
  Br5      1.0000 0.88536  0.20127  0.04351  Biso   1.000  Br
  Br6      1.0000 0.11464  0.70127  0.45649  Biso   1.000  Br
  Br7      1.0000 0.11464  0.79873  0.95649  Biso   1.000  Br
  Br8      1.0000 0.88536  0.29873  0.54351  Biso   1.000  Br
  N9       1.0000 0.67180  0.81130  0.98389  Biso   1.000  N
  N10      1.0000 0.32820  0.31130  0.51611  Biso   1.000  N
  N11      1.0000 0.32820  0.18870  0.01611  Biso   1.000  N
  N12      1.0000 0.67180  0.68870  0.48389  Biso   1.000  N
  N13      1.0000 0.76240  0.73150  0.90440  Biso   1.000  N
  N14      1.0000 0.23760  0.23150  0.59560  Biso   1.000  N
  N15      1.0000 0.23760  0.26850  0.09560  Biso   1.000  N
  N16      1.0000 0.76240  0.76850  0.40440  Biso   1.000  N
  C17      1.0000 0.81890  0.88520  0.93730  Biso   1.000  C
  C18      1.0000 0.18110  0.38520  0.56270  Biso   1.000  C
  C19      1.0000 0.18110  0.11480  0.06270  Biso   1.000  C
  C20      1.0000 0.81890  0.61480  0.43730  Biso   1.000  C
  H13      1.0000 0.86880  0.91650  0.92090  Biso   1.000  H
  H14      1.0000 0.13120  0.41650  0.57910  Biso   1.000  H
  H15      1.0000 0.13120  0.08350  0.07910  Biso   1.000  H
  H16      1.0000 0.86880  0.58350  0.42090  Biso   1.000  H
  C21      1.0000 0.80460  0.99850  0.99530  Biso   1.000  C
  C22      1.0000 0.19540  0.49850  0.50470  Biso   1.000  C
  C23      1.0000 0.19540  0.00150  0.00470  Biso   1.000  C
  C24      1.0000 0.80460  0.50150  0.49530  Biso   1.000  C
  C25      1.0000 0.72910  0.95860  0.01720  Biso   1.000  C
  C26      1.0000 0.27090  0.45860  0.48280  Biso   1.000  C
  C27      1.0000 0.27090  0.04140  0.98280  Biso   1.000  C
  C28      1.0000 0.72910  0.54140  0.51720  Biso   1.000  C
  H17      1.0000 0.71790  0.03580  0.05610  Biso   1.000  H
  H18      1.0000 0.28210  0.53580  0.44390  Biso   1.000  H
  H19      1.0000 0.28210  0.96420  0.94390  Biso   1.000  H
  H20      1.0000 0.71790  0.46420  0.55610  Biso   1.000  H
  C29      1.0000 0.69150  0.70300  0.92950  Biso   1.000  C
  C30      1.0000 0.30850  0.20300  0.57050  Biso   1.000  C
  C31      1.0000 0.30850  0.29700  0.07050  Biso   1.000  C
  C32      1.0000 0.69150  0.79700  0.42950  Biso   1.000  C
  H21      1.0000 0.65190  0.59660  0.90640  Biso   1.000  H
  H22      1.0000 0.34810  0.09660  0.59360  Biso   1.000  H
  H23      1.0000 0.34810  0.40340  0.09360  Biso   1.000  H
  H24      1.0000 0.65190  0.90340  0.40640  Biso   1.000  H
