data_image0
_cell_length_a       10.717
_cell_length_b       11.645
_cell_length_c       12.116
_cell_angle_alpha    93.429
_cell_angle_beta     116.208
_cell_angle_gamma    98.566

_symmetry_space_group_name_H-M    "P 1"
_symmetry_int_tables_number       1

loop_
  _symmetry_equiv_pos_as_xyz
  'x, y, z'

loop_
  _atom_site_label
  _atom_site_occupancy
  _atom_site_fract_x
  _atom_site_fract_y
  _atom_site_fract_z
  _atom_site_thermal_displace_type
  _atom_site_B_iso_or_equiv
  _atom_site_type_symbol
  C1       1.0000 0.15780  0.45610  0.54770  Biso   1.000  C
  C2       1.0000 0.84220  0.54390  0.45230  Biso   1.000  C
  H1       1.0000 0.22160  0.52740  0.57560  Biso   1.000  H
  H2       1.0000 0.77840  0.47260  0.42440  Biso   1.000  H
  C3       1.0000 0.99920  0.31440  0.38600  Biso   1.000  C
  C4       1.0000 0.00080  0.68560  0.61400  Biso   1.000  C
  H3       1.0000 0.95080  0.28700  0.30130  Biso   1.000  H
  H4       1.0000 0.04920  0.71300  0.69870  Biso   1.000  H
  C5       1.0000 0.97470  0.24780  0.46710  Biso   1.000  C
  C6       1.0000 0.02530  0.75220  0.53290  Biso   1.000  C
  H5       1.0000 0.91330  0.17530  0.43760  Biso   1.000  H
  H6       1.0000 0.08670  0.82470  0.56240  Biso   1.000  H
  C7       1.0000 0.04180  0.28930  0.59220  Biso   1.000  C
  C8       1.0000 0.95820  0.71070  0.40780  Biso   1.000  C
  H7       1.0000 0.02320  0.24640  0.64740  Biso   1.000  H
  H8       1.0000 0.97680  0.75360  0.35260  Biso   1.000  H
  C9       1.0000 0.13710  0.39520  0.63520  Biso   1.000  C
  C10      1.0000 0.86290  0.60480  0.36480  Biso   1.000  C
  C11      1.0000 0.21650  0.44550  0.76820  Biso   1.000  C
  C12      1.0000 0.78350  0.55450  0.23180  Biso   1.000  C
  H9       1.0000 0.31050  0.42690  0.80120  Biso   1.000  H
  H10      1.0000 0.68950  0.57310  0.19880  Biso   1.000  H
  H11      1.0000 0.22790  0.53020  0.77430  Biso   1.000  H
  H12      1.0000 0.77210  0.46980  0.22570  Biso   1.000  H
  C13      1.0000 0.00500  0.37550  0.91730  Biso   1.000  C
  C14      1.0000 0.99500  0.62450  0.08270  Biso   1.000  C
  H13      1.0000 0.92290  0.37080  0.92660  Biso   1.000  H
  H14      1.0000 0.07710  0.62920  0.07340  Biso   1.000  H
  C15      1.0000 0.21140  0.35930  0.94960  Biso   1.000  C
  C16      1.0000 0.78860  0.64070  0.05040  Biso   1.000  C
  H15      1.0000 0.30250  0.34340  0.98390  Biso   1.000  H
  H16      1.0000 0.69750  0.65660  0.01610  Biso   1.000  H
  C17      1.0000 0.27490  0.20580  0.38640  Biso   1.000  C
  C18      1.0000 0.72510  0.79420  0.61360  Biso   1.000  C
  H17      1.0000 0.33890  0.27600  0.40490  Biso   1.000  H
  H18      1.0000 0.66110  0.72400  0.59510  Biso   1.000  H
  C19      1.0000 0.08180  0.07550  0.24730  Biso   1.000  C
  C20      1.0000 0.91820  0.92450  0.75270  Biso   1.000  C
  H19      1.0000 0.00870  0.05130  0.16720  Biso   1.000  H
  H20      1.0000 0.99130  0.94870  0.83280  Biso   1.000  H
  C21      1.0000 0.09290  0.00580  0.33590  Biso   1.000  C
  C22      1.0000 0.90710  0.99420  0.66410  Biso   1.000  C
  H21      1.0000 0.02580  0.93740  0.31680  Biso   1.000  H
  H22      1.0000 0.97420  0.06260  0.68320  Biso   1.000  H
  C23      1.0000 0.19950  0.03520  0.44930  Biso   1.000  C
  C24      1.0000 0.80050  0.96480  0.55070  Biso   1.000  C
  H23      1.0000 0.21100  0.98530  0.50880  Biso   1.000  H
  H24      1.0000 0.78900  0.01470  0.49120  Biso   1.000  H
  C25      1.0000 0.29190  0.13850  0.47830  Biso   1.000  C
  C26      1.0000 0.70810  0.86150  0.52170  Biso   1.000  C
  C27      1.0000 0.40990  0.17220  0.61160  Biso   1.000  C
  C28      1.0000 0.59010  0.82780  0.38840  Biso   1.000  C
  H25      1.0000 0.36680  0.17450  0.66700  Biso   1.000  H
  H26      1.0000 0.63320  0.82550  0.33300  Biso   1.000  H
  H27      1.0000 0.46550  0.11100  0.63170  Biso   1.000  H
  H28      1.0000 0.53450  0.88900  0.36830  Biso   1.000  H
  C29      1.0000 0.63720  0.30220  0.65630  Biso   1.000  C
  C30      1.0000 0.36280  0.69780  0.34370  Biso   1.000  C
  H29      1.0000 0.68680  0.24360  0.65450  Biso   1.000  H
  H30      1.0000 0.31320  0.75640  0.34550  Biso   1.000  H
  C31      1.0000 0.58420  0.46350  0.67490  Biso   1.000  C
  C32      1.0000 0.41580  0.53650  0.32510  Biso   1.000  C
  H31      1.0000 0.59200  0.54420  0.68900  Biso   1.000  H
  H32      1.0000 0.40800  0.45580  0.31100  Biso   1.000  H
  N1       1.0000 0.09120  0.41820  0.42570  Biso   1.000  N
  N2       1.0000 0.90880  0.58180  0.57430  Biso   1.000  N
  N3       1.0000 0.15200  0.40550  0.84630  Biso   1.000  N
  N4       1.0000 0.84800  0.59450  0.15370  Biso   1.000  N
  N5       1.0000 0.01960  0.41830  0.82530  Biso   1.000  N
  N6       1.0000 0.98040  0.58170  0.17470  Biso   1.000  N
  N7       1.0000 0.12120  0.33890  0.99720  Biso   1.000  N
  N8       1.0000 0.87880  0.66110  0.00280  Biso   1.000  N
  N9       1.0000 0.16900  0.17470  0.26960  Biso   1.000  N
  N10      1.0000 0.83100  0.82530  0.73040  Biso   1.000  N
  N11      1.0000 0.50420  0.28240  0.63600  Biso   1.000  N
  N12      1.0000 0.49580  0.71760  0.36400  Biso   1.000  N
  N13      1.0000 0.46520  0.38760  0.64850  Biso   1.000  N
  N14      1.0000 0.53480  0.61240  0.35150  Biso   1.000  N
  N15      1.0000 0.69130  0.41500  0.67950  Biso   1.000  N
  N16      1.0000 0.30870  0.58500  0.32050  Biso   1.000  N
  O1       1.0000 0.23130  0.67980  0.97460  Biso   1.000  O
  O2       1.0000 0.76870  0.32020  0.02540  Biso   1.000  O
  O3       1.0000 0.49850  0.66560  0.02490  Biso   1.000  O
  O4       1.0000 0.50150  0.33440  0.97510  Biso   1.000  O
  O5       1.0000 0.46330  0.87250  0.12180  Biso   1.000  O
  O6       1.0000 0.53670  0.12750  0.87820  Biso   1.000  O
  O7       1.0000 0.26580  0.91530  0.92520  Biso   1.000  O
  O8       1.0000 0.73420  0.08470  0.07480  Biso   1.000  O
  O9       1.0000 0.47060  0.09240  0.05540  Biso   1.000  O
  O10      1.0000 0.52940  0.90760  0.94460  Biso   1.000  O
  O11      1.0000 0.32390  0.73090  0.79950  Biso   1.000  O
  O12      1.0000 0.67610  0.26910  0.20050  Biso   1.000  O
  O13      1.0000 0.67600  0.05810  0.27190  Biso   1.000  O
  O14      1.0000 0.32400  0.94190  0.72810  Biso   1.000  O
  O15      1.0000 0.19790  0.87040  0.12550  Biso   1.000  O
  O16      1.0000 0.80210  0.12960  0.87450  Biso   1.000  O
  O17      1.0000 0.41950  0.05960  0.25020  Biso   1.000  O
  O18      1.0000 0.58050  0.94040  0.74980  Biso   1.000  O
  O19      1.0000 0.18040  0.07790  0.03740  Biso   1.000  O
  O20      1.0000 0.81960  0.92210  0.96260  Biso   1.000  O
  O21      1.0000 0.42300  0.28570  0.20220  Biso   1.000  O
  O22      1.0000 0.57700  0.71430  0.79780  Biso   1.000  O
  O23      1.0000 0.63710  0.24650  0.41240  Biso   1.000  O
  O24      1.0000 0.36290  0.75350  0.58760  Biso   1.000  O
  O25      1.0000 0.75040  0.87390  0.18300  Biso   1.000  O
  O26      1.0000 0.24960  0.12610  0.81700  Biso   1.000  O
  Cu1      1.0000 0.15462  0.25280  0.13301  Biso   1.000  Cu
  Cu2      1.0000 0.84538  0.74720  0.86699  Biso   1.000  Cu
  Cu3      1.0000 0.12467  0.51377  0.31194  Biso   1.000  Cu
  Cu4      1.0000 0.87533  0.48623  0.68806  Biso   1.000  Cu
  Mo1      1.0000 0.37709  0.75406  0.97150  Biso   1.000  Mo
  Mo2      1.0000 0.62291  0.24594  0.02850  Biso   1.000  Mo
  Mo3      1.0000 0.63818  0.96902  0.13519  Biso   1.000  Mo
  Mo4      1.0000 0.36182  0.03098  0.86481  Biso   1.000  Mo
  Mo5      1.0000 0.29013  0.98050  0.09097  Biso   1.000  Mo
  Mo6      1.0000 0.70987  0.01950  0.90903  Biso   1.000  Mo
  Mo7      1.0000 0.54716  0.19935  0.25918  Biso   1.000  Mo
  Mo8      1.0000 0.45284  0.80065  0.74082  Biso   1.000  Mo
