data_image0
_cell_length_a       8.484
_cell_length_b       9.914
_cell_length_c       11.446
_cell_angle_alpha    110.651
_cell_angle_beta     93.259
_cell_angle_gamma    90.615

_symmetry_space_group_name_H-M    "P 1"
_symmetry_int_tables_number       1

loop_
  _symmetry_equiv_pos_as_xyz
  'x, y, z'

loop_
  _atom_site_label
  _atom_site_occupancy
  _atom_site_fract_x
  _atom_site_fract_y
  _atom_site_fract_z
  _atom_site_thermal_displace_type
  _atom_site_B_iso_or_equiv
  _atom_site_type_symbol
  Cu1      1.0000 0.12750  0.37170  0.21931  Biso   1.000  Cu
  Cu2      1.0000 0.87250  0.62830  0.78069  Biso   1.000  Cu
  C1       1.0000 0.97730  0.15540  0.29850  Biso   1.000  C
  C2       1.0000 0.02270  0.84460  0.70150  Biso   1.000  C
  C3       1.0000 0.88790  0.10340  0.38600  Biso   1.000  C
  C4       1.0000 0.11210  0.89660  0.61400  Biso   1.000  C
  C5       1.0000 0.81030  0.96970  0.34310  Biso   1.000  C
  C6       1.0000 0.18970  0.03030  0.65690  Biso   1.000  C
  H1       1.0000 0.80930  0.91210  0.25900  Biso   1.000  H
  H2       1.0000 0.19070  0.08790  0.74100  Biso   1.000  H
  C7       1.0000 0.73400  0.92210  0.42580  Biso   1.000  C
  C8       1.0000 0.26600  0.07790  0.57420  Biso   1.000  C
  C9       1.0000 0.73190  0.00670  0.55220  Biso   1.000  C
  C10      1.0000 0.26810  0.99330  0.44780  Biso   1.000  C
  H3       1.0000 0.67900  0.97510  0.60720  Biso   1.000  H
  H4       1.0000 0.32100  0.02490  0.39280  Biso   1.000  H
  C11      1.0000 0.81190  0.14040  0.59320  Biso   1.000  C
  C12      1.0000 0.18810  0.85960  0.40680  Biso   1.000  C
  C13      1.0000 0.88840  0.18930  0.51160  Biso   1.000  C
  C14      1.0000 0.11160  0.81070  0.48840  Biso   1.000  C
  H5       1.0000 0.94000  0.27930  0.54070  Biso   1.000  H
  H6       1.0000 0.06000  0.72070  0.45930  Biso   1.000  H
  C15      1.0000 0.61780  0.71880  0.46210  Biso   1.000  C
  C16      1.0000 0.38220  0.28120  0.53790  Biso   1.000  C
  H7       1.0000 0.53180  0.76980  0.50940  Biso   1.000  H
  H8       1.0000 0.46820  0.23020  0.49060  Biso   1.000  H
  H9       1.0000 0.70600  0.72000  0.52030  Biso   1.000  H
  H10      1.0000 0.29400  0.28000  0.47970  Biso   1.000  H
  C17      1.0000 0.56630  0.56700  0.38550  Biso   1.000  C
  C18      1.0000 0.43370  0.43300  0.61450  Biso   1.000  C
  C19      1.0000 0.66960  0.45490  0.35220  Biso   1.000  C
  C20      1.0000 0.33040  0.54510  0.64780  Biso   1.000  C
  H11      1.0000 0.77550  0.47060  0.38040  Biso   1.000  H
  H12      1.0000 0.22450  0.52940  0.61960  Biso   1.000  H
  C21      1.0000 0.61350  0.32000  0.27700  Biso   1.000  C
  C22      1.0000 0.38650  0.68000  0.72300  Biso   1.000  C
  H13      1.0000 0.68140  0.24340  0.25310  Biso   1.000  H
  H14      1.0000 0.31860  0.75660  0.74690  Biso   1.000  H
  C23      1.0000 0.45580  0.29900  0.23710  Biso   1.000  C
  C24      1.0000 0.54420  0.70100  0.76290  Biso   1.000  C
  H15      1.0000 0.41960  0.20740  0.18530  Biso   1.000  H
  H16      1.0000 0.58040  0.79260  0.81470  Biso   1.000  H
  C25      1.0000 0.40970  0.53530  0.34300  Biso   1.000  C
  C26      1.0000 0.59030  0.46470  0.65700  Biso   1.000  C
  H17      1.0000 0.33920  0.61000  0.36700  Biso   1.000  H
  H18      1.0000 0.66080  0.39000  0.63300  Biso   1.000  H
  C27      1.0000 0.73960  0.19470  0.80590  Biso   1.000  C
  C28      1.0000 0.26040  0.80530  0.19410  Biso   1.000  C
  H19      1.0000 0.77320  0.10270  0.80870  Biso   1.000  H
  H20      1.0000 0.22680  0.89730  0.19130  Biso   1.000  H
  H21      1.0000 0.62670  0.18820  0.78490  Biso   1.000  H
  H22      1.0000 0.37330  0.81180  0.21510  Biso   1.000  H
  C29      1.0000 0.77920  0.31310  0.92940  Biso   1.000  C
  C30      1.0000 0.22080  0.68690  0.07060  Biso   1.000  C
  C31      1.0000 0.70020  0.44130  0.96630  Biso   1.000  C
  C32      1.0000 0.29980  0.55870  0.03370  Biso   1.000  C
  H23      1.0000 0.61500  0.45420  0.91690  Biso   1.000  H
  H24      1.0000 0.38500  0.54580  0.08310  Biso   1.000  H
  C33      1.0000 0.74890  0.54940  0.07660  Biso   1.000  C
  C34      1.0000 0.25110  0.45060  0.92340  Biso   1.000  C
  H25      1.0000 0.69670  0.63600  0.10320  Biso   1.000  H
  H26      1.0000 0.30330  0.36400  0.89680  Biso   1.000  H
  C35      1.0000 0.87560  0.52750  0.14680  Biso   1.000  C
  C36      1.0000 0.12440  0.47250  0.85320  Biso   1.000  C
  H27      1.0000 0.90870  0.60180  0.22060  Biso   1.000  H
  H28      1.0000 0.09130  0.39820  0.77940  Biso   1.000  H
  C37      1.0000 0.90420  0.29980  0.00630  Biso   1.000  C
  C38      1.0000 0.09580  0.70020  0.99370  Biso   1.000  C
  H29      1.0000 0.95710  0.21350  0.98210  Biso   1.000  H
  H30      1.0000 0.04290  0.78650  0.01790  Biso   1.000  H
  H31      1.0000 0.15000  0.07200  0.07900  Biso   1.000  H
  H32      1.0000 0.85000  0.92800  0.92100  Biso   1.000  H
  H33      1.0000 0.17700  0.02600  0.95800  Biso   1.000  H
  H34      1.0000 0.82300  0.97400  0.04200  Biso   1.000  H
  N1       1.0000 0.35270  0.40490  0.27000  Biso   1.000  N
  N2       1.0000 0.64730  0.59510  0.73000  Biso   1.000  N
  N3       1.0000 0.95430  0.40450  0.11460  Biso   1.000  N
  N4       1.0000 0.04570  0.59550  0.88540  Biso   1.000  N
  O1       1.0000 0.98480  0.07160  0.18765  Biso   1.000  O
  O2       1.0000 0.01520  0.92840  0.81235  Biso   1.000  O
  O3       1.0000 0.03900  0.27960  0.34247  Biso   1.000  O
  O4       1.0000 0.96100  0.72040  0.65753  Biso   1.000  O
  O5       1.0000 0.66400  0.78570  0.37624  Biso   1.000  O
  O6       1.0000 0.33600  0.21430  0.62376  Biso   1.000  O
  O7       1.0000 0.82290  0.23240  0.71603  Biso   1.000  O
  O8       1.0000 0.17710  0.76760  0.28397  Biso   1.000  O
  O9       1.0000 0.21410  0.06660  0.02330  Biso   1.000  O
  O10      1.0000 0.78590  0.93340  0.97670  Biso   1.000  O
  O11      1.0000 0.50120  0.07420  0.92670  Biso   1.000  O
  O12      1.0000 0.49880  0.92580  0.07330  Biso   1.000  O
