data_image0
_cell_length_a       14.1994
_cell_length_b       19.6855
_cell_length_c       24.487
_cell_angle_alpha    90
_cell_angle_beta     106.85
_cell_angle_gamma    90

_symmetry_space_group_name_H-M    "P 1"
_symmetry_int_tables_number       1

loop_
  _symmetry_equiv_pos_as_xyz
  'x, y, z'

loop_
  _atom_site_label
  _atom_site_occupancy
  _atom_site_fract_x
  _atom_site_fract_y
  _atom_site_fract_z
  _atom_site_thermal_displace_type
  _atom_site_B_iso_or_equiv
  _atom_site_type_symbol
  Cu1      1.0000 0.53945  0.36641  0.20530  Biso   1.000  Cu
  Cu2      1.0000 0.46055  0.36641  0.29470  Biso   1.000  Cu
  Cu3      1.0000 0.03945  0.86641  0.20530  Biso   1.000  Cu
  Cu4      1.0000 0.96055  0.86641  0.29470  Biso   1.000  Cu
  Cu5      1.0000 0.46055  0.63359  0.79470  Biso   1.000  Cu
  Cu6      1.0000 0.53945  0.63359  0.70530  Biso   1.000  Cu
  Cu7      1.0000 0.96055  0.13359  0.79470  Biso   1.000  Cu
  Cu8      1.0000 0.03945  0.13359  0.70530  Biso   1.000  Cu
  Cu9      1.0000 0.41094  0.26336  0.21297  Biso   1.000  Cu
  Cu10     1.0000 0.58906  0.26336  0.28703  Biso   1.000  Cu
  Cu11     1.0000 0.91094  0.76336  0.21297  Biso   1.000  Cu
  Cu12     1.0000 0.08906  0.76336  0.28703  Biso   1.000  Cu
  Cu13     1.0000 0.58906  0.73664  0.78703  Biso   1.000  Cu
  Cu14     1.0000 0.41094  0.73664  0.71297  Biso   1.000  Cu
  Cu15     1.0000 0.08906  0.23664  0.78703  Biso   1.000  Cu
  Cu16     1.0000 0.91094  0.23664  0.71297  Biso   1.000  Cu
  I1       1.0000 0.56837  0.24086  0.17910  Biso   1.000  I
  I2       1.0000 0.43163  0.24086  0.32090  Biso   1.000  I
  I3       1.0000 0.06837  0.74086  0.17910  Biso   1.000  I
  I4       1.0000 0.93163  0.74086  0.32090  Biso   1.000  I
  I5       1.0000 0.43163  0.75914  0.82090  Biso   1.000  I
  I6       1.0000 0.56837  0.75914  0.67910  Biso   1.000  I
  I7       1.0000 0.93163  0.25914  0.82090  Biso   1.000  I
  I8       1.0000 0.06837  0.25914  0.67910  Biso   1.000  I
  I9       1.0000 0.34918  0.39679  0.18761  Biso   1.000  I
  I10      1.0000 0.65082  0.39679  0.31239  Biso   1.000  I
  I11      1.0000 0.84918  0.89679  0.18761  Biso   1.000  I
  I12      1.0000 0.15082  0.89679  0.31239  Biso   1.000  I
  I13      1.0000 0.65082  0.60321  0.81239  Biso   1.000  I
  I14      1.0000 0.34918  0.60321  0.68761  Biso   1.000  I
  I15      1.0000 0.15082  0.10321  0.81239  Biso   1.000  I
  I16      1.0000 0.84918  0.10321  0.68761  Biso   1.000  I
  N1       1.0000 0.55710  0.65100  0.17700  Biso   1.000  N
  N2       1.0000 0.44290  0.65100  0.32300  Biso   1.000  N
  N3       1.0000 0.05710  0.15100  0.17700  Biso   1.000  N
  N4       1.0000 0.94290  0.15100  0.32300  Biso   1.000  N
  N5       1.0000 0.44290  0.34900  0.82300  Biso   1.000  N
  N6       1.0000 0.55710  0.34900  0.67700  Biso   1.000  N
  N7       1.0000 0.94290  0.84900  0.82300  Biso   1.000  N
  N8       1.0000 0.05710  0.84900  0.67700  Biso   1.000  N
  H1       1.0000 0.53480  0.65000  0.20610  Biso   1.000  H
  H2       1.0000 0.46520  0.65000  0.29390  Biso   1.000  H
  H3       1.0000 0.03480  0.15000  0.20610  Biso   1.000  H
  H4       1.0000 0.96520  0.15000  0.29390  Biso   1.000  H
  H5       1.0000 0.46520  0.35000  0.79390  Biso   1.000  H
  H6       1.0000 0.53480  0.35000  0.70610  Biso   1.000  H
  H7       1.0000 0.96520  0.85000  0.79390  Biso   1.000  H
  H8       1.0000 0.03480  0.85000  0.70610  Biso   1.000  H
  S1       1.0000 0.77820  0.70053  0.15666  Biso   1.000  S
  S2       1.0000 0.22180  0.70053  0.34334  Biso   1.000  S
  S3       1.0000 0.27820  0.20053  0.15666  Biso   1.000  S
  S4       1.0000 0.72180  0.20053  0.34334  Biso   1.000  S
  S5       1.0000 0.22180  0.29947  0.84334  Biso   1.000  S
  S6       1.0000 0.77820  0.29947  0.65666  Biso   1.000  S
  S7       1.0000 0.72180  0.79947  0.84334  Biso   1.000  S
  S8       1.0000 0.27820  0.79947  0.65666  Biso   1.000  S
  S9       1.0000 0.58252  0.44861  0.14920  Biso   1.000  S
  S10      1.0000 0.41748  0.44861  0.35080  Biso   1.000  S
  S11      1.0000 0.08252  0.94861  0.14920  Biso   1.000  S
  S12      1.0000 0.91748  0.94861  0.35080  Biso   1.000  S
  S13      1.0000 0.41748  0.55139  0.85080  Biso   1.000  S
  S14      1.0000 0.58252  0.55139  0.64920  Biso   1.000  S
  S15      1.0000 0.91748  0.05139  0.85080  Biso   1.000  S
  S16      1.0000 0.08252  0.05139  0.64920  Biso   1.000  S
  O1       1.0000 0.70600  0.48410  0.05930  Biso   1.000  O
  O2       1.0000 0.29400  0.48410  0.44070  Biso   1.000  O
  O3       1.0000 0.20600  0.98410  0.05930  Biso   1.000  O
  O4       1.0000 0.79400  0.98410  0.44070  Biso   1.000  O
  O5       1.0000 0.29400  0.51590  0.94070  Biso   1.000  O
  O6       1.0000 0.70600  0.51590  0.55930  Biso   1.000  O
  O7       1.0000 0.79400  0.01590  0.94070  Biso   1.000  O
  O8       1.0000 0.20600  0.01590  0.55930  Biso   1.000  O
  O9       1.0000 0.67610  0.62250  0.02460  Biso   1.000  O
  O10      1.0000 0.32390  0.62250  0.47540  Biso   1.000  O
  O11      1.0000 0.17610  0.12250  0.02460  Biso   1.000  O
  O12      1.0000 0.82390  0.12250  0.47540  Biso   1.000  O
  O13      1.0000 0.32390  0.37750  0.97540  Biso   1.000  O
  O14      1.0000 0.67610  0.37750  0.52460  Biso   1.000  O
  O15      1.0000 0.82390  0.87750  0.97540  Biso   1.000  O
  O16      1.0000 0.17610  0.87750  0.52460  Biso   1.000  O
  C1       1.0000 0.69580  0.50860  0.00210  Biso   1.000  C
  C2       1.0000 0.30420  0.50860  0.49790  Biso   1.000  C
  C3       1.0000 0.19580  0.00860  0.00210  Biso   1.000  C
  C4       1.0000 0.80420  0.00860  0.49790  Biso   1.000  C
  C5       1.0000 0.30420  0.49140  0.99790  Biso   1.000  C
  C6       1.0000 0.69580  0.49140  0.50210  Biso   1.000  C
  C7       1.0000 0.80420  0.99140  0.99790  Biso   1.000  C
  C8       1.0000 0.19580  0.99140  0.50210  Biso   1.000  C
  H9       1.0000 0.66980  0.47280  0.97460  Biso   1.000  H
  H10      1.0000 0.33020  0.47280  0.52540  Biso   1.000  H
  H11      1.0000 0.16980  0.97280  0.97460  Biso   1.000  H
  H12      1.0000 0.83020  0.97280  0.52540  Biso   1.000  H
  H13      1.0000 0.33020  0.52720  0.02540  Biso   1.000  H
  H14      1.0000 0.66980  0.52720  0.47460  Biso   1.000  H
  H15      1.0000 0.83020  0.02720  0.02540  Biso   1.000  H
  H16      1.0000 0.16980  0.02720  0.47460  Biso   1.000  H
  H17      1.0000 0.75960  0.52190  0.99860  Biso   1.000  H
  H18      1.0000 0.24040  0.52190  0.50140  Biso   1.000  H
  H19      1.0000 0.25960  0.02190  0.99860  Biso   1.000  H
  H20      1.0000 0.74040  0.02190  0.50140  Biso   1.000  H
  H21      1.0000 0.24040  0.47810  0.00140  Biso   1.000  H
  H22      1.0000 0.75960  0.47810  0.49860  Biso   1.000  H
  H23      1.0000 0.74040  0.97810  0.00140  Biso   1.000  H
  H24      1.0000 0.25960  0.97810  0.49860  Biso   1.000  H
  C9       1.0000 0.62850  0.56750  0.99010  Biso   1.000  C
  C10      1.0000 0.37150  0.56750  0.50990  Biso   1.000  C
  C11      1.0000 0.12850  0.06750  0.99010  Biso   1.000  C
  C12      1.0000 0.87150  0.06750  0.50990  Biso   1.000  C
  C13      1.0000 0.37150  0.43250  0.00990  Biso   1.000  C
  C14      1.0000 0.62850  0.43250  0.49010  Biso   1.000  C
  C15      1.0000 0.87150  0.93250  0.00990  Biso   1.000  C
  C16      1.0000 0.12850  0.93250  0.49010  Biso   1.000  C
  H25      1.0000 0.61250  0.57980  0.95010  Biso   1.000  H
  H26      1.0000 0.38750  0.57980  0.54990  Biso   1.000  H
  H27      1.0000 0.11250  0.07980  0.95010  Biso   1.000  H
  H28      1.0000 0.88750  0.07980  0.54990  Biso   1.000  H
  H29      1.0000 0.38750  0.42020  0.04990  Biso   1.000  H
  H30      1.0000 0.61250  0.42020  0.45010  Biso   1.000  H
  H31      1.0000 0.88750  0.92020  0.04990  Biso   1.000  H
  H32      1.0000 0.11250  0.92020  0.45010  Biso   1.000  H
  H33      1.0000 0.56780  0.55630  0.99880  Biso   1.000  H
  H34      1.0000 0.43220  0.55630  0.50120  Biso   1.000  H
  H35      1.0000 0.06780  0.05630  0.99880  Biso   1.000  H
  H36      1.0000 0.93220  0.05630  0.50120  Biso   1.000  H
  H37      1.0000 0.43220  0.44370  0.00120  Biso   1.000  H
  H38      1.0000 0.56780  0.44370  0.49880  Biso   1.000  H
  H39      1.0000 0.93220  0.94370  0.00120  Biso   1.000  H
  H40      1.0000 0.06780  0.94370  0.49880  Biso   1.000  H
  C17      1.0000 0.62470  0.68170  0.01600  Biso   1.000  C
  C18      1.0000 0.37530  0.68170  0.48400  Biso   1.000  C
  C19      1.0000 0.12470  0.18170  0.01600  Biso   1.000  C
  C20      1.0000 0.87530  0.18170  0.48400  Biso   1.000  C
  C21      1.0000 0.37530  0.31830  0.98400  Biso   1.000  C
  C22      1.0000 0.62470  0.31830  0.51600  Biso   1.000  C
  C23      1.0000 0.87530  0.81830  0.98400  Biso   1.000  C
  C24      1.0000 0.12470  0.81830  0.51600  Biso   1.000  C
  C25      1.0000 0.52750  0.68980  0.98090  Biso   1.000  C
  C26      1.0000 0.47250  0.68980  0.51910  Biso   1.000  C
  C27      1.0000 0.02750  0.18980  0.98090  Biso   1.000  C
  C28      1.0000 0.97250  0.18980  0.51910  Biso   1.000  C
  C29      1.0000 0.47250  0.31020  0.01910  Biso   1.000  C
  C30      1.0000 0.52750  0.31020  0.48090  Biso   1.000  C
  C31      1.0000 0.97250  0.81020  0.01910  Biso   1.000  C
  C32      1.0000 0.02750  0.81020  0.48090  Biso   1.000  C
  H41      1.0000 0.49450  0.65240  0.96110  Biso   1.000  H
  H42      1.0000 0.50550  0.65240  0.53890  Biso   1.000  H
  H43      1.0000 0.99450  0.15240  0.96110  Biso   1.000  H
  H44      1.0000 0.00550  0.15240  0.53890  Biso   1.000  H
  H45      1.0000 0.50550  0.34760  0.03890  Biso   1.000  H
  H46      1.0000 0.49450  0.34760  0.46110  Biso   1.000  H
  H47      1.0000 0.00550  0.84760  0.03890  Biso   1.000  H
  H48      1.0000 0.99450  0.84760  0.46110  Biso   1.000  H
  C33      1.0000 0.48180  0.74870  0.97520  Biso   1.000  C
  C34      1.0000 0.51820  0.74870  0.52480  Biso   1.000  C
  C35      1.0000 0.98180  0.24870  0.97520  Biso   1.000  C
  C36      1.0000 0.01820  0.24870  0.52480  Biso   1.000  C
  C37      1.0000 0.51820  0.25130  0.02480  Biso   1.000  C
  C38      1.0000 0.48180  0.25130  0.47520  Biso   1.000  C
  C39      1.0000 0.01820  0.75130  0.02480  Biso   1.000  C
  C40      1.0000 0.98180  0.75130  0.47520  Biso   1.000  C
  H49      1.0000 0.41750  0.75190  0.95170  Biso   1.000  H
  H50      1.0000 0.58250  0.75190  0.54830  Biso   1.000  H
  H51      1.0000 0.91750  0.25190  0.95170  Biso   1.000  H
  H52      1.0000 0.08250  0.25190  0.54830  Biso   1.000  H
  H53      1.0000 0.58250  0.24810  0.04830  Biso   1.000  H
  H54      1.0000 0.41750  0.24810  0.45170  Biso   1.000  H
  H55      1.0000 0.08250  0.74810  0.04830  Biso   1.000  H
  H56      1.0000 0.91750  0.74810  0.45170  Biso   1.000  H
  C41      1.0000 0.52880  0.80730  0.00410  Biso   1.000  C
  C42      1.0000 0.47120  0.80730  0.49590  Biso   1.000  C
  C43      1.0000 0.02880  0.30730  0.00410  Biso   1.000  C
  C44      1.0000 0.97120  0.30730  0.49590  Biso   1.000  C
  C45      1.0000 0.47120  0.19270  0.99590  Biso   1.000  C
  C46      1.0000 0.52880  0.19270  0.50410  Biso   1.000  C
  C47      1.0000 0.97120  0.69270  0.99590  Biso   1.000  C
  C48      1.0000 0.02880  0.69270  0.50410  Biso   1.000  C
  H57      1.0000 0.49610  0.84870  0.00040  Biso   1.000  H
  H58      1.0000 0.50390  0.84870  0.49960  Biso   1.000  H
  H59      1.0000 0.99610  0.34870  0.00040  Biso   1.000  H
  H60      1.0000 0.00390  0.34870  0.49960  Biso   1.000  H
  H61      1.0000 0.50390  0.15130  0.99960  Biso   1.000  H
  H62      1.0000 0.49610  0.15130  0.50040  Biso   1.000  H
  H63      1.0000 0.00390  0.65130  0.99960  Biso   1.000  H
  H64      1.0000 0.99610  0.65130  0.50040  Biso   1.000  H
  C49      1.0000 0.62570  0.80080  0.03830  Biso   1.000  C
  C50      1.0000 0.37430  0.80080  0.46170  Biso   1.000  C
  C51      1.0000 0.12570  0.30080  0.03830  Biso   1.000  C
  C52      1.0000 0.87430  0.30080  0.46170  Biso   1.000  C
  C53      1.0000 0.37430  0.19920  0.96170  Biso   1.000  C
  C54      1.0000 0.62570  0.19920  0.53830  Biso   1.000  C
  C55      1.0000 0.87430  0.69920  0.96170  Biso   1.000  C
  C56      1.0000 0.12570  0.69920  0.53830  Biso   1.000  C
  H65      1.0000 0.65830  0.83910  0.05690  Biso   1.000  H
  H66      1.0000 0.34170  0.83910  0.44310  Biso   1.000  H
  H67      1.0000 0.15830  0.33910  0.05690  Biso   1.000  H
  H68      1.0000 0.84170  0.33910  0.44310  Biso   1.000  H
  H69      1.0000 0.34170  0.16090  0.94310  Biso   1.000  H
  H70      1.0000 0.65830  0.16090  0.55690  Biso   1.000  H
  H71      1.0000 0.84170  0.66090  0.94310  Biso   1.000  H
  H72      1.0000 0.15830  0.66090  0.55690  Biso   1.000  H
  C57      1.0000 0.67500  0.73920  0.04540  Biso   1.000  C
  C58      1.0000 0.32500  0.73920  0.45460  Biso   1.000  C
  C59      1.0000 0.17500  0.23920  0.04540  Biso   1.000  C
  C60      1.0000 0.82500  0.23920  0.45460  Biso   1.000  C
  C61      1.0000 0.32500  0.26080  0.95460  Biso   1.000  C
  C62      1.0000 0.67500  0.26080  0.54540  Biso   1.000  C
  C63      1.0000 0.82500  0.76080  0.95460  Biso   1.000  C
  C64      1.0000 0.17500  0.76080  0.54540  Biso   1.000  C
  C65      1.0000 0.77430  0.73230  0.08550  Biso   1.000  C
  C66      1.0000 0.22570  0.73230  0.41450  Biso   1.000  C
  C67      1.0000 0.27430  0.23230  0.08550  Biso   1.000  C
  C68      1.0000 0.72570  0.23230  0.41450  Biso   1.000  C
  C69      1.0000 0.22570  0.26770  0.91450  Biso   1.000  C
  C70      1.0000 0.77430  0.26770  0.58550  Biso   1.000  C
  C71      1.0000 0.72570  0.76770  0.91450  Biso   1.000  C
  C72      1.0000 0.27430  0.76770  0.58550  Biso   1.000  C
  H73      1.0000 0.80630  0.77630  0.08980  Biso   1.000  H
  H74      1.0000 0.19370  0.77630  0.41020  Biso   1.000  H
  H75      1.0000 0.30630  0.27630  0.08980  Biso   1.000  H
  H76      1.0000 0.69370  0.27630  0.41020  Biso   1.000  H
  H77      1.0000 0.19370  0.22370  0.91020  Biso   1.000  H
  H78      1.0000 0.80630  0.22370  0.58980  Biso   1.000  H
  H79      1.0000 0.69370  0.72370  0.91020  Biso   1.000  H
  H80      1.0000 0.30630  0.72370  0.58980  Biso   1.000  H
  H81      1.0000 0.81210  0.70170  0.06890  Biso   1.000  H
  H82      1.0000 0.18790  0.70170  0.43110  Biso   1.000  H
  H83      1.0000 0.31210  0.20170  0.06890  Biso   1.000  H
  H84      1.0000 0.68790  0.20170  0.43110  Biso   1.000  H
  H85      1.0000 0.18790  0.29830  0.93110  Biso   1.000  H
  H86      1.0000 0.81210  0.29830  0.56890  Biso   1.000  H
  H87      1.0000 0.68790  0.79830  0.93110  Biso   1.000  H
  H88      1.0000 0.31210  0.79830  0.56890  Biso   1.000  H
  C73      1.0000 0.67740  0.74560  0.17370  Biso   1.000  C
  C74      1.0000 0.32260  0.74560  0.32630  Biso   1.000  C
  C75      1.0000 0.17740  0.24560  0.17370  Biso   1.000  C
  C76      1.0000 0.82260  0.24560  0.32630  Biso   1.000  C
  C77      1.0000 0.32260  0.25440  0.82630  Biso   1.000  C
  C78      1.0000 0.67740  0.25440  0.67370  Biso   1.000  C
  C79      1.0000 0.82260  0.75440  0.82630  Biso   1.000  C
  C80      1.0000 0.17740  0.75440  0.67370  Biso   1.000  C
  H89      1.0000 0.69250  0.74800  0.21490  Biso   1.000  H
  H90      1.0000 0.30750  0.74800  0.28510  Biso   1.000  H
  H91      1.0000 0.19250  0.24800  0.21490  Biso   1.000  H
  H92      1.0000 0.80750  0.24800  0.28510  Biso   1.000  H
  H93      1.0000 0.30750  0.25200  0.78510  Biso   1.000  H
  H94      1.0000 0.69250  0.25200  0.71490  Biso   1.000  H
  H95      1.0000 0.80750  0.75200  0.78510  Biso   1.000  H
  H96      1.0000 0.19250  0.75200  0.71490  Biso   1.000  H
  H97      1.0000 0.67620  0.79180  0.15970  Biso   1.000  H
  H98      1.0000 0.32380  0.79180  0.34030  Biso   1.000  H
  H99      1.0000 0.17620  0.29180  0.15970  Biso   1.000  H
  H100     1.0000 0.82380  0.29180  0.34030  Biso   1.000  H
  H101     1.0000 0.32380  0.20820  0.84030  Biso   1.000  H
  H102     1.0000 0.67620  0.20820  0.65970  Biso   1.000  H
  H103     1.0000 0.82380  0.70820  0.84030  Biso   1.000  H
  H104     1.0000 0.17620  0.70820  0.65970  Biso   1.000  H
  C81      1.0000 0.57510  0.71610  0.15030  Biso   1.000  C
  C82      1.0000 0.42490  0.71610  0.34970  Biso   1.000  C
  C83      1.0000 0.07510  0.21610  0.15030  Biso   1.000  C
  C84      1.0000 0.92490  0.21610  0.34970  Biso   1.000  C
  C85      1.0000 0.42490  0.28390  0.84970  Biso   1.000  C
  C86      1.0000 0.57510  0.28390  0.65030  Biso   1.000  C
  C87      1.0000 0.92490  0.78390  0.84970  Biso   1.000  C
  C88      1.0000 0.07510  0.78390  0.65030  Biso   1.000  C
  H105     1.0000 0.52790  0.74950  0.15510  Biso   1.000  H
  H106     1.0000 0.47210  0.74950  0.34490  Biso   1.000  H
  H107     1.0000 0.02790  0.24950  0.15510  Biso   1.000  H
  H108     1.0000 0.97210  0.24950  0.34490  Biso   1.000  H
  H109     1.0000 0.47210  0.25050  0.84490  Biso   1.000  H
  H110     1.0000 0.52790  0.25050  0.65510  Biso   1.000  H
  H111     1.0000 0.97210  0.75050  0.84490  Biso   1.000  H
  H112     1.0000 0.02790  0.75050  0.65510  Biso   1.000  H
  H113     1.0000 0.56260  0.70870  0.10960  Biso   1.000  H
  H114     1.0000 0.43740  0.70870  0.39040  Biso   1.000  H
  H115     1.0000 0.06260  0.20870  0.10960  Biso   1.000  H
  H116     1.0000 0.93740  0.20870  0.39040  Biso   1.000  H
  H117     1.0000 0.43740  0.29130  0.89040  Biso   1.000  H
  H118     1.0000 0.56260  0.29130  0.60960  Biso   1.000  H
  H119     1.0000 0.93740  0.79130  0.89040  Biso   1.000  H
  H120     1.0000 0.06260  0.79130  0.60960  Biso   1.000  H
  C89      1.0000 0.58000  0.58880  0.15010  Biso   1.000  C
  C90      1.0000 0.42000  0.58880  0.34990  Biso   1.000  C
  C91      1.0000 0.08000  0.08880  0.15010  Biso   1.000  C
  C92      1.0000 0.92000  0.08880  0.34990  Biso   1.000  C
  C93      1.0000 0.42000  0.41120  0.84990  Biso   1.000  C
  C94      1.0000 0.58000  0.41120  0.65010  Biso   1.000  C
  C95      1.0000 0.92000  0.91120  0.84990  Biso   1.000  C
  C96      1.0000 0.08000  0.91120  0.65010  Biso   1.000  C
  H121     1.0000 0.64800  0.59000  0.14960  Biso   1.000  H
  H122     1.0000 0.35200  0.59000  0.35040  Biso   1.000  H
  H123     1.0000 0.14800  0.09000  0.14960  Biso   1.000  H
  H124     1.0000 0.85200  0.09000  0.35040  Biso   1.000  H
  H125     1.0000 0.35200  0.41000  0.85040  Biso   1.000  H
  H126     1.0000 0.64800  0.41000  0.64960  Biso   1.000  H
  H127     1.0000 0.85200  0.91000  0.85040  Biso   1.000  H
  H128     1.0000 0.14800  0.91000  0.64960  Biso   1.000  H
  H129     1.0000 0.53850  0.58630  0.11100  Biso   1.000  H
  H130     1.0000 0.46150  0.58630  0.38900  Biso   1.000  H
  H131     1.0000 0.03850  0.08630  0.11100  Biso   1.000  H
  H132     1.0000 0.96150  0.08630  0.38900  Biso   1.000  H
  H133     1.0000 0.46150  0.41370  0.88900  Biso   1.000  H
  H134     1.0000 0.53850  0.41370  0.61100  Biso   1.000  H
  H135     1.0000 0.96150  0.91370  0.88900  Biso   1.000  H
  H136     1.0000 0.03850  0.91370  0.61100  Biso   1.000  H
  C97      1.0000 0.56290  0.52620  0.18310  Biso   1.000  C
  C98      1.0000 0.43710  0.52620  0.31690  Biso   1.000  C
  C99      1.0000 0.06290  0.02620  0.18310  Biso   1.000  C
  C100     1.0000 0.93710  0.02620  0.31690  Biso   1.000  C
  C101     1.0000 0.43710  0.47380  0.81690  Biso   1.000  C
  C102     1.0000 0.56290  0.47380  0.68310  Biso   1.000  C
  C103     1.0000 0.93710  0.97380  0.81690  Biso   1.000  C
  C104     1.0000 0.06290  0.97380  0.68310  Biso   1.000  C
  H137     1.0000 0.49610  0.52700  0.18580  Biso   1.000  H
  H138     1.0000 0.50390  0.52700  0.31420  Biso   1.000  H
  H139     1.0000 0.99610  0.02700  0.18580  Biso   1.000  H
  H140     1.0000 0.00390  0.02700  0.31420  Biso   1.000  H
  H141     1.0000 0.50390  0.47300  0.81420  Biso   1.000  H
  H142     1.0000 0.49610  0.47300  0.68580  Biso   1.000  H
  H143     1.0000 0.00390  0.97300  0.81420  Biso   1.000  H
  H144     1.0000 0.99610  0.97300  0.68580  Biso   1.000  H
  H145     1.0000 0.60740  0.52770  0.22160  Biso   1.000  H
  H146     1.0000 0.39260  0.52770  0.27840  Biso   1.000  H
  H147     1.0000 0.10740  0.02770  0.22160  Biso   1.000  H
  H148     1.0000 0.89260  0.02770  0.27840  Biso   1.000  H
  H149     1.0000 0.39260  0.47230  0.77840  Biso   1.000  H
  H150     1.0000 0.60740  0.47230  0.72160  Biso   1.000  H
  H151     1.0000 0.89260  0.97230  0.77840  Biso   1.000  H
  H152     1.0000 0.10740  0.97230  0.72160  Biso   1.000  H
  C105     1.0000 0.71710  0.45110  0.16830  Biso   1.000  C
  C106     1.0000 0.28290  0.45110  0.33170  Biso   1.000  C
  C107     1.0000 0.21710  0.95110  0.16830  Biso   1.000  C
  C108     1.0000 0.78290  0.95110  0.33170  Biso   1.000  C
  C109     1.0000 0.28290  0.54890  0.83170  Biso   1.000  C
  C110     1.0000 0.71710  0.54890  0.66830  Biso   1.000  C
  C111     1.0000 0.78290  0.04890  0.83170  Biso   1.000  C
  C112     1.0000 0.21710  0.04890  0.66830  Biso   1.000  C
  H153     1.0000 0.73910  0.49680  0.16360  Biso   1.000  H
  H154     1.0000 0.26090  0.49680  0.33640  Biso   1.000  H
  H155     1.0000 0.23910  0.99680  0.16360  Biso   1.000  H
  H156     1.0000 0.76090  0.99680  0.33640  Biso   1.000  H
  H157     1.0000 0.26090  0.50320  0.83640  Biso   1.000  H
  H158     1.0000 0.73910  0.50320  0.66360  Biso   1.000  H
  H159     1.0000 0.76090  0.00320  0.83640  Biso   1.000  H
  H160     1.0000 0.23910  0.00320  0.66360  Biso   1.000  H
  H161     1.0000 0.74510  0.43780  0.20780  Biso   1.000  H
  H162     1.0000 0.25490  0.43780  0.29220  Biso   1.000  H
  H163     1.0000 0.24510  0.93780  0.20780  Biso   1.000  H
  H164     1.0000 0.75490  0.93780  0.29220  Biso   1.000  H
  H165     1.0000 0.25490  0.56220  0.79220  Biso   1.000  H
  H166     1.0000 0.74510  0.56220  0.70780  Biso   1.000  H
  H167     1.0000 0.75490  0.06220  0.79220  Biso   1.000  H
  H168     1.0000 0.24510  0.06220  0.70780  Biso   1.000  H
  C113     1.0000 0.75070  0.40200  0.12910  Biso   1.000  C
  C114     1.0000 0.24930  0.40200  0.37090  Biso   1.000  C
  C115     1.0000 0.25070  0.90200  0.12910  Biso   1.000  C
  C116     1.0000 0.74930  0.90200  0.37090  Biso   1.000  C
  C117     1.0000 0.24930  0.59800  0.87090  Biso   1.000  C
  C118     1.0000 0.75070  0.59800  0.62910  Biso   1.000  C
  C119     1.0000 0.74930  0.09800  0.87090  Biso   1.000  C
  C120     1.0000 0.25070  0.09800  0.62910  Biso   1.000  C
  C121     1.0000 0.78370  0.33940  0.14900  Biso   1.000  C
  C122     1.0000 0.21630  0.33940  0.35100  Biso   1.000  C
  C123     1.0000 0.28370  0.83940  0.14900  Biso   1.000  C
  C124     1.0000 0.71630  0.83940  0.35100  Biso   1.000  C
  C125     1.0000 0.21630  0.66060  0.85100  Biso   1.000  C
  C126     1.0000 0.78370  0.66060  0.64900  Biso   1.000  C
  C127     1.0000 0.71630  0.16060  0.85100  Biso   1.000  C
  C128     1.0000 0.28370  0.16060  0.64900  Biso   1.000  C
  H169     1.0000 0.78680  0.32640  0.18590  Biso   1.000  H
  H170     1.0000 0.21320  0.32640  0.31410  Biso   1.000  H
  H171     1.0000 0.28680  0.82640  0.18590  Biso   1.000  H
  H172     1.0000 0.71320  0.82640  0.31410  Biso   1.000  H
  H173     1.0000 0.21320  0.67360  0.81410  Biso   1.000  H
  H174     1.0000 0.78680  0.67360  0.68590  Biso   1.000  H
  H175     1.0000 0.71320  0.17360  0.81410  Biso   1.000  H
  H176     1.0000 0.28680  0.17360  0.68590  Biso   1.000  H
  C129     1.0000 0.81460  0.29240  0.10990  Biso   1.000  C
  C130     1.0000 0.18540  0.29240  0.39010  Biso   1.000  C
  C131     1.0000 0.31460  0.79240  0.10990  Biso   1.000  C
  C132     1.0000 0.68540  0.79240  0.39010  Biso   1.000  C
  C133     1.0000 0.18540  0.70760  0.89010  Biso   1.000  C
  C134     1.0000 0.81460  0.70760  0.60990  Biso   1.000  C
  C135     1.0000 0.68540  0.20760  0.89010  Biso   1.000  C
  C136     1.0000 0.31460  0.20760  0.60990  Biso   1.000  C
  H177     1.0000 0.83600  0.24850  0.12090  Biso   1.000  H
  H178     1.0000 0.16400  0.24850  0.37910  Biso   1.000  H
  H179     1.0000 0.33600  0.74850  0.12090  Biso   1.000  H
  H180     1.0000 0.66400  0.74850  0.37910  Biso   1.000  H
  H181     1.0000 0.16400  0.75150  0.87910  Biso   1.000  H
  H182     1.0000 0.83600  0.75150  0.62090  Biso   1.000  H
  H183     1.0000 0.66400  0.25150  0.87910  Biso   1.000  H
  H184     1.0000 0.33600  0.25150  0.62090  Biso   1.000  H
  C137     1.0000 0.81040  0.31610  0.05880  Biso   1.000  C
  C138     1.0000 0.18960  0.31610  0.44120  Biso   1.000  C
  C139     1.0000 0.31040  0.81610  0.05880  Biso   1.000  C
  C140     1.0000 0.68960  0.81610  0.44120  Biso   1.000  C
  C141     1.0000 0.18960  0.68390  0.94120  Biso   1.000  C
  C142     1.0000 0.81040  0.68390  0.55880  Biso   1.000  C
  C143     1.0000 0.68960  0.18390  0.94120  Biso   1.000  C
  C144     1.0000 0.31040  0.18390  0.55880  Biso   1.000  C
  H185     1.0000 0.83390  0.28850  0.03480  Biso   1.000  H
  H186     1.0000 0.16610  0.28850  0.46520  Biso   1.000  H
  H187     1.0000 0.33390  0.78850  0.03480  Biso   1.000  H
  H188     1.0000 0.66610  0.78850  0.46520  Biso   1.000  H
  H189     1.0000 0.16610  0.71150  0.96520  Biso   1.000  H
  H190     1.0000 0.83390  0.71150  0.53480  Biso   1.000  H
  H191     1.0000 0.66610  0.21150  0.96520  Biso   1.000  H
  H192     1.0000 0.33390  0.21150  0.53480  Biso   1.000  H
  C145     1.0000 0.77490  0.37650  0.03940  Biso   1.000  C
  C146     1.0000 0.22510  0.37650  0.46060  Biso   1.000  C
  C147     1.0000 0.27490  0.87650  0.03940  Biso   1.000  C
  C148     1.0000 0.72510  0.87650  0.46060  Biso   1.000  C
  C149     1.0000 0.22510  0.62350  0.96060  Biso   1.000  C
  C150     1.0000 0.77490  0.62350  0.53940  Biso   1.000  C
  C151     1.0000 0.72510  0.12350  0.96060  Biso   1.000  C
  C152     1.0000 0.27490  0.12350  0.53940  Biso   1.000  C
  H193     1.0000 0.77040  0.38890  0.00200  Biso   1.000  H
  H194     1.0000 0.22960  0.38890  0.49800  Biso   1.000  H
  H195     1.0000 0.27040  0.88890  0.00200  Biso   1.000  H
  H196     1.0000 0.72960  0.88890  0.49800  Biso   1.000  H
  H197     1.0000 0.22960  0.61110  0.99800  Biso   1.000  H
  H198     1.0000 0.77040  0.61110  0.50200  Biso   1.000  H
  H199     1.0000 0.72960  0.11110  0.99800  Biso   1.000  H
  H200     1.0000 0.27040  0.11110  0.50200  Biso   1.000  H
  C153     1.0000 0.74440  0.42150  0.07440  Biso   1.000  C
  C154     1.0000 0.25560  0.42150  0.42560  Biso   1.000  C
  C155     1.0000 0.24440  0.92150  0.07440  Biso   1.000  C
  C156     1.0000 0.75560  0.92150  0.42560  Biso   1.000  C
  C157     1.0000 0.25560  0.57850  0.92560  Biso   1.000  C
  C158     1.0000 0.74440  0.57850  0.57440  Biso   1.000  C
  C159     1.0000 0.75560  0.07850  0.92560  Biso   1.000  C
  C160     1.0000 0.24440  0.07850  0.57440  Biso   1.000  C
