data_image0
_cell_length_a       9.7044
_cell_length_b       10.1375
_cell_length_c       12.7131
_cell_angle_alpha    104.412
_cell_angle_beta     99.681
_cell_angle_gamma    94.493

_symmetry_space_group_name_H-M    "P 1"
_symmetry_int_tables_number       1

loop_
  _symmetry_equiv_pos_as_xyz
  'x, y, z'

loop_
  _atom_site_label
  _atom_site_occupancy
  _atom_site_fract_x
  _atom_site_fract_y
  _atom_site_fract_z
  _atom_site_thermal_displace_type
  _atom_site_B_iso_or_equiv
  _atom_site_type_symbol
  Cu1      1.0000 0.40005  0.44684  0.38210  Biso   1.000  Cu
  Cu2      1.0000 0.59995  0.55316  0.61790  Biso   1.000  Cu
  Cl1      1.0000 0.33932  0.54294  0.55040  Biso   1.000  Cl
  Cl2      1.0000 0.66068  0.45706  0.44960  Biso   1.000  Cl
  S1       1.0000 0.39833  0.54375  0.23995  Biso   1.000  S
  S2       1.0000 0.60167  0.45625  0.76005  Biso   1.000  S
  S3       1.0000 0.31855  0.21470  0.32558  Biso   1.000  S
  S4       1.0000 0.68145  0.78530  0.67442  Biso   1.000  S
  O1       1.0000 0.25660  0.96610  0.08556  Biso   1.000  O
  O2       1.0000 0.74340  0.03390  0.91444  Biso   1.000  O
  O3       1.0000 0.11400  0.70090  0.09040  Biso   1.000  O
  O4       1.0000 0.88600  0.29910  0.90960  Biso   1.000  O
  O5       1.0000 0.36560  0.93300  0.38570  Biso   1.000  O
  O6       1.0000 0.63440  0.06700  0.61430  Biso   1.000  O
  C1       1.0000 0.14600  0.87980  0.00300  Biso   1.000  C
  C2       1.0000 0.85400  0.12020  0.99700  Biso   1.000  C
  H1       1.0000 0.18510  0.81130  0.95240  Biso   1.000  H
  H2       1.0000 0.81490  0.18870  0.04760  Biso   1.000  H
  H3       1.0000 0.09440  0.93410  0.96080  Biso   1.000  H
  H4       1.0000 0.90560  0.06590  0.03920  Biso   1.000  H
  C3       1.0000 0.04980  0.81160  0.05870  Biso   1.000  C
  C4       1.0000 0.95020  0.18840  0.94130  Biso   1.000  C
  H5       1.0000 0.03280  0.87720  0.12360  Biso   1.000  H
  H6       1.0000 0.96720  0.12280  0.87640  Biso   1.000  H
  H7       1.0000 0.96010  0.77650  0.00870  Biso   1.000  H
  H8       1.0000 0.03990  0.22350  0.99130  Biso   1.000  H
  C5       1.0000 0.03900  0.62190  0.13940  Biso   1.000  C
  C6       1.0000 0.96100  0.37810  0.86060  Biso   1.000  C
  C7       1.0000 0.90820  0.64730  0.16620  Biso   1.000  C
  C8       1.0000 0.09180  0.35270  0.83380  Biso   1.000  C
  H9       1.0000 0.86620  0.72110  0.15000  Biso   1.000  H
  H10      1.0000 0.13380  0.27890  0.85000  Biso   1.000  H
  C9       1.0000 0.84120  0.56230  0.21690  Biso   1.000  C
  C10      1.0000 0.15880  0.43770  0.78310  Biso   1.000  C
  H11      1.0000 0.75360  0.57880  0.23410  Biso   1.000  H
  H12      1.0000 0.24640  0.42120  0.76590  Biso   1.000  H
  C11      1.0000 0.90270  0.45330  0.24220  Biso   1.000  C
  C12      1.0000 0.09730  0.54670  0.75780  Biso   1.000  C
  H13      1.0000 0.85790  0.39700  0.27710  Biso   1.000  H
  H14      1.0000 0.14210  0.60300  0.72290  Biso   1.000  H
  C13      1.0000 0.03250  0.42910  0.21490  Biso   1.000  C
  C14      1.0000 0.96750  0.57090  0.78510  Biso   1.000  C
  H15      1.0000 0.07370  0.35510  0.23150  Biso   1.000  H
  H16      1.0000 0.92630  0.64490  0.76850  Biso   1.000  H
  C15      1.0000 0.10230  0.51040  0.16410  Biso   1.000  C
  C16      1.0000 0.89770  0.48960  0.83590  Biso   1.000  C
  C17      1.0000 0.24150  0.48060  0.13180  Biso   1.000  C
  C18      1.0000 0.75850  0.51940  0.86820  Biso   1.000  C
  H17      1.0000 0.25160  0.51990  0.07090  Biso   1.000  H
  H18      1.0000 0.74840  0.48010  0.92910  Biso   1.000  H
  H19      1.0000 0.23820  0.38200  0.10450  Biso   1.000  H
  H20      1.0000 0.76180  0.61800  0.89550  Biso   1.000  H
  C19      1.0000 0.40120  0.72790  0.27430  Biso   1.000  C
  C20      1.0000 0.59880  0.27210  0.72570  Biso   1.000  C
  H21      1.0000 0.49810  0.76880  0.30410  Biso   1.000  H
  H22      1.0000 0.50190  0.23120  0.69590  Biso   1.000  H
  H23      1.0000 0.37190  0.75340  0.20610  Biso   1.000  H
  H24      1.0000 0.62810  0.24660  0.79390  Biso   1.000  H
  C21      1.0000 0.31240  0.79190  0.35490  Biso   1.000  C
  C22      1.0000 0.68760  0.20810  0.64510  Biso   1.000  C
  H25      1.0000 0.21360  0.77730  0.32000  Biso   1.000  H
  H26      1.0000 0.78640  0.22270  0.68000  Biso   1.000  H
  H27      1.0000 0.32350  0.75460  0.41870  Biso   1.000  H
  H28      1.0000 0.67650  0.24540  0.58130  Biso   1.000  H
  C23      1.0000 0.28570  0.02290  0.44690  Biso   1.000  C
  C24      1.0000 0.71430  0.97710  0.55310  Biso   1.000  C
  H29      1.0000 0.29070  0.00870  0.52000  Biso   1.000  H
  H30      1.0000 0.70930  0.99130  0.48000  Biso   1.000  H
  H31      1.0000 0.18770  0.00610  0.40950  Biso   1.000  H
  H32      1.0000 0.81230  0.99390  0.59050  Biso   1.000  H
  C25      1.0000 0.34630  0.16690  0.45570  Biso   1.000  C
  C26      1.0000 0.65370  0.83310  0.54430  Biso   1.000  C
  H33      1.0000 0.44680  0.17760  0.48460  Biso   1.000  H
  H34      1.0000 0.55320  0.82240  0.51540  Biso   1.000  H
  H35      1.0000 0.30470  0.22990  0.50860  Biso   1.000  H
  H36      1.0000 0.69530  0.77010  0.49140  Biso   1.000  H
  C27      1.0000 0.45400  0.13320  0.25730  Biso   1.000  C
  C28      1.0000 0.54600  0.86680  0.74270  Biso   1.000  C
  H37      1.0000 0.54690  0.17480  0.29920  Biso   1.000  H
  H38      1.0000 0.45310  0.82520  0.70080  Biso   1.000  H
  H39      1.0000 0.44500  0.03620  0.25400  Biso   1.000  H
  H40      1.0000 0.55500  0.96380  0.74600  Biso   1.000  H
  C29      1.0000 0.43630  0.15150  0.14220  Biso   1.000  C
  C30      1.0000 0.56370  0.84850  0.85780  Biso   1.000  C
  C31      1.0000 0.51940  0.25300  0.11810  Biso   1.000  C
  C32      1.0000 0.48060  0.74700  0.88190  Biso   1.000  C
  H41      1.0000 0.58720  0.31120  0.17440  Biso   1.000  H
  H42      1.0000 0.41280  0.68880  0.82560  Biso   1.000  H
  C33      1.0000 0.50430  0.27000  0.01250  Biso   1.000  C
  C34      1.0000 0.49570  0.73000  0.98750  Biso   1.000  C
  H43      1.0000 0.55990  0.34000  0.99820  Biso   1.000  H
  H44      1.0000 0.44010  0.66000  0.00180  Biso   1.000  H
  C35      1.0000 0.40620  0.18260  0.92910  Biso   1.000  C
  C36      1.0000 0.59380  0.81740  0.07090  Biso   1.000  C
  H45      1.0000 0.39610  0.19330  0.85780  Biso   1.000  H
  H46      1.0000 0.60390  0.80670  0.14220  Biso   1.000  H
  C37      1.0000 0.32210  0.07850  0.94920  Biso   1.000  C
  C38      1.0000 0.67790  0.92150  0.05080  Biso   1.000  C
  H47      1.0000 0.25670  0.01910  0.89180  Biso   1.000  H
  H48      1.0000 0.74330  0.98090  0.10820  Biso   1.000  H
  C39      1.0000 0.33610  0.06380  0.05580  Biso   1.000  C
  C40      1.0000 0.66390  0.93620  0.94420  Biso   1.000  C
  N1       1.0000 0.10590  0.91540  0.68160  Biso   1.000  N
  N2       1.0000 0.89410  0.08460  0.31840  Biso   1.000  N
  C41      1.0000 0.06640  0.82980  0.61190  Biso   1.000  C
  C42      1.0000 0.93360  0.17020  0.38810  Biso   1.000  C
  C43      1.0000 0.01650  0.71800  0.51590  Biso   1.000  C
  C44      1.0000 0.98350  0.28200  0.48410  Biso   1.000  C
  H49      1.0000 0.98210  0.75290  0.45410  Biso   1.000  H
  H50      1.0000 0.01790  0.24710  0.54590  Biso   1.000  H
  H51      1.0000 0.94160  0.66030  0.52910  Biso   1.000  H
  H52      1.0000 0.05840  0.33970  0.47090  Biso   1.000  H
  H53      1.0000 0.09220  0.66560  0.49980  Biso   1.000  H
  H54      1.0000 0.90780  0.33440  0.50020  Biso   1.000  H
