data_image0
_cell_length_a       4.043
_cell_length_b       14.545
_cell_length_c       12.082
_cell_angle_alpha    90
_cell_angle_beta     95.877
_cell_angle_gamma    90

_symmetry_space_group_name_H-M    "P 1"
_symmetry_int_tables_number       1

loop_
  _symmetry_equiv_pos_as_xyz
  'x, y, z'

loop_
  _atom_site_label
  _atom_site_occupancy
  _atom_site_fract_x
  _atom_site_fract_y
  _atom_site_fract_z
  _atom_site_thermal_displace_type
  _atom_site_B_iso_or_equiv
  _atom_site_type_symbol
  Br1      1.0000 0.34133  0.20900  0.80182  Biso   1.000  Br
  Br2      1.0000 0.84133  0.79100  0.30182  Biso   1.000  Br
  Br3      1.0000 0.36964  0.20276  0.11285  Biso   1.000  Br
  Br4      1.0000 0.86964  0.79724  0.61285  Biso   1.000  Br
  Br5      1.0000 0.43135  0.99130  0.50895  Biso   1.000  Br
  Br6      1.0000 0.93135  0.00870  0.00895  Biso   1.000  Br
  C1       1.0000 0.59180  0.41240  0.57000  Biso   1.000  C
  C2       1.0000 0.09180  0.58760  0.07000  Biso   1.000  C
  C3       1.0000 0.43280  0.45710  0.65190  Biso   1.000  C
  C4       1.0000 0.93280  0.54290  0.15190  Biso   1.000  C
  H1       1.0000 0.41740  0.43070  0.72130  Biso   1.000  H
  H2       1.0000 0.91740  0.56930  0.22130  Biso   1.000  H
  C5       1.0000 0.29690  0.54400  0.62400  Biso   1.000  C
  C6       1.0000 0.79690  0.45600  0.12400  Biso   1.000  C
  H3       1.0000 0.18530  0.57580  0.67570  Biso   1.000  H
  H4       1.0000 0.68530  0.42420  0.17570  Biso   1.000  H
  C7       1.0000 0.32650  0.58340  0.52010  Biso   1.000  C
  C8       1.0000 0.82650  0.41660  0.02010  Biso   1.000  C
  H5       1.0000 0.24500  0.64260  0.50620  Biso   1.000  H
  H6       1.0000 0.74500  0.35740  0.00620  Biso   1.000  H
  C9       1.0000 0.47150  0.53820  0.43760  Biso   1.000  C
  C10      1.0000 0.97150  0.46180  0.93760  Biso   1.000  C
  H7       1.0000 0.48480  0.56310  0.36730  Biso   1.000  H
  H8       1.0000 0.98480  0.43690  0.86730  Biso   1.000  H
  C11      1.0000 0.60530  0.45290  0.46820  Biso   1.000  C
  C12      1.0000 0.10530  0.54710  0.96820  Biso   1.000  C
  C13      1.0000 0.85710  0.31990  0.47100  Biso   1.000  C
  C14      1.0000 0.35710  0.68010  0.97100  Biso   1.000  C
  C15      1.0000 0.03640  0.24750  0.42210  Biso   1.000  C
  C16      1.0000 0.53640  0.75250  0.92210  Biso   1.000  C
  C17      1.0000 0.11630  0.25680  0.31240  Biso   1.000  C
  C18      1.0000 0.61630  0.74320  0.81240  Biso   1.000  C
  H9       1.0000 0.05960  0.31050  0.27310  Biso   1.000  H
  H10      1.0000 0.55960  0.68950  0.77310  Biso   1.000  H
  C19      1.0000 0.27860  0.18700  0.26230  Biso   1.000  C
  C20      1.0000 0.77860  0.81300  0.76230  Biso   1.000  C
  C21      1.0000 0.37320  0.10540  0.31720  Biso   1.000  C
  C22      1.0000 0.87320  0.89460  0.81720  Biso   1.000  C
  C23      1.0000 0.29530  0.09920  0.42920  Biso   1.000  C
  C24      1.0000 0.79530  0.90080  0.92920  Biso   1.000  C
  C25      1.0000 0.13130  0.16650  0.47950  Biso   1.000  C
  C26      1.0000 0.63130  0.83350  0.97950  Biso   1.000  C
  H11      1.0000 0.08180  0.15870  0.55240  Biso   1.000  H
  H12      1.0000 0.58180  0.84130  0.05240  Biso   1.000  H
  Cu1      1.0000 0.81492  0.25026  0.70617  Biso   1.000  Cu
  Cu2      1.0000 0.31492  0.74974  0.20617  Biso   1.000  Cu
  O1       1.0000 0.77300  0.39395  0.40320  Biso   1.000  O
  O2       1.0000 0.27300  0.60605  0.90320  Biso   1.000  O
  N1       1.0000 0.53230  0.03750  0.26830  Biso   1.000  N
  N2       1.0000 0.03230  0.96250  0.76830  Biso   1.000  N
  H13      1.0000 0.57890  0.04370  0.20080  Biso   1.000  H
  H14      1.0000 0.07890  0.95630  0.70080  Biso   1.000  H
  H15      1.0000 0.58730  0.98800  0.30450  Biso   1.000  H
  H16      1.0000 0.08730  0.01200  0.80450  Biso   1.000  H
  N3       1.0000 0.75160  0.32690  0.56900  Biso   1.000  N
  N4       1.0000 0.25160  0.67310  0.06900  Biso   1.000  N
