data_image0
_cell_length_a       12.515
_cell_length_b       9.537
_cell_length_c       12.683
_cell_angle_alpha    90
_cell_angle_beta     112.54
_cell_angle_gamma    90

_symmetry_space_group_name_H-M    "P 1"
_symmetry_int_tables_number       1

loop_
  _symmetry_equiv_pos_as_xyz
  'x, y, z'

loop_
  _atom_site_label
  _atom_site_occupancy
  _atom_site_fract_x
  _atom_site_fract_y
  _atom_site_fract_z
  _atom_site_thermal_displace_type
  _atom_site_B_iso_or_equiv
  _atom_site_type_symbol
  I1       1.0000 0.33036  0.09643  0.96511  Biso   1.000  I
  I2       1.0000 0.33036  0.40357  0.46511  Biso   1.000  I
  I3       1.0000 0.66964  0.90357  0.03489  Biso   1.000  I
  I4       1.0000 0.66964  0.59643  0.53489  Biso   1.000  I
  Cu1      1.0000 0.49589  0.05368  0.89015  Biso   1.000  Cu
  Cu2      1.0000 0.49589  0.44632  0.39015  Biso   1.000  Cu
  Cu3      1.0000 0.50411  0.94632  0.10985  Biso   1.000  Cu
  Cu4      1.0000 0.50411  0.55368  0.60985  Biso   1.000  Cu
  Fe1      1.0000 0.13655  0.96865  0.30312  Biso   1.000  Fe
  Fe2      1.0000 0.13655  0.53135  0.80312  Biso   1.000  Fe
  Fe3      1.0000 0.86345  0.03135  0.69688  Biso   1.000  Fe
  Fe4      1.0000 0.86345  0.46865  0.19688  Biso   1.000  Fe
  N1       1.0000 0.42520  0.94380  0.73730  Biso   1.000  N
  N2       1.0000 0.42520  0.55620  0.23730  Biso   1.000  N
  N3       1.0000 0.57480  0.05620  0.26270  Biso   1.000  N
  N4       1.0000 0.57480  0.44380  0.76270  Biso   1.000  N
  N5       1.0000 0.42920  0.74080  0.63130  Biso   1.000  N
  N6       1.0000 0.42920  0.75920  0.13130  Biso   1.000  N
  N7       1.0000 0.57080  0.25920  0.36870  Biso   1.000  N
  N8       1.0000 0.57080  0.24080  0.86870  Biso   1.000  N
  C1       1.0000 0.32350  0.98080  0.65650  Biso   1.000  C
  C2       1.0000 0.32350  0.51920  0.15650  Biso   1.000  C
  C3       1.0000 0.67650  0.01920  0.34350  Biso   1.000  C
  C4       1.0000 0.67650  0.48080  0.84350  Biso   1.000  C
  C5       1.0000 0.27020  0.90100  0.55770  Biso   1.000  C
  C6       1.0000 0.27020  0.59900  0.05770  Biso   1.000  C
  C7       1.0000 0.72980  0.09900  0.44230  Biso   1.000  C
  C8       1.0000 0.72980  0.40100  0.94230  Biso   1.000  C
  C9       1.0000 0.32850  0.77890  0.55060  Biso   1.000  C
  C10      1.0000 0.32850  0.72110  0.05060  Biso   1.000  C
  C11      1.0000 0.67150  0.22110  0.44940  Biso   1.000  C
  C12      1.0000 0.67150  0.27890  0.94940  Biso   1.000  C
  C13      1.0000 0.47340  0.82630  0.72220  Biso   1.000  C
  C14      1.0000 0.47340  0.67370  0.22220  Biso   1.000  C
  C15      1.0000 0.52660  0.17370  0.27780  Biso   1.000  C
  C16      1.0000 0.52660  0.32630  0.77780  Biso   1.000  C
  C17      1.0000 0.15880  0.93680  0.46810  Biso   1.000  C
  C18      1.0000 0.15880  0.56320  0.96810  Biso   1.000  C
  C19      1.0000 0.84120  0.06320  0.53190  Biso   1.000  C
  C20      1.0000 0.84120  0.43680  0.03190  Biso   1.000  C
  C21      1.0000 0.11120  0.07330  0.43360  Biso   1.000  C
  C22      1.0000 0.11120  0.42670  0.93360  Biso   1.000  C
  C23      1.0000 0.88880  0.92670  0.56640  Biso   1.000  C
  C24      1.0000 0.88880  0.57330  0.06640  Biso   1.000  C
  C25      1.0000 0.00390  0.05500  0.33870  Biso   1.000  C
  C26      1.0000 0.00390  0.44500  0.83870  Biso   1.000  C
  C27      1.0000 0.99610  0.94500  0.66130  Biso   1.000  C
  C28      1.0000 0.99610  0.55500  0.16130  Biso   1.000  C
  C29      1.0000 0.98490  0.90980  0.31560  Biso   1.000  C
  C30      1.0000 0.98490  0.59020  0.81560  Biso   1.000  C
  C31      1.0000 0.01510  0.09020  0.68440  Biso   1.000  C
  C32      1.0000 0.01510  0.40980  0.18440  Biso   1.000  C
  C33      1.0000 0.07930  0.83580  0.39570  Biso   1.000  C
  C34      1.0000 0.07930  0.66420  0.89570  Biso   1.000  C
  C35      1.0000 0.92070  0.16420  0.60430  Biso   1.000  C
  C36      1.0000 0.92070  0.33580  0.10430  Biso   1.000  C
  C37      1.0000 0.29810  0.97220  0.29990  Biso   1.000  C
  C38      1.0000 0.29810  0.52780  0.79990  Biso   1.000  C
  C39      1.0000 0.70190  0.02780  0.70010  Biso   1.000  C
  C40      1.0000 0.70190  0.47220  0.20010  Biso   1.000  C
  C41      1.0000 0.23550  0.09070  0.24350  Biso   1.000  C
  C42      1.0000 0.23550  0.40930  0.74350  Biso   1.000  C
  C43      1.0000 0.76450  0.90930  0.75650  Biso   1.000  C
  C44      1.0000 0.76450  0.59070  0.25650  Biso   1.000  C
  C45      1.0000 0.13510  0.04490  0.15190  Biso   1.000  C
  C46      1.0000 0.13510  0.45510  0.65190  Biso   1.000  C
  C47      1.0000 0.86490  0.95510  0.84810  Biso   1.000  C
  C48      1.0000 0.86490  0.54490  0.34810  Biso   1.000  C
  C49      1.0000 0.13820  0.89790  0.15200  Biso   1.000  C
  C50      1.0000 0.13820  0.60210  0.65200  Biso   1.000  C
  C51      1.0000 0.86180  0.10210  0.84800  Biso   1.000  C
  C52      1.0000 0.86180  0.39790  0.34800  Biso   1.000  C
  C53      1.0000 0.23670  0.85520  0.24150  Biso   1.000  C
  C54      1.0000 0.23670  0.64480  0.74150  Biso   1.000  C
  C55      1.0000 0.76330  0.14480  0.75850  Biso   1.000  C
  C56      1.0000 0.76330  0.35520  0.25850  Biso   1.000  C
  H1       1.0000 0.28650  0.06380  0.66660  Biso   1.000  H
  H2       1.0000 0.28650  0.43620  0.16660  Biso   1.000  H
  H3       1.0000 0.71350  0.93620  0.33340  Biso   1.000  H
  H4       1.0000 0.71350  0.56380  0.83340  Biso   1.000  H
  H5       1.0000 0.29490  0.72040  0.48560  Biso   1.000  H
  H6       1.0000 0.29490  0.77960  0.98560  Biso   1.000  H
  H7       1.0000 0.70510  0.27960  0.51440  Biso   1.000  H
  H8       1.0000 0.70510  0.22040  0.01440  Biso   1.000  H
  H9       1.0000 0.54510  0.80000  0.78000  Biso   1.000  H
  H10      1.0000 0.54510  0.70000  0.28000  Biso   1.000  H
  H11      1.0000 0.45490  0.20000  0.22000  Biso   1.000  H
  H12      1.0000 0.45490  0.30000  0.72000  Biso   1.000  H
  H13      1.0000 0.14510  0.15990  0.46650  Biso   1.000  H
  H14      1.0000 0.14510  0.34010  0.96650  Biso   1.000  H
  H15      1.0000 0.85490  0.84010  0.53350  Biso   1.000  H
  H16      1.0000 0.85490  0.65990  0.03350  Biso   1.000  H
  H17      1.0000 0.95430  0.12800  0.29680  Biso   1.000  H
  H18      1.0000 0.95430  0.37200  0.79680  Biso   1.000  H
  H19      1.0000 0.04570  0.87200  0.70320  Biso   1.000  H
  H20      1.0000 0.04570  0.62800  0.20320  Biso   1.000  H
  H21      1.0000 0.92010  0.86930  0.25660  Biso   1.000  H
  H22      1.0000 0.92010  0.63070  0.75660  Biso   1.000  H
  H23      1.0000 0.07990  0.13070  0.74340  Biso   1.000  H
  H24      1.0000 0.07990  0.36930  0.24340  Biso   1.000  H
  H25      1.0000 0.08880  0.73690  0.40020  Biso   1.000  H
  H26      1.0000 0.08880  0.76310  0.90020  Biso   1.000  H
  H27      1.0000 0.91120  0.26310  0.59980  Biso   1.000  H
  H28      1.0000 0.91120  0.23690  0.09980  Biso   1.000  H
  H29      1.0000 0.36930  0.97220  0.36390  Biso   1.000  H
  H30      1.0000 0.36930  0.52780  0.86390  Biso   1.000  H
  H31      1.0000 0.63070  0.02780  0.63610  Biso   1.000  H
  H32      1.0000 0.63070  0.47220  0.13610  Biso   1.000  H
  H33      1.0000 0.25630  0.18580  0.26380  Biso   1.000  H
  H34      1.0000 0.25630  0.31420  0.76380  Biso   1.000  H
  H35      1.0000 0.74370  0.81420  0.73620  Biso   1.000  H
  H36      1.0000 0.74370  0.68580  0.23620  Biso   1.000  H
  H37      1.0000 0.07740  0.10300  0.09970  Biso   1.000  H
  H38      1.0000 0.07740  0.39700  0.59970  Biso   1.000  H
  H39      1.0000 0.92260  0.89700  0.90030  Biso   1.000  H
  H40      1.0000 0.92260  0.60300  0.40030  Biso   1.000  H
  H41      1.0000 0.08200  0.83820  0.09950  Biso   1.000  H
  H42      1.0000 0.08200  0.66180  0.59950  Biso   1.000  H
  H43      1.0000 0.91800  0.16180  0.90050  Biso   1.000  H
  H44      1.0000 0.91800  0.33820  0.40050  Biso   1.000  H
  H45      1.0000 0.25930  0.76030  0.26070  Biso   1.000  H
  H46      1.0000 0.25930  0.73970  0.76070  Biso   1.000  H
  H47      1.0000 0.74070  0.23970  0.73930  Biso   1.000  H
  H48      1.0000 0.74070  0.26030  0.23930  Biso   1.000  H
