data_image0
_cell_length_a       15.491
_cell_length_b       15.0327
_cell_length_c       16.746
_cell_angle_alpha    90
_cell_angle_beta     90
_cell_angle_gamma    90

_symmetry_space_group_name_H-M    "P 1"
_symmetry_int_tables_number       1

loop_
  _symmetry_equiv_pos_as_xyz
  'x, y, z'

loop_
  _atom_site_label
  _atom_site_occupancy
  _atom_site_fract_x
  _atom_site_fract_y
  _atom_site_fract_z
  _atom_site_thermal_displace_type
  _atom_site_B_iso_or_equiv
  _atom_site_type_symbol
  Cu1      1.0000 0.92950  0.38230  0.71148  Biso   1.000  Cu
  Cu2      1.0000 0.07050  0.61770  0.21148  Biso   1.000  Cu
  Cu3      1.0000 0.42950  0.11770  0.71148  Biso   1.000  Cu
  Cu4      1.0000 0.57050  0.88230  0.21148  Biso   1.000  Cu
  N1       1.0000 0.84380  0.47230  0.75560  Biso   1.000  N
  N2       1.0000 0.15620  0.52770  0.25560  Biso   1.000  N
  N3       1.0000 0.34380  0.02770  0.75560  Biso   1.000  N
  N4       1.0000 0.65620  0.97230  0.25560  Biso   1.000  N
  Cu5      1.0000 0.74324  0.11825  0.80120  Biso   1.000  Cu
  Cu6      1.0000 0.25676  0.88175  0.30120  Biso   1.000  Cu
  Cu7      1.0000 0.24324  0.38175  0.80120  Biso   1.000  Cu
  Cu8      1.0000 0.75676  0.61825  0.30120  Biso   1.000  Cu
  C1       1.0000 0.84750  0.56180  0.76050  Biso   1.000  C
  C2       1.0000 0.15250  0.43820  0.26050  Biso   1.000  C
  C3       1.0000 0.34750  0.93820  0.76050  Biso   1.000  C
  C4       1.0000 0.65250  0.06180  0.26050  Biso   1.000  C
  H1       1.0000 0.90000  0.59140  0.74800  Biso   1.000  H
  H2       1.0000 0.10000  0.40860  0.24800  Biso   1.000  H
  H3       1.0000 0.40000  0.90860  0.74800  Biso   1.000  H
  H4       1.0000 0.60000  0.09140  0.24800  Biso   1.000  H
  C5       1.0000 0.77680  0.61090  0.78310  Biso   1.000  C
  C6       1.0000 0.22320  0.38910  0.28310  Biso   1.000  C
  C7       1.0000 0.27680  0.88910  0.78310  Biso   1.000  C
  C8       1.0000 0.72320  0.11090  0.28310  Biso   1.000  C
  H5       1.0000 0.78240  0.67370  0.78690  Biso   1.000  H
  H6       1.0000 0.21760  0.32630  0.28690  Biso   1.000  H
  H7       1.0000 0.28240  0.82630  0.78690  Biso   1.000  H
  H8       1.0000 0.71760  0.17370  0.28690  Biso   1.000  H
  C9       1.0000 0.70020  0.57370  0.80010  Biso   1.000  C
  C10      1.0000 0.29980  0.42630  0.30010  Biso   1.000  C
  C11      1.0000 0.20020  0.92630  0.80010  Biso   1.000  C
  C12      1.0000 0.79980  0.07370  0.30010  Biso   1.000  C
  H9       1.0000 0.65160  0.60840  0.81520  Biso   1.000  H
  H10      1.0000 0.34840  0.39160  0.31520  Biso   1.000  H
  H11      1.0000 0.15160  0.89160  0.81520  Biso   1.000  H
  H12      1.0000 0.84840  0.10840  0.31520  Biso   1.000  H
  C13      1.0000 0.69570  0.47930  0.79430  Biso   1.000  C
  C14      1.0000 0.30430  0.52070  0.29430  Biso   1.000  C
  C15      1.0000 0.19570  0.02070  0.79430  Biso   1.000  C
  C16      1.0000 0.80430  0.97930  0.29430  Biso   1.000  C
  H13      1.0000 0.64290  0.44920  0.80420  Biso   1.000  H
  H14      1.0000 0.35710  0.55080  0.30420  Biso   1.000  H
  H15      1.0000 0.14290  0.05080  0.80420  Biso   1.000  H
  H16      1.0000 0.85710  0.94920  0.30420  Biso   1.000  H
  C17      1.0000 0.76740  0.43270  0.77460  Biso   1.000  C
  C18      1.0000 0.23260  0.56730  0.27460  Biso   1.000  C
  C19      1.0000 0.26740  0.06730  0.77460  Biso   1.000  C
  C20      1.0000 0.73260  0.93270  0.27460  Biso   1.000  C
  C21      1.0000 0.76850  0.33380  0.76920  Biso   1.000  C
  C22      1.0000 0.23150  0.66620  0.26920  Biso   1.000  C
  C23      1.0000 0.26850  0.16620  0.76920  Biso   1.000  C
  C24      1.0000 0.73150  0.83380  0.26920  Biso   1.000  C
  H17      1.0000 0.71960  0.29960  0.78440  Biso   1.000  H
  H18      1.0000 0.28040  0.70040  0.28440  Biso   1.000  H
  H19      1.0000 0.21960  0.20040  0.78440  Biso   1.000  H
  H20      1.0000 0.78040  0.79960  0.28440  Biso   1.000  H
  N5       1.0000 0.83500  0.29730  0.74430  Biso   1.000  N
  N6       1.0000 0.16500  0.70270  0.24430  Biso   1.000  N
  N7       1.0000 0.33500  0.20270  0.74430  Biso   1.000  N
  N8       1.0000 0.66500  0.79730  0.24430  Biso   1.000  N
  N9       1.0000 0.83110  0.20510  0.75120  Biso   1.000  N
  N10      1.0000 0.16890  0.79490  0.25120  Biso   1.000  N
  N11      1.0000 0.33110  0.29490  0.75120  Biso   1.000  N
  N12      1.0000 0.66890  0.70510  0.25120  Biso   1.000  N
  C25      1.0000 0.89930  0.16300  0.72420  Biso   1.000  C
  C26      1.0000 0.10070  0.83700  0.22420  Biso   1.000  C
  C27      1.0000 0.39930  0.33700  0.72420  Biso   1.000  C
  C28      1.0000 0.60070  0.66300  0.22420  Biso   1.000  C
  H21      1.0000 0.94460  0.19460  0.69850  Biso   1.000  H
  H22      1.0000 0.05540  0.80540  0.19850  Biso   1.000  H
  H23      1.0000 0.44460  0.30540  0.69850  Biso   1.000  H
  H24      1.0000 0.55540  0.69460  0.19850  Biso   1.000  H
  C29      1.0000 0.90420  0.06610  0.73450  Biso   1.000  C
  C30      1.0000 0.09580  0.93390  0.23450  Biso   1.000  C
  C31      1.0000 0.40420  0.43390  0.73450  Biso   1.000  C
  C32      1.0000 0.59580  0.56610  0.23450  Biso   1.000  C
  C33      1.0000 0.97340  0.01820  0.70980  Biso   1.000  C
  C34      1.0000 0.02660  0.98180  0.20980  Biso   1.000  C
  C35      1.0000 0.47340  0.48180  0.70980  Biso   1.000  C
  C36      1.0000 0.52660  0.51820  0.20980  Biso   1.000  C
  H25      1.0000 0.01970  0.04540  0.68170  Biso   1.000  H
  H26      1.0000 0.98030  0.95460  0.18170  Biso   1.000  H
  H27      1.0000 0.51970  0.45460  0.68170  Biso   1.000  H
  H28      1.0000 0.48030  0.54540  0.18170  Biso   1.000  H
  C37      1.0000 0.97380  0.92840  0.72700  Biso   1.000  C
  C38      1.0000 0.02620  0.07160  0.22700  Biso   1.000  C
  C39      1.0000 0.47380  0.57160  0.72700  Biso   1.000  C
  C40      1.0000 0.52620  0.42840  0.22700  Biso   1.000  C
  H29      1.0000 0.02170  0.89320  0.71110  Biso   1.000  H
  H30      1.0000 0.97830  0.10680  0.21110  Biso   1.000  H
  H31      1.0000 0.52170  0.60680  0.71110  Biso   1.000  H
  H32      1.0000 0.47830  0.39320  0.21110  Biso   1.000  H
  C41      1.0000 0.90610  0.88910  0.76670  Biso   1.000  C
  C42      1.0000 0.09390  0.11090  0.26670  Biso   1.000  C
  C43      1.0000 0.40610  0.61090  0.76670  Biso   1.000  C
  C44      1.0000 0.59390  0.38910  0.26670  Biso   1.000  C
  H33      1.0000 0.90680  0.82740  0.77880  Biso   1.000  H
  H34      1.0000 0.09320  0.17260  0.27880  Biso   1.000  H
  H35      1.0000 0.40680  0.67260  0.77880  Biso   1.000  H
  H36      1.0000 0.59320  0.32740  0.27880  Biso   1.000  H
  C45      1.0000 0.83640  0.94270  0.78860  Biso   1.000  C
  C46      1.0000 0.16360  0.05730  0.28860  Biso   1.000  C
  C47      1.0000 0.33640  0.55730  0.78860  Biso   1.000  C
  C48      1.0000 0.66360  0.44270  0.28860  Biso   1.000  C
  H37      1.0000 0.78930  0.91730  0.81690  Biso   1.000  H
  H38      1.0000 0.21070  0.08270  0.31690  Biso   1.000  H
  H39      1.0000 0.28930  0.58270  0.81690  Biso   1.000  H
  H40      1.0000 0.71070  0.41730  0.31690  Biso   1.000  H
  N13      1.0000 0.83510  0.03120  0.76990  Biso   1.000  N
  N14      1.0000 0.16490  0.96880  0.26990  Biso   1.000  N
  N15      1.0000 0.33510  0.46880  0.76990  Biso   1.000  N
  N16      1.0000 0.66490  0.53120  0.26990  Biso   1.000  N
  N17      1.0000 0.96060  0.40520  0.59710  Biso   1.000  N
  N18      1.0000 0.03940  0.59480  0.09710  Biso   1.000  N
  N19      1.0000 0.46060  0.09480  0.59710  Biso   1.000  N
  N20      1.0000 0.53940  0.90520  0.09710  Biso   1.000  N
  C49      1.0000 0.91160  0.41720  0.53410  Biso   1.000  C
  C50      1.0000 0.08840  0.58280  0.03410  Biso   1.000  C
  C51      1.0000 0.41160  0.08280  0.53410  Biso   1.000  C
  C52      1.0000 0.58840  0.91720  0.03410  Biso   1.000  C
  H41      1.0000 0.85100  0.41700  0.54250  Biso   1.000  H
  H42      1.0000 0.14900  0.58300  0.04250  Biso   1.000  H
  H43      1.0000 0.35100  0.08300  0.54250  Biso   1.000  H
  H44      1.0000 0.64900  0.91700  0.04250  Biso   1.000  H
  C53      1.0000 0.93980  0.43000  0.45640  Biso   1.000  C
  C54      1.0000 0.06020  0.57000  0.95640  Biso   1.000  C
  C55      1.0000 0.43980  0.07000  0.45640  Biso   1.000  C
  C56      1.0000 0.56020  0.93000  0.95640  Biso   1.000  C
  H45      1.0000 0.90030  0.43520  0.41320  Biso   1.000  H
  H46      1.0000 0.09970  0.56480  0.91320  Biso   1.000  H
  H47      1.0000 0.40030  0.06480  0.41320  Biso   1.000  H
  H48      1.0000 0.59970  0.93520  0.91320  Biso   1.000  H
  C57      1.0000 0.02550  0.43490  0.44490  Biso   1.000  C
  C58      1.0000 0.97450  0.56510  0.94490  Biso   1.000  C
  C59      1.0000 0.52550  0.06510  0.44490  Biso   1.000  C
  C60      1.0000 0.47450  0.93490  0.94490  Biso   1.000  C
  H49      1.0000 0.04860  0.44530  0.39320  Biso   1.000  H
  H50      1.0000 0.95140  0.55470  0.89320  Biso   1.000  H
  H51      1.0000 0.54860  0.05470  0.39320  Biso   1.000  H
  H52      1.0000 0.45140  0.94530  0.89320  Biso   1.000  H
  C61      1.0000 0.07980  0.42440  0.51120  Biso   1.000  C
  C62      1.0000 0.92020  0.57560  0.01120  Biso   1.000  C
  C63      1.0000 0.57980  0.07560  0.51120  Biso   1.000  C
  C64      1.0000 0.42020  0.92440  0.01120  Biso   1.000  C
  H53      1.0000 0.14060  0.42780  0.50450  Biso   1.000  H
  H54      1.0000 0.85940  0.57220  0.00450  Biso   1.000  H
  H55      1.0000 0.64060  0.07220  0.50450  Biso   1.000  H
  H56      1.0000 0.35940  0.92780  0.00450  Biso   1.000  H
  C65      1.0000 0.04640  0.40930  0.58470  Biso   1.000  C
  C66      1.0000 0.95360  0.59070  0.08470  Biso   1.000  C
  C67      1.0000 0.54640  0.09070  0.58470  Biso   1.000  C
  C68      1.0000 0.45360  0.90930  0.08470  Biso   1.000  C
  C69      1.0000 0.09830  0.39820  0.65690  Biso   1.000  C
  C70      1.0000 0.90170  0.60180  0.15690  Biso   1.000  C
  C71      1.0000 0.59830  0.10180  0.65690  Biso   1.000  C
  C72      1.0000 0.40170  0.89820  0.15690  Biso   1.000  C
  H57      1.0000 0.15940  0.40330  0.65510  Biso   1.000  H
  H58      1.0000 0.84060  0.59670  0.15510  Biso   1.000  H
  H59      1.0000 0.65940  0.09670  0.65510  Biso   1.000  H
  H60      1.0000 0.34060  0.90330  0.15510  Biso   1.000  H
  N21      1.0000 0.05890  0.38150  0.72300  Biso   1.000  N
  N22      1.0000 0.94110  0.61850  0.22300  Biso   1.000  N
  N23      1.0000 0.55890  0.11850  0.72300  Biso   1.000  N
  N24      1.0000 0.44110  0.88150  0.22300  Biso   1.000  N
  N25      1.0000 0.11440  0.37530  0.79000  Biso   1.000  N
  N26      1.0000 0.88560  0.62470  0.29000  Biso   1.000  N
  N27      1.0000 0.61440  0.12470  0.79000  Biso   1.000  N
  N28      1.0000 0.38560  0.87530  0.29000  Biso   1.000  N
  C73      1.0000 0.07320  0.36190  0.85450  Biso   1.000  C
  C74      1.0000 0.92680  0.63810  0.35450  Biso   1.000  C
  C75      1.0000 0.57320  0.13810  0.85450  Biso   1.000  C
  C76      1.0000 0.42680  0.86190  0.35450  Biso   1.000  C
  H61      1.0000 0.01240  0.35390  0.85440  Biso   1.000  H
  H62      1.0000 0.98760  0.64610  0.35440  Biso   1.000  H
  H63      1.0000 0.51240  0.14610  0.85440  Biso   1.000  H
  H64      1.0000 0.48760  0.85390  0.35440  Biso   1.000  H
  C77      1.0000 0.12180  0.35940  0.92740  Biso   1.000  C
  C78      1.0000 0.87820  0.64060  0.42740  Biso   1.000  C
  C79      1.0000 0.62180  0.14060  0.92740  Biso   1.000  C
  C80      1.0000 0.37820  0.85940  0.42740  Biso   1.000  C
  C81      1.0000 0.08470  0.34620  0.00150  Biso   1.000  C
  C82      1.0000 0.91530  0.65380  0.50150  Biso   1.000  C
  C83      1.0000 0.58470  0.15380  0.00150  Biso   1.000  C
  C84      1.0000 0.41530  0.84620  0.50150  Biso   1.000  C
  H65      1.0000 0.02440  0.33570  0.00610  Biso   1.000  H
  H66      1.0000 0.97560  0.66430  0.50610  Biso   1.000  H
  H67      1.0000 0.52440  0.16430  0.00610  Biso   1.000  H
  H68      1.0000 0.47560  0.83570  0.50610  Biso   1.000  H
  C85      1.0000 0.13580  0.34840  0.06860  Biso   1.000  C
  C86      1.0000 0.86420  0.65160  0.56860  Biso   1.000  C
  C87      1.0000 0.63580  0.15160  0.06860  Biso   1.000  C
  C88      1.0000 0.36420  0.84840  0.56860  Biso   1.000  C
  H69      1.0000 0.11120  0.33970  0.12000  Biso   1.000  H
  H70      1.0000 0.88880  0.66030  0.62000  Biso   1.000  H
  H71      1.0000 0.61120  0.16030  0.12000  Biso   1.000  H
  H72      1.0000 0.38880  0.83970  0.62000  Biso   1.000  H
  C89      1.0000 0.22200  0.36320  0.06080  Biso   1.000  C
  C90      1.0000 0.77800  0.63680  0.56080  Biso   1.000  C
  C91      1.0000 0.72200  0.13680  0.06080  Biso   1.000  C
  C92      1.0000 0.27800  0.86320  0.56080  Biso   1.000  C
  H73      1.0000 0.25850  0.36650  0.10630  Biso   1.000  H
  H74      1.0000 0.74150  0.63350  0.60630  Biso   1.000  H
  H75      1.0000 0.75850  0.13350  0.10630  Biso   1.000  H
  H76      1.0000 0.24150  0.86650  0.60630  Biso   1.000  H
  C93      1.0000 0.25530  0.37330  0.98350  Biso   1.000  C
  C94      1.0000 0.74470  0.62670  0.48350  Biso   1.000  C
  C95      1.0000 0.75530  0.12670  0.98350  Biso   1.000  C
  C96      1.0000 0.24470  0.87330  0.48350  Biso   1.000  C
  H77      1.0000 0.31560  0.38330  0.97830  Biso   1.000  H
  H78      1.0000 0.68440  0.61670  0.47830  Biso   1.000  H
  H79      1.0000 0.81560  0.11670  0.97830  Biso   1.000  H
  H80      1.0000 0.18440  0.88330  0.47830  Biso   1.000  H
  N29      1.0000 0.20840  0.37000  0.91670  Biso   1.000  N
  N30      1.0000 0.79160  0.63000  0.41670  Biso   1.000  N
  N31      1.0000 0.70840  0.13000  0.91670  Biso   1.000  N
  N32      1.0000 0.29160  0.87000  0.41670  Biso   1.000  N
  P1       1.0000 0.10050  0.67250  0.71290  Biso   1.000  P
  P2       1.0000 0.89950  0.32750  0.21290  Biso   1.000  P
  P3       1.0000 0.60050  0.82750  0.71290  Biso   1.000  P
  P4       1.0000 0.39950  0.17250  0.21290  Biso   1.000  P
  F1       1.0000 0.18790  0.64110  0.68570  Biso   1.000  F
  F2       1.0000 0.81210  0.35890  0.18570  Biso   1.000  F
  F3       1.0000 0.68790  0.85890  0.68570  Biso   1.000  F
  F4       1.0000 0.31210  0.14110  0.18570  Biso   1.000  F
  F5       1.0000 0.00960  0.70580  0.73620  Biso   1.000  F
  F6       1.0000 0.99040  0.29420  0.23620  Biso   1.000  F
  F7       1.0000 0.50960  0.79420  0.73620  Biso   1.000  F
  F8       1.0000 0.49040  0.20580  0.23620  Biso   1.000  F
  F9       1.0000 0.13910  0.71940  0.78690  Biso   1.000  F
  F10      1.0000 0.86090  0.28060  0.28690  Biso   1.000  F
  F11      1.0000 0.63910  0.78060  0.78690  Biso   1.000  F
  F12      1.0000 0.36090  0.21940  0.28690  Biso   1.000  F
  F13      1.0000 0.11200  0.75950  0.66220  Biso   1.000  F
  F14      1.0000 0.88800  0.24050  0.16220  Biso   1.000  F
  F15      1.0000 0.61200  0.74050  0.66220  Biso   1.000  F
  F16      1.0000 0.38800  0.25950  0.16220  Biso   1.000  F
  F17      1.0000 0.06260  0.62480  0.64080  Biso   1.000  F
  F18      1.0000 0.93740  0.37520  0.14080  Biso   1.000  F
  F19      1.0000 0.56260  0.87520  0.64080  Biso   1.000  F
  F20      1.0000 0.43740  0.12480  0.14080  Biso   1.000  F
  F21      1.0000 0.08620  0.58790  0.76680  Biso   1.000  F
  F22      1.0000 0.91380  0.41210  0.26680  Biso   1.000  F
  F23      1.0000 0.58620  0.91210  0.76680  Biso   1.000  F
  F24      1.0000 0.41380  0.08790  0.26680  Biso   1.000  F
  P5       1.0000 0.64330  0.35290  0.53940  Biso   1.000  P
  P6       1.0000 0.35670  0.64710  0.03940  Biso   1.000  P
  P7       1.0000 0.14330  0.14710  0.53940  Biso   1.000  P
  P8       1.0000 0.85670  0.85290  0.03940  Biso   1.000  P
  F25      1.0000 0.71110  0.39090  0.47860  Biso   1.000  F
  F26      1.0000 0.28890  0.60910  0.97860  Biso   1.000  F
  F27      1.0000 0.21110  0.10910  0.47860  Biso   1.000  F
  F28      1.0000 0.78890  0.89090  0.97860  Biso   1.000  F
  F29      1.0000 0.57420  0.31660  0.59840  Biso   1.000  F
  F30      1.0000 0.42580  0.68340  0.09840  Biso   1.000  F
  F31      1.0000 0.07420  0.18340  0.59840  Biso   1.000  F
  F32      1.0000 0.92580  0.81660  0.09840  Biso   1.000  F
  F33      1.0000 0.66610  0.42880  0.59960  Biso   1.000  F
  F34      1.0000 0.33390  0.57120  0.09960  Biso   1.000  F
  F35      1.0000 0.16610  0.07120  0.59960  Biso   1.000  F
  F36      1.0000 0.83390  0.92880  0.09960  Biso   1.000  F
  F37      1.0000 0.71540  0.29360  0.57760  Biso   1.000  F
  F38      1.0000 0.28460  0.70640  0.07760  Biso   1.000  F
  F39      1.0000 0.21540  0.20640  0.57760  Biso   1.000  F
  F40      1.0000 0.78460  0.79360  0.07760  Biso   1.000  F
  F41      1.0000 0.61840  0.27800  0.47730  Biso   1.000  F
  F42      1.0000 0.38160  0.72200  0.97730  Biso   1.000  F
  F43      1.0000 0.11840  0.22200  0.47730  Biso   1.000  F
  F44      1.0000 0.88160  0.77800  0.97730  Biso   1.000  F
  F45      1.0000 0.57290  0.41370  0.50050  Biso   1.000  F
  F46      1.0000 0.42710  0.58630  0.00050  Biso   1.000  F
  F47      1.0000 0.07290  0.08630  0.50050  Biso   1.000  F
  F48      1.0000 0.92710  0.91370  0.00050  Biso   1.000  F
  N33      1.0000 0.87860  0.32130  0.93810  Biso   1.000  N
  N34      1.0000 0.12140  0.67870  0.43810  Biso   1.000  N
  N35      1.0000 0.37860  0.17870  0.93810  Biso   1.000  N
  N36      1.0000 0.62140  0.82130  0.43810  Biso   1.000  N
  C97      1.0000 0.81690  0.34210  0.97010  Biso   1.000  C
  C98      1.0000 0.18310  0.65790  0.47010  Biso   1.000  C
  C99      1.0000 0.31690  0.15790  0.97010  Biso   1.000  C
  C100     1.0000 0.68310  0.84210  0.47010  Biso   1.000  C
  C101     1.0000 0.74010  0.36690  0.01190  Biso   1.000  C
  C102     1.0000 0.25990  0.63310  0.51190  Biso   1.000  C
  C103     1.0000 0.24010  0.13310  0.01190  Biso   1.000  C
  C104     1.0000 0.75990  0.86690  0.51190  Biso   1.000  C
  H81      1.0000 0.74270  0.43030  0.02550  Biso   1.000  H
  H82      1.0000 0.25730  0.56970  0.52550  Biso   1.000  H
  H83      1.0000 0.24270  0.06970  0.02550  Biso   1.000  H
  H84      1.0000 0.75730  0.93030  0.52550  Biso   1.000  H
  H85      1.0000 0.73510  0.33170  0.06090  Biso   1.000  H
  H86      1.0000 0.26490  0.66830  0.56090  Biso   1.000  H
  H87      1.0000 0.23510  0.16830  0.06090  Biso   1.000  H
  H88      1.0000 0.76490  0.83170  0.56090  Biso   1.000  H
  H89      1.0000 0.68970  0.35590  0.97780  Biso   1.000  H
  H90      1.0000 0.31030  0.64410  0.47780  Biso   1.000  H
  H91      1.0000 0.18970  0.14410  0.97780  Biso   1.000  H
  H92      1.0000 0.81030  0.85590  0.47780  Biso   1.000  H
  N37      1.0000 0.03520  0.15100  0.87390  Biso   1.000  N
  N38      1.0000 0.96480  0.84900  0.37390  Biso   1.000  N
  N39      1.0000 0.53520  0.34900  0.87390  Biso   1.000  N
  N40      1.0000 0.46480  0.65100  0.37390  Biso   1.000  N
  C105     1.0000 0.01800  0.13870  0.93660  Biso   1.000  C
  C106     1.0000 0.98200  0.86130  0.43660  Biso   1.000  C
  C107     1.0000 0.51800  0.36130  0.93660  Biso   1.000  C
  C108     1.0000 0.48200  0.63870  0.43660  Biso   1.000  C
  C109     1.0000 0.00230  0.11670  0.01940  Biso   1.000  C
  C110     1.0000 0.99770  0.88330  0.51940  Biso   1.000  C
  C111     1.0000 0.50230  0.38330  0.01940  Biso   1.000  C
  C112     1.0000 0.49770  0.61670  0.51940  Biso   1.000  C
  H93      1.0000 0.96170  0.06680  0.02250  Biso   1.000  H
  H94      1.0000 0.03830  0.93320  0.52250  Biso   1.000  H
  H95      1.0000 0.46170  0.43320  0.02250  Biso   1.000  H
  H96      1.0000 0.53830  0.56680  0.52250  Biso   1.000  H
  H97      1.0000 0.97780  0.16840  0.04680  Biso   1.000  H
  H98      1.0000 0.02220  0.83160  0.54680  Biso   1.000  H
  H99      1.0000 0.47780  0.33160  0.04680  Biso   1.000  H
  H100     1.0000 0.52220  0.66840  0.54680  Biso   1.000  H
  H101     1.0000 0.05690  0.09990  0.04490  Biso   1.000  H
  H102     1.0000 0.94310  0.90010  0.54490  Biso   1.000  H
  H103     1.0000 0.55690  0.40010  0.04490  Biso   1.000  H
  H104     1.0000 0.44310  0.59990  0.54490  Biso   1.000  H
  N41      1.0000 0.32100  0.43180  0.53920  Biso   1.000  N
  N42      1.0000 0.67900  0.56820  0.03920  Biso   1.000  N
  N43      1.0000 0.82100  0.06820  0.53920  Biso   1.000  N
  N44      1.0000 0.17900  0.93180  0.03920  Biso   1.000  N
  C113     1.0000 0.35060  0.36750  0.51650  Biso   1.000  C
  C114     1.0000 0.64940  0.63250  0.01650  Biso   1.000  C
  C115     1.0000 0.85060  0.13250  0.51650  Biso   1.000  C
  C116     1.0000 0.14940  0.86750  0.01650  Biso   1.000  C
  C117     1.0000 0.38780  0.29620  0.47740  Biso   1.000  C
  C118     1.0000 0.61220  0.70380  0.97740  Biso   1.000  C
  C119     1.0000 0.88780  0.20380  0.47740  Biso   1.000  C
  C120     1.0000 0.11220  0.79620  0.97740  Biso   1.000  C
  H105     1.0000 0.44230  0.31510  0.45290  Biso   1.000  H
  H106     1.0000 0.55770  0.68490  0.95290  Biso   1.000  H
  H107     1.0000 0.94230  0.18490  0.45290  Biso   1.000  H
  H108     1.0000 0.05770  0.81510  0.95290  Biso   1.000  H
  H109     1.0000 0.34850  0.27470  0.43580  Biso   1.000  H
  H110     1.0000 0.65150  0.72530  0.93580  Biso   1.000  H
  H111     1.0000 0.84850  0.22530  0.43580  Biso   1.000  H
  H112     1.0000 0.15150  0.77470  0.93580  Biso   1.000  H
  H113     1.0000 0.39910  0.24840  0.51570  Biso   1.000  H
  H114     1.0000 0.60090  0.75160  0.01570  Biso   1.000  H
  H115     1.0000 0.89910  0.25160  0.51570  Biso   1.000  H
  H116     1.0000 0.10090  0.74840  0.01570  Biso   1.000  H
