data_image0
_cell_length_a       18.692
_cell_length_b       10.607
_cell_length_c       24.052
_cell_angle_alpha    90
_cell_angle_beta     111.354
_cell_angle_gamma    90

_symmetry_space_group_name_H-M    "P 1"
_symmetry_int_tables_number       1

loop_
  _symmetry_equiv_pos_as_xyz
  'x, y, z'

loop_
  _atom_site_label
  _atom_site_occupancy
  _atom_site_fract_x
  _atom_site_fract_y
  _atom_site_fract_z
  _atom_site_thermal_displace_type
  _atom_site_B_iso_or_equiv
  _atom_site_type_symbol
  Cu1      1.0000 0.30568  0.76246  0.96010  Biso   1.000  Cu
  Cu2      1.0000 0.80568  0.73754  0.96010  Biso   1.000  Cu
  Cu3      1.0000 0.69432  0.23754  0.03990  Biso   1.000  Cu
  Cu4      1.0000 0.19432  0.26246  0.03990  Biso   1.000  Cu
  C1       1.0000 0.27380  0.52320  0.02680  Biso   1.000  C
  C2       1.0000 0.77380  0.97680  0.02680  Biso   1.000  C
  C3       1.0000 0.72620  0.47680  0.97320  Biso   1.000  C
  C4       1.0000 0.22620  0.02320  0.97320  Biso   1.000  C
  H1       1.0000 0.25400  0.49510  0.98470  Biso   1.000  H
  H2       1.0000 0.75400  0.00490  0.98470  Biso   1.000  H
  H3       1.0000 0.74600  0.50490  0.01530  Biso   1.000  H
  H4       1.0000 0.24600  0.99510  0.01530  Biso   1.000  H
  H5       1.0000 0.23030  0.56150  0.03490  Biso   1.000  H
  H6       1.0000 0.73030  0.93850  0.03490  Biso   1.000  H
  H7       1.0000 0.76970  0.43850  0.96510  Biso   1.000  H
  H8       1.0000 0.26970  0.06150  0.96510  Biso   1.000  H
  N1       1.0000 0.33190  0.62240  0.03350  Biso   1.000  N
  N2       1.0000 0.83190  0.87760  0.03350  Biso   1.000  N
  N3       1.0000 0.66810  0.37760  0.96650  Biso   1.000  N
  N4       1.0000 0.16810  0.12240  0.96650  Biso   1.000  N
  C5       1.0000 0.35080  0.70160  0.08870  Biso   1.000  C
  C6       1.0000 0.85080  0.79840  0.08870  Biso   1.000  C
  C7       1.0000 0.64920  0.29840  0.91130  Biso   1.000  C
  C8       1.0000 0.14920  0.20160  0.91130  Biso   1.000  C
  H9       1.0000 0.30340  0.72090  0.09630  Biso   1.000  H
  H10      1.0000 0.80340  0.77910  0.09630  Biso   1.000  H
  H11      1.0000 0.69660  0.27910  0.90370  Biso   1.000  H
  H12      1.0000 0.19660  0.22090  0.90370  Biso   1.000  H
  H13      1.0000 0.38640  0.65540  0.12360  Biso   1.000  H
  H14      1.0000 0.88640  0.84460  0.12360  Biso   1.000  H
  H15      1.0000 0.61360  0.34460  0.87640  Biso   1.000  H
  H16      1.0000 0.11360  0.15540  0.87640  Biso   1.000  H
  C9       1.0000 0.38750  0.82100  0.07960  Biso   1.000  C
  C10      1.0000 0.88750  0.67900  0.07960  Biso   1.000  C
  C11      1.0000 0.61250  0.17900  0.92040  Biso   1.000  C
  C12      1.0000 0.11250  0.32100  0.92040  Biso   1.000  C
  C13      1.0000 0.42200  0.90300  0.12700  Biso   1.000  C
  C14      1.0000 0.92200  0.59700  0.12700  Biso   1.000  C
  C15      1.0000 0.57800  0.09700  0.87300  Biso   1.000  C
  C16      1.0000 0.07800  0.40300  0.87300  Biso   1.000  C
  H17      1.0000 0.42010  0.88210  0.16490  Biso   1.000  H
  H18      1.0000 0.92010  0.61790  0.16490  Biso   1.000  H
  H19      1.0000 0.57990  0.11790  0.83510  Biso   1.000  H
  H20      1.0000 0.07990  0.38210  0.83510  Biso   1.000  H
  C17      1.0000 0.45740  0.00770  0.12170  Biso   1.000  C
  C18      1.0000 0.95740  0.49230  0.12170  Biso   1.000  C
  C19      1.0000 0.54260  0.99230  0.87830  Biso   1.000  C
  C20      1.0000 0.04260  0.50770  0.87830  Biso   1.000  C
  H21      1.0000 0.48700  0.05410  0.15630  Biso   1.000  H
  H22      1.0000 0.98700  0.44590  0.15630  Biso   1.000  H
  H23      1.0000 0.51300  0.94590  0.84370  Biso   1.000  H
  H24      1.0000 0.01300  0.55410  0.84370  Biso   1.000  H
  C21      1.0000 0.45100  0.04870  0.06650  Biso   1.000  C
  C22      1.0000 0.95100  0.45130  0.06650  Biso   1.000  C
  C23      1.0000 0.54900  0.95130  0.93350  Biso   1.000  C
  C24      1.0000 0.04900  0.54870  0.93350  Biso   1.000  C
  H25      1.0000 0.46880  0.12920  0.05990  Biso   1.000  H
  H26      1.0000 0.96880  0.37080  0.05990  Biso   1.000  H
  H27      1.0000 0.53120  0.87080  0.94010  Biso   1.000  H
  H28      1.0000 0.03120  0.62920  0.94010  Biso   1.000  H
  C25      1.0000 0.41710  0.96540  0.02100  Biso   1.000  C
  C26      1.0000 0.91710  0.53460  0.02100  Biso   1.000  C
  C27      1.0000 0.58290  0.03460  0.97900  Biso   1.000  C
  C28      1.0000 0.08290  0.46540  0.97900  Biso   1.000  C
  H29      1.0000 0.41890  0.98450  0.98290  Biso   1.000  H
  H30      1.0000 0.91890  0.51550  0.98290  Biso   1.000  H
  H31      1.0000 0.58110  0.01550  0.01710  Biso   1.000  H
  H32      1.0000 0.08110  0.48450  0.01710  Biso   1.000  H
  N5       1.0000 0.38170  0.85920  0.02620  Biso   1.000  N
  N6       1.0000 0.88170  0.64080  0.02620  Biso   1.000  N
  N7       1.0000 0.61830  0.14080  0.97380  Biso   1.000  N
  N8       1.0000 0.11830  0.35920  0.97380  Biso   1.000  N
  C29      1.0000 0.40710  0.56190  0.03210  Biso   1.000  C
  C30      1.0000 0.90710  0.93810  0.03210  Biso   1.000  C
  C31      1.0000 0.59290  0.43810  0.96790  Biso   1.000  C
  C32      1.0000 0.09290  0.06190  0.96790  Biso   1.000  C
  H33      1.0000 0.39730  0.52370  0.99250  Biso   1.000  H
  H34      1.0000 0.89730  0.97630  0.99250  Biso   1.000  H
  H35      1.0000 0.60270  0.47630  0.00750  Biso   1.000  H
  H36      1.0000 0.10270  0.02370  0.00750  Biso   1.000  H
  H37      1.0000 0.44700  0.62770  0.03890  Biso   1.000  H
  H38      1.0000 0.94700  0.87230  0.03890  Biso   1.000  H
  H39      1.0000 0.55300  0.37230  0.96110  Biso   1.000  H
  H40      1.0000 0.05300  0.12770  0.96110  Biso   1.000  H
  N9       1.0000 0.43490  0.46350  0.07910  Biso   1.000  N
  N10      1.0000 0.93490  0.03650  0.07910  Biso   1.000  N
  N11      1.0000 0.56510  0.53650  0.92090  Biso   1.000  N
  N12      1.0000 0.06510  0.96350  0.92090  Biso   1.000  N
  C33      1.0000 0.50550  0.41460  0.08530  Biso   1.000  C
  C34      1.0000 0.00550  0.08540  0.08530  Biso   1.000  C
  C35      1.0000 0.49450  0.58540  0.91470  Biso   1.000  C
  C36      1.0000 0.99450  0.91460  0.91470  Biso   1.000  C
  H41      1.0000 0.53730  0.48290  0.07840  Biso   1.000  H
  H42      1.0000 0.03730  0.01710  0.07840  Biso   1.000  H
  H43      1.0000 0.46270  0.51710  0.92160  Biso   1.000  H
  H44      1.0000 0.96270  0.98290  0.92160  Biso   1.000  H
  H45      1.0000 0.49820  0.35010  0.05400  Biso   1.000  H
  H46      1.0000 0.99820  0.14990  0.05400  Biso   1.000  H
  H47      1.0000 0.50180  0.64990  0.94600  Biso   1.000  H
  H48      1.0000 0.00180  0.85010  0.94600  Biso   1.000  H
  C37      1.0000 0.54920  0.35500  0.14570  Biso   1.000  C
  C38      1.0000 0.04920  0.14500  0.14570  Biso   1.000  C
  C39      1.0000 0.45080  0.64500  0.85430  Biso   1.000  C
  C40      1.0000 0.95080  0.85500  0.85430  Biso   1.000  C
  C41      1.0000 0.54810  0.41300  0.19930  Biso   1.000  C
  C42      1.0000 0.04810  0.08700  0.19930  Biso   1.000  C
  C43      1.0000 0.45190  0.58700  0.80070  Biso   1.000  C
  C44      1.0000 0.95190  0.91300  0.80070  Biso   1.000  C
  H49      1.0000 0.52360  0.49160  0.20010  Biso   1.000  H
  H50      1.0000 0.02360  0.00840  0.20010  Biso   1.000  H
  H51      1.0000 0.47640  0.50840  0.79990  Biso   1.000  H
  H52      1.0000 0.97640  0.99160  0.79990  Biso   1.000  H
  C45      1.0000 0.58530  0.34500  0.24780  Biso   1.000  C
  C46      1.0000 0.08530  0.15500  0.24780  Biso   1.000  C
  C47      1.0000 0.41470  0.65500  0.75220  Biso   1.000  C
  C48      1.0000 0.91470  0.84500  0.75220  Biso   1.000  C
  H53      1.0000 0.58350  0.37480  0.28460  Biso   1.000  H
  H54      1.0000 0.08350  0.12520  0.28460  Biso   1.000  H
  H55      1.0000 0.41650  0.62520  0.71540  Biso   1.000  H
  H56      1.0000 0.91650  0.87480  0.71540  Biso   1.000  H
  C49      1.0000 0.62250  0.24600  0.24940  Biso   1.000  C
  C50      1.0000 0.12250  0.25400  0.24940  Biso   1.000  C
  C51      1.0000 0.37750  0.75400  0.75060  Biso   1.000  C
  C52      1.0000 0.87750  0.74600  0.75060  Biso   1.000  C
  H57      1.0000 0.64920  0.20630  0.28660  Biso   1.000  H
  H58      1.0000 0.14920  0.29370  0.28660  Biso   1.000  H
  H59      1.0000 0.35080  0.79370  0.71340  Biso   1.000  H
  H60      1.0000 0.85080  0.70630  0.71340  Biso   1.000  H
  C53      1.0000 0.62500  0.19500  0.19730  Biso   1.000  C
  C54      1.0000 0.12500  0.30500  0.19730  Biso   1.000  C
  C55      1.0000 0.37500  0.80500  0.80270  Biso   1.000  C
  C56      1.0000 0.87500  0.69500  0.80270  Biso   1.000  C
  H61      1.0000 0.65360  0.12000  0.19920  Biso   1.000  H
  H62      1.0000 0.15360  0.38000  0.19920  Biso   1.000  H
  H63      1.0000 0.34640  0.88000  0.80080  Biso   1.000  H
  H64      1.0000 0.84640  0.62000  0.80080  Biso   1.000  H
  N13      1.0000 0.58600  0.25100  0.14190  Biso   1.000  N
  N14      1.0000 0.08600  0.24900  0.14190  Biso   1.000  N
  N15      1.0000 0.41400  0.74900  0.85810  Biso   1.000  N
  N16      1.0000 0.91400  0.75100  0.85810  Biso   1.000  N
  C57      1.0000 0.37340  0.36730  0.06290  Biso   1.000  C
  C58      1.0000 0.87340  0.13270  0.06290  Biso   1.000  C
  C59      1.0000 0.62660  0.63270  0.93710  Biso   1.000  C
  C60      1.0000 0.12660  0.86730  0.93710  Biso   1.000  C
  H65      1.0000 0.36400  0.33830  0.02170  Biso   1.000  H
  H66      1.0000 0.86400  0.16170  0.02170  Biso   1.000  H
  H67      1.0000 0.63600  0.66170  0.97830  Biso   1.000  H
  H68      1.0000 0.13600  0.83830  0.97830  Biso   1.000  H
  H69      1.0000 0.39200  0.29400  0.08970  Biso   1.000  H
  H70      1.0000 0.89200  0.20600  0.08970  Biso   1.000  H
  H71      1.0000 0.60800  0.70600  0.91030  Biso   1.000  H
  H72      1.0000 0.10800  0.79400  0.91030  Biso   1.000  H
  N17      1.0000 0.29990  0.40850  0.06590  Biso   1.000  N
  N18      1.0000 0.79990  0.09150  0.06590  Biso   1.000  N
  N19      1.0000 0.70010  0.59150  0.93410  Biso   1.000  N
  N20      1.0000 0.20010  0.90850  0.93410  Biso   1.000  N
  C61      1.0000 0.30660  0.42610  0.12890  Biso   1.000  C
  C62      1.0000 0.80660  0.07390  0.12890  Biso   1.000  C
  C63      1.0000 0.69340  0.57390  0.87110  Biso   1.000  C
  C64      1.0000 0.19340  0.92610  0.87110  Biso   1.000  C
  H73      1.0000 0.26350  0.47840  0.13040  Biso   1.000  H
  H74      1.0000 0.76350  0.02160  0.13040  Biso   1.000  H
  H75      1.0000 0.73650  0.52160  0.86960  Biso   1.000  H
  H76      1.0000 0.23650  0.97840  0.86960  Biso   1.000  H
  H77      1.0000 0.35530  0.46960  0.15160  Biso   1.000  H
  H78      1.0000 0.85530  0.03040  0.15160  Biso   1.000  H
  H79      1.0000 0.64470  0.53040  0.84840  Biso   1.000  H
  H80      1.0000 0.14470  0.96960  0.84840  Biso   1.000  H
  C65      1.0000 0.30470  0.29450  0.15650  Biso   1.000  C
  C66      1.0000 0.80470  0.20550  0.15650  Biso   1.000  C
  C67      1.0000 0.69530  0.70550  0.84350  Biso   1.000  C
  C68      1.0000 0.19530  0.79450  0.84350  Biso   1.000  C
  C69      1.0000 0.34990  0.26830  0.21500  Biso   1.000  C
  C70      1.0000 0.84990  0.23170  0.21500  Biso   1.000  C
  C71      1.0000 0.65010  0.73170  0.78500  Biso   1.000  C
  C72      1.0000 0.15010  0.76830  0.78500  Biso   1.000  C
  H81      1.0000 0.38580  0.33000  0.23720  Biso   1.000  H
  H82      1.0000 0.88580  0.17000  0.23720  Biso   1.000  H
  H83      1.0000 0.61420  0.67000  0.76280  Biso   1.000  H
  H84      1.0000 0.11420  0.83000  0.76280  Biso   1.000  H
  C73      1.0000 0.34520  0.15920  0.24190  Biso   1.000  C
  C74      1.0000 0.84520  0.34080  0.24190  Biso   1.000  C
  C75      1.0000 0.65480  0.84080  0.75810  Biso   1.000  C
  C76      1.0000 0.15480  0.65920  0.75810  Biso   1.000  C
  H85      1.0000 0.37750  0.13990  0.28180  Biso   1.000  H
  H86      1.0000 0.87750  0.36010  0.28180  Biso   1.000  H
  H87      1.0000 0.62250  0.86010  0.71820  Biso   1.000  H
  H88      1.0000 0.12250  0.63990  0.71820  Biso   1.000  H
  C77      1.0000 0.28550  0.07140  0.20410  Biso   1.000  C
  C78      1.0000 0.78550  0.42860  0.20410  Biso   1.000  C
  C79      1.0000 0.71450  0.92860  0.79590  Biso   1.000  C
  C80      1.0000 0.21450  0.57140  0.79590  Biso   1.000  C
  H89      1.0000 0.27550  0.99440  0.22010  Biso   1.000  H
  H90      1.0000 0.77550  0.50560  0.22010  Biso   1.000  H
  H91      1.0000 0.72450  0.00560  0.77990  Biso   1.000  H
  H92      1.0000 0.22450  0.49440  0.77990  Biso   1.000  H
  C81      1.0000 0.24560  0.10250  0.14690  Biso   1.000  C
  C82      1.0000 0.74560  0.39750  0.14690  Biso   1.000  C
  C83      1.0000 0.75440  0.89750  0.85310  Biso   1.000  C
  C84      1.0000 0.25440  0.60250  0.85310  Biso   1.000  C
  H93      1.0000 0.20990  0.04260  0.12300  Biso   1.000  H
  H94      1.0000 0.70990  0.45740  0.12300  Biso   1.000  H
  H95      1.0000 0.79010  0.95740  0.87700  Biso   1.000  H
  H96      1.0000 0.29010  0.54260  0.87700  Biso   1.000  H
  N21      1.0000 0.25270  0.21290  0.12080  Biso   1.000  N
  N22      1.0000 0.75270  0.28710  0.12080  Biso   1.000  N
  N23      1.0000 0.74730  0.78710  0.87920  Biso   1.000  N
  N24      1.0000 0.24730  0.71290  0.87920  Biso   1.000  N
  Cu5      1.0000 0.65595  0.77636  0.45937  Biso   1.000  Cu
  Cu6      1.0000 0.15595  0.72364  0.45937  Biso   1.000  Cu
  Cu7      1.0000 0.34405  0.22364  0.54063  Biso   1.000  Cu
  Cu8      1.0000 0.84405  0.27636  0.54063  Biso   1.000  Cu
  C85      1.0000 0.81610  0.67390  0.43840  Biso   1.000  C
  C86      1.0000 0.31610  0.82610  0.43840  Biso   1.000  C
  C87      1.0000 0.18390  0.32610  0.56160  Biso   1.000  C
  C88      1.0000 0.68390  0.17390  0.56160  Biso   1.000  C
  H97      1.0000 0.84530  0.70330  0.47950  Biso   1.000  H
  H98      1.0000 0.34530  0.79670  0.47950  Biso   1.000  H
  H99      1.0000 0.15470  0.29670  0.52050  Biso   1.000  H
  H100     1.0000 0.65470  0.20330  0.52050  Biso   1.000  H
  H101     1.0000 0.80960  0.74680  0.41130  Biso   1.000  H
  H102     1.0000 0.30960  0.75320  0.41130  Biso   1.000  H
  H103     1.0000 0.19040  0.25320  0.58870  Biso   1.000  H
  H104     1.0000 0.69040  0.24680  0.58870  Biso   1.000  H
  N25      1.0000 0.74080  0.63320  0.43540  Biso   1.000  N
  N26      1.0000 0.24080  0.86680  0.43540  Biso   1.000  N
  N27      1.0000 0.25920  0.36680  0.56460  Biso   1.000  N
  N28      1.0000 0.75920  0.13320  0.56460  Biso   1.000  N
  C89      1.0000 0.68730  0.60610  0.37250  Biso   1.000  C
  C90      1.0000 0.18730  0.89390  0.37250  Biso   1.000  C
  C91      1.0000 0.31270  0.39390  0.62750  Biso   1.000  C
  C92      1.0000 0.81270  0.10610  0.62750  Biso   1.000  C
  H105     1.0000 0.64540  0.54930  0.37280  Biso   1.000  H
  H106     1.0000 0.14540  0.95070  0.37280  Biso   1.000  H
  H107     1.0000 0.35460  0.45070  0.62720  Biso   1.000  H
  H108     1.0000 0.85460  0.04930  0.62720  Biso   1.000  H
  H109     1.0000 0.71560  0.56480  0.34980  Biso   1.000  H
  H110     1.0000 0.21560  0.93520  0.34980  Biso   1.000  H
  H111     1.0000 0.28440  0.43520  0.65020  Biso   1.000  H
  H112     1.0000 0.78440  0.06480  0.65020  Biso   1.000  H
  C93      1.0000 0.65410  0.73220  0.34350  Biso   1.000  C
  C94      1.0000 0.15410  0.76780  0.34350  Biso   1.000  C
  C95      1.0000 0.34590  0.26780  0.65650  Biso   1.000  C
  C96      1.0000 0.84590  0.23220  0.65650  Biso   1.000  C
  C97      1.0000 0.63770  0.74220  0.28380  Biso   1.000  C
  C98      1.0000 0.13770  0.75780  0.28380  Biso   1.000  C
  C99      1.0000 0.36230  0.25780  0.71620  Biso   1.000  C
  C100     1.0000 0.86230  0.24220  0.71620  Biso   1.000  C
  H113     1.0000 0.64860  0.67810  0.26050  Biso   1.000  H
  H114     1.0000 0.14860  0.82190  0.26050  Biso   1.000  H
  H115     1.0000 0.35140  0.32190  0.73950  Biso   1.000  H
  H116     1.0000 0.85140  0.17810  0.73950  Biso   1.000  H
  C101     1.0000 0.60420  0.85300  0.26110  Biso   1.000  C
  C102     1.0000 0.10420  0.64700  0.26110  Biso   1.000  C
  C103     1.0000 0.39580  0.14700  0.73890  Biso   1.000  C
  C104     1.0000 0.89580  0.35300  0.73890  Biso   1.000  C
  H117     1.0000 0.59930  0.87220  0.22130  Biso   1.000  H
  H118     1.0000 0.09930  0.62780  0.22130  Biso   1.000  H
  H119     1.0000 0.40070  0.12780  0.77870  Biso   1.000  H
  H120     1.0000 0.90070  0.37220  0.77870  Biso   1.000  H
  C105     1.0000 0.57770  0.93790  0.28840  Biso   1.000  C
  C106     1.0000 0.07770  0.56210  0.28840  Biso   1.000  C
  C107     1.0000 0.42230  0.06210  0.71160  Biso   1.000  C
  C108     1.0000 0.92230  0.43790  0.71160  Biso   1.000  C
  H121     1.0000 0.54700  0.00740  0.26830  Biso   1.000  H
  H122     1.0000 0.04700  0.49260  0.26830  Biso   1.000  H
  H123     1.0000 0.45300  0.99260  0.73170  Biso   1.000  H
  H124     1.0000 0.95300  0.50740  0.73170  Biso   1.000  H
  C109     1.0000 0.59780  0.91780  0.34830  Biso   1.000  C
  C110     1.0000 0.09780  0.58220  0.34830  Biso   1.000  C
  C111     1.0000 0.40220  0.08220  0.65170  Biso   1.000  C
  C112     1.0000 0.90220  0.41780  0.65170  Biso   1.000  C
  H125     1.0000 0.58690  0.98130  0.37200  Biso   1.000  H
  H126     1.0000 0.08690  0.51870  0.37200  Biso   1.000  H
  H127     1.0000 0.41310  0.01870  0.62800  Biso   1.000  H
  H128     1.0000 0.91310  0.48130  0.62800  Biso   1.000  H
  N29      1.0000 0.63230  0.81170  0.37490  Biso   1.000  N
  N30      1.0000 0.13230  0.68830  0.37490  Biso   1.000  N
  N31      1.0000 0.36770  0.18830  0.62510  Biso   1.000  N
  N32      1.0000 0.86770  0.31170  0.62510  Biso   1.000  N
  C113     1.0000 0.75690  0.51170  0.47430  Biso   1.000  C
  C114     1.0000 0.25690  0.98830  0.47430  Biso   1.000  C
  C115     1.0000 0.24310  0.48830  0.52570  Biso   1.000  C
  C116     1.0000 0.74310  0.01170  0.52570  Biso   1.000  C
  H129     1.0000 0.77490  0.53740  0.51670  Biso   1.000  H
  H130     1.0000 0.27490  0.96260  0.51670  Biso   1.000  H
  H131     1.0000 0.22510  0.46260  0.48330  Biso   1.000  H
  H132     1.0000 0.72510  0.03740  0.48330  Biso   1.000  H
  H133     1.0000 0.70760  0.46650  0.46540  Biso   1.000  H
  H134     1.0000 0.20760  0.03350  0.46540  Biso   1.000  H
  H135     1.0000 0.29240  0.53350  0.53460  Biso   1.000  H
  H136     1.0000 0.79240  0.96650  0.53460  Biso   1.000  H
  N33      1.0000 0.81200  0.42410  0.46720  Biso   1.000  N
  N34      1.0000 0.31200  0.07590  0.46720  Biso   1.000  N
  N35      1.0000 0.18800  0.57590  0.53280  Biso   1.000  N
  N36      1.0000 0.68800  0.92410  0.53280  Biso   1.000  N
  C117     1.0000 0.77680  0.33480  0.41320  Biso   1.000  C
  C118     1.0000 0.27680  0.16520  0.41320  Biso   1.000  C
  C119     1.0000 0.22320  0.66520  0.58680  Biso   1.000  C
  C120     1.0000 0.72320  0.83480  0.58680  Biso   1.000  C
  H137     1.0000 0.72310  0.31520  0.40840  Biso   1.000  H
  H138     1.0000 0.22310  0.18480  0.40840  Biso   1.000  H
  H139     1.0000 0.27690  0.68480  0.59160  Biso   1.000  H
  H140     1.0000 0.77690  0.81520  0.59160  Biso   1.000  H
  H141     1.0000 0.77610  0.37780  0.37650  Biso   1.000  H
  H142     1.0000 0.27610  0.12220  0.37650  Biso   1.000  H
  H143     1.0000 0.22390  0.62220  0.62350  Biso   1.000  H
  H144     1.0000 0.72390  0.87780  0.62350  Biso   1.000  H
  C121     1.0000 0.82020  0.21780  0.42070  Biso   1.000  C
  C122     1.0000 0.32020  0.28220  0.42070  Biso   1.000  C
  C123     1.0000 0.17980  0.78220  0.57930  Biso   1.000  C
  C124     1.0000 0.67980  0.71780  0.57930  Biso   1.000  C
  C125     1.0000 0.81800  0.14620  0.37010  Biso   1.000  C
  C126     1.0000 0.31800  0.35380  0.37010  Biso   1.000  C
  C127     1.0000 0.18200  0.85380  0.62990  Biso   1.000  C
  C128     1.0000 0.68200  0.64620  0.62990  Biso   1.000  C
  H145     1.0000 0.79120  0.17630  0.33070  Biso   1.000  H
  H146     1.0000 0.29120  0.32370  0.33070  Biso   1.000  H
  H147     1.0000 0.20880  0.82370  0.66930  Biso   1.000  H
  H148     1.0000 0.70880  0.67630  0.66930  Biso   1.000  H
  C129     1.0000 0.85560  0.03200  0.37960  Biso   1.000  C
  C130     1.0000 0.35560  0.46800  0.37960  Biso   1.000  C
  C131     1.0000 0.14440  0.96800  0.62040  Biso   1.000  C
  C132     1.0000 0.64440  0.53200  0.62040  Biso   1.000  C
  H149     1.0000 0.85370  0.98080  0.34670  Biso   1.000  H
  H150     1.0000 0.35370  0.51920  0.34670  Biso   1.000  H
  H151     1.0000 0.14630  0.01920  0.65330  Biso   1.000  H
  H152     1.0000 0.64630  0.48080  0.65330  Biso   1.000  H
  C133     1.0000 0.89560  0.99350  0.43620  Biso   1.000  C
  C134     1.0000 0.39560  0.50650  0.43620  Biso   1.000  C
  C135     1.0000 0.10440  0.00650  0.56380  Biso   1.000  C
  C136     1.0000 0.60440  0.49350  0.56380  Biso   1.000  C
  H153     1.0000 0.92290  0.91600  0.44330  Biso   1.000  H
  H154     1.0000 0.42290  0.58400  0.44330  Biso   1.000  H
  H155     1.0000 0.07710  0.08400  0.55670  Biso   1.000  H
  H156     1.0000 0.57710  0.41600  0.55670  Biso   1.000  H
  C137     1.0000 0.89600  0.06790  0.48320  Biso   1.000  C
  C138     1.0000 0.39600  0.43210  0.48320  Biso   1.000  C
  C139     1.0000 0.10400  0.93210  0.51680  Biso   1.000  C
  C140     1.0000 0.60400  0.56790  0.51680  Biso   1.000  C
  H157     1.0000 0.92370  0.03960  0.52270  Biso   1.000  H
  H158     1.0000 0.42370  0.46040  0.52270  Biso   1.000  H
  H159     1.0000 0.07630  0.96040  0.47730  Biso   1.000  H
  H160     1.0000 0.57630  0.53960  0.47730  Biso   1.000  H
  N37      1.0000 0.85860  0.17970  0.47540  Biso   1.000  N
  N38      1.0000 0.35860  0.32030  0.47540  Biso   1.000  N
  N39      1.0000 0.14140  0.82030  0.52460  Biso   1.000  N
  N40      1.0000 0.64140  0.67970  0.52460  Biso   1.000  N
  C141     1.0000 0.87870  0.48180  0.46780  Biso   1.000  C
  C142     1.0000 0.37870  0.01820  0.46780  Biso   1.000  C
  C143     1.0000 0.12130  0.51820  0.53220  Biso   1.000  C
  C144     1.0000 0.62130  0.98180  0.53220  Biso   1.000  C
  H161     1.0000 0.91310  0.41780  0.46080  Biso   1.000  H
  H162     1.0000 0.41310  0.08220  0.46080  Biso   1.000  H
  H163     1.0000 0.08690  0.58220  0.53920  Biso   1.000  H
  H164     1.0000 0.58690  0.91780  0.53920  Biso   1.000  H
  H165     1.0000 0.90580  0.52000  0.50750  Biso   1.000  H
  H166     1.0000 0.40580  0.98000  0.50750  Biso   1.000  H
  H167     1.0000 0.09420  0.48000  0.49250  Biso   1.000  H
  H168     1.0000 0.59420  0.02000  0.49250  Biso   1.000  H
  N41      1.0000 0.86180  0.57760  0.42260  Biso   1.000  N
  N42      1.0000 0.36180  0.92240  0.42260  Biso   1.000  N
  N43      1.0000 0.13820  0.42240  0.57740  Biso   1.000  N
  N44      1.0000 0.63820  0.07760  0.57740  Biso   1.000  N
  C145     1.0000 0.92940  0.63450  0.41590  Biso   1.000  C
  C146     1.0000 0.42940  0.86550  0.41590  Biso   1.000  C
  C147     1.0000 0.07060  0.36550  0.58410  Biso   1.000  C
  C148     1.0000 0.57060  0.13450  0.58410  Biso   1.000  C
  H169     1.0000 0.96600  0.56550  0.41810  Biso   1.000  H
  H170     1.0000 0.46600  0.93450  0.41810  Biso   1.000  H
  H171     1.0000 0.03400  0.43450  0.58190  Biso   1.000  H
  H172     1.0000 0.53400  0.06550  0.58190  Biso   1.000  H
  H173     1.0000 0.95400  0.68910  0.45110  Biso   1.000  H
  H174     1.0000 0.45400  0.81090  0.45110  Biso   1.000  H
  H175     1.0000 0.04600  0.31090  0.54890  Biso   1.000  H
  H176     1.0000 0.54600  0.18910  0.54890  Biso   1.000  H
  C149     1.0000 0.92130  0.71160  0.36130  Biso   1.000  C
  C150     1.0000 0.42130  0.78840  0.36130  Biso   1.000  C
  C151     1.0000 0.07870  0.28840  0.63870  Biso   1.000  C
  C152     1.0000 0.57870  0.21160  0.63870  Biso   1.000  C
  C153     1.0000 0.86380  0.69500  0.30790  Biso   1.000  C
  C154     1.0000 0.36380  0.80500  0.30790  Biso   1.000  C
  C155     1.0000 0.13620  0.30500  0.69210  Biso   1.000  C
  C156     1.0000 0.63620  0.19500  0.69210  Biso   1.000  C
  H177     1.0000 0.82800  0.62850  0.30430  Biso   1.000  H
  H178     1.0000 0.32800  0.87150  0.30430  Biso   1.000  H
  H179     1.0000 0.17200  0.37150  0.69570  Biso   1.000  H
  H180     1.0000 0.67200  0.12850  0.69570  Biso   1.000  H
  C157     1.0000 0.85430  0.77000  0.25710  Biso   1.000  C
  C158     1.0000 0.35430  0.73000  0.25710  Biso   1.000  C
  C159     1.0000 0.14570  0.23000  0.74290  Biso   1.000  C
  C160     1.0000 0.64570  0.27000  0.74290  Biso   1.000  C
  H181     1.0000 0.81000  0.76750  0.22150  Biso   1.000  H
  H182     1.0000 0.31000  0.73250  0.22150  Biso   1.000  H
  H183     1.0000 0.19000  0.23250  0.77850  Biso   1.000  H
  H184     1.0000 0.69000  0.26750  0.77850  Biso   1.000  H
  C161     1.0000 0.91380  0.84600  0.26450  Biso   1.000  C
  C162     1.0000 0.41380  0.65400  0.26450  Biso   1.000  C
  C163     1.0000 0.08620  0.15400  0.73550  Biso   1.000  C
  C164     1.0000 0.58620  0.34600  0.73550  Biso   1.000  C
  H185     1.0000 0.91800  0.88500  0.23030  Biso   1.000  H
  H186     1.0000 0.41800  0.61500  0.23030  Biso   1.000  H
  H187     1.0000 0.08200  0.11500  0.76970  Biso   1.000  H
  H188     1.0000 0.58200  0.38500  0.76970  Biso   1.000  H
  C165     1.0000 0.96240  0.86740  0.31230  Biso   1.000  C
  C166     1.0000 0.46240  0.63260  0.31230  Biso   1.000  C
  C167     1.0000 0.03760  0.13260  0.68770  Biso   1.000  C
  C168     1.0000 0.53760  0.36740  0.68770  Biso   1.000  C
  H189     1.0000 0.99700  0.93490  0.31530  Biso   1.000  H
  H190     1.0000 0.49700  0.56510  0.31530  Biso   1.000  H
  H191     1.0000 0.00300  0.06510  0.68470  Biso   1.000  H
  H192     1.0000 0.50300  0.43490  0.68470  Biso   1.000  H
  N45      1.0000 0.97140  0.79510  0.36650  Biso   1.000  N
  N46      1.0000 0.47140  0.70490  0.36650  Biso   1.000  N
  N47      1.0000 0.02860  0.20490  0.63350  Biso   1.000  N
  N48      1.0000 0.52860  0.29510  0.63350  Biso   1.000  N
  B1       1.0000 0.14360  0.74300  0.11040  Biso   1.000  B
  B2       1.0000 0.64360  0.75700  0.11040  Biso   1.000  B
  B3       1.0000 0.85640  0.25700  0.88960  Biso   1.000  B
  B4       1.0000 0.35640  0.24300  0.88960  Biso   1.000  B
  F1       1.0000 0.18610  0.81070  0.09030  Biso   1.000  F
  F2       1.0000 0.68610  0.68930  0.09030  Biso   1.000  F
  F3       1.0000 0.81390  0.18930  0.90970  Biso   1.000  F
  F4       1.0000 0.31390  0.31070  0.90970  Biso   1.000  F
  F5       1.0000 0.07640  0.74700  0.05840  Biso   1.000  F
  F6       1.0000 0.57640  0.75300  0.05840  Biso   1.000  F
  F7       1.0000 0.92360  0.25300  0.94160  Biso   1.000  F
  F8       1.0000 0.42360  0.24700  0.94160  Biso   1.000  F
  F9       1.0000 0.16250  0.63150  0.12580  Biso   1.000  F
  F10      1.0000 0.66250  0.86850  0.12580  Biso   1.000  F
  F11      1.0000 0.83750  0.36850  0.87420  Biso   1.000  F
  F12      1.0000 0.33750  0.13150  0.87420  Biso   1.000  F
  F13      1.0000 0.12890  0.82020  0.15350  Biso   1.000  F
  F14      1.0000 0.62890  0.67980  0.15350  Biso   1.000  F
  F15      1.0000 0.87110  0.17980  0.84650  Biso   1.000  F
  F16      1.0000 0.37110  0.32020  0.84650  Biso   1.000  F
  B5       1.0000 0.04330  0.24100  0.39230  Biso   1.000  B
  B6       1.0000 0.54330  0.25900  0.39230  Biso   1.000  B
  B7       1.0000 0.95670  0.75900  0.60770  Biso   1.000  B
  B8       1.0000 0.45670  0.74100  0.60770  Biso   1.000  B
  F17      1.0000 0.01750  0.26060  0.43860  Biso   1.000  F
  F18      1.0000 0.51750  0.23940  0.43860  Biso   1.000  F
  F19      1.0000 0.98250  0.73940  0.56140  Biso   1.000  F
  F20      1.0000 0.48250  0.76060  0.56140  Biso   1.000  F
  F21      1.0000 0.99040  0.27200  0.34490  Biso   1.000  F
  F22      1.0000 0.49040  0.22800  0.34490  Biso   1.000  F
  F23      1.0000 0.00960  0.72800  0.65510  Biso   1.000  F
  F24      1.0000 0.50960  0.77200  0.65510  Biso   1.000  F
  F25      1.0000 0.11180  0.29690  0.40130  Biso   1.000  F
  F26      1.0000 0.61180  0.20310  0.40130  Biso   1.000  F
  F27      1.0000 0.88820  0.70310  0.59870  Biso   1.000  F
  F28      1.0000 0.38820  0.79690  0.59870  Biso   1.000  F
  F29      1.0000 0.05380  0.12290  0.39240  Biso   1.000  F
  F30      1.0000 0.55380  0.37710  0.39240  Biso   1.000  F
  F31      1.0000 0.94620  0.87710  0.60760  Biso   1.000  F
  F32      1.0000 0.44620  0.62290  0.60760  Biso   1.000  F
