data_image0
_cell_length_a       15.4671
_cell_length_b       17.5861
_cell_length_c       23.0647
_cell_angle_alpha    74.827
_cell_angle_beta     89.224
_cell_angle_gamma    81.079

_symmetry_space_group_name_H-M    "P 1"
_symmetry_int_tables_number       1

loop_
  _symmetry_equiv_pos_as_xyz
  'x, y, z'

loop_
  _atom_site_label
  _atom_site_occupancy
  _atom_site_fract_x
  _atom_site_fract_y
  _atom_site_fract_z
  _atom_site_thermal_displace_type
  _atom_site_B_iso_or_equiv
  _atom_site_type_symbol
  W1       1.0000 0.76011  0.82362  0.00204  Biso   1.000  W
  W2       1.0000 0.23989  0.17638  0.99796  Biso   1.000  W
  W3       1.0000 0.89639  0.92852  0.90976  Biso   1.000  W
  W4       1.0000 0.10361  0.07148  0.09024  Biso   1.000  W
  W5       1.0000 0.69182  0.01678  0.92581  Biso   1.000  W
  W6       1.0000 0.30818  0.98322  0.07419  Biso   1.000  W
  W7       1.0000 0.79416  0.66718  0.91844  Biso   1.000  W
  W8       1.0000 0.20584  0.33282  0.08156  Biso   1.000  W
  W9       1.0000 0.93137  0.77238  0.82611  Biso   1.000  W
  W10      1.0000 0.06863  0.22762  0.17389  Biso   1.000  W
  W11      1.0000 0.85642  0.98194  0.74371  Biso   1.000  W
  W12      1.0000 0.14358  0.01806  0.25629  Biso   1.000  W
  W13      1.0000 0.64943  0.06725  0.76054  Biso   1.000  W
  W14      1.0000 0.35057  0.93275  0.23946  Biso   1.000  W
  W15      1.0000 0.50339  0.95370  0.86338  Biso   1.000  W
  W16      1.0000 0.49661  0.04630  0.13662  Biso   1.000  W
  W17      1.0000 0.56873  0.76243  0.93825  Biso   1.000  W
  W18      1.0000 0.43127  0.23757  0.06175  Biso   1.000  W
  W19      1.0000 0.71696  0.59988  0.78936  Biso   1.000  W
  W20      1.0000 0.28304  0.40012  0.21064  Biso   1.000  W
  W21      1.0000 0.85316  0.70314  0.69783  Biso   1.000  W
  W22      1.0000 0.14684  0.29686  0.30217  Biso   1.000  W
  W23      1.0000 0.77510  0.91361  0.61563  Biso   1.000  W
  W24      1.0000 0.22490  0.08639  0.38437  Biso   1.000  W
  W25      1.0000 0.57119  0.99928  0.63257  Biso   1.000  W
  W26      1.0000 0.42881  0.00072  0.36743  Biso   1.000  W
  W27      1.0000 0.42195  0.88721  0.73616  Biso   1.000  W
  W28      1.0000 0.57805  0.11279  0.26384  Biso   1.000  W
  W29      1.0000 0.49012  0.69376  0.80979  Biso   1.000  W
  W30      1.0000 0.50988  0.30624  0.19021  Biso   1.000  W
  W31      1.0000 0.54963  0.64369  0.66556  Biso   1.000  W
  W32      1.0000 0.45037  0.35631  0.33444  Biso   1.000  W
  W33      1.0000 0.68702  0.74852  0.57352  Biso   1.000  W
  W34      1.0000 0.31298  0.25148  0.42648  Biso   1.000  W
  W35      1.0000 0.47948  0.83588  0.59196  Biso   1.000  W
  W36      1.0000 0.52052  0.16412  0.40804  Biso   1.000  W
  As1      1.0000 0.71824  0.86892  0.84352  Biso   1.000  As
  As2      1.0000 0.28176  0.13108  0.15648  Biso   1.000  As
  As3      1.0000 0.63591  0.79823  0.71180  Biso   1.000  As
  As4      1.0000 0.36409  0.20177  0.28820  Biso   1.000  As
  O1       1.0000 0.77130  0.78140  0.07880  Biso   1.000  O
  O2       1.0000 0.22870  0.21860  0.92120  Biso   1.000  O
  O3       1.0000 0.87130  0.86100  0.98680  Biso   1.000  O
  O4       1.0000 0.12870  0.13900  0.01320  Biso   1.000  O
  O5       1.0000 0.99480  0.95160  0.92660  Biso   1.000  O
  O6       1.0000 0.00520  0.04840  0.07340  Biso   1.000  O
  O7       1.0000 0.70930  0.93090  0.00030  Biso   1.000  O
  O8       1.0000 0.29070  0.06910  0.99970  Biso   1.000  O
  O9       1.0000 0.81450  0.01540  0.92730  Biso   1.000  O
  O10      1.0000 0.18550  0.98460  0.07270  Biso   1.000  O
  O11      1.0000 0.65710  0.09680  0.95460  Biso   1.000  O
  O12      1.0000 0.34290  0.90320  0.04540  Biso   1.000  O
  O13      1.0000 0.80420  0.73850  0.96960  Biso   1.000  O
  O14      1.0000 0.19580  0.26150  0.03040  Biso   1.000  O
  O15      1.0000 0.93120  0.83300  0.88390  Biso   1.000  O
  O16      1.0000 0.06880  0.16700  0.11610  Biso   1.000  O
  O17      1.0000 0.64860  0.80430  0.98330  Biso   1.000  O
  O18      1.0000 0.35140  0.19570  0.01670  Biso   1.000  O
  O19      1.0000 0.75390  0.89990  0.90140  Biso   1.000  O
  O20      1.0000 0.24610  0.10010  0.09860  Biso   1.000  O
  O21      1.0000 0.87940  0.98070  0.82710  Biso   1.000  O
  O22      1.0000 0.12060  0.01930  0.17290  Biso   1.000  O
  O23      1.0000 0.58790  0.98130  0.91380  Biso   1.000  O
  O24      1.0000 0.41210  0.01870  0.08620  Biso   1.000  O
  O25      1.0000 0.69050  0.06160  0.84190  Biso   1.000  O
  O26      1.0000 0.30950  0.93840  0.15810  Biso   1.000  O
  O27      1.0000 0.81970  0.58020  0.97420  Biso   1.000  O
  O28      1.0000 0.18030  0.41980  0.02580  Biso   1.000  O
  O29      1.0000 0.91240  0.68030  0.88970  Biso   1.000  O
  O30      1.0000 0.08760  0.31970  0.11030  Biso   1.000  O
  O31      1.0000 0.04260  0.75040  0.82270  Biso   1.000  O
  O32      1.0000 0.95740  0.24960  0.17730  Biso   1.000  O
  O33      1.0000 0.52880  0.70160  0.00060  Biso   1.000  O
  O34      1.0000 0.47120  0.29840  0.99940  Biso   1.000  O
  O35      1.0000 0.67290  0.69630  0.92480  Biso   1.000  O
  O36      1.0000 0.32710  0.30370  0.07520  Biso   1.000  O
  O37      1.0000 0.78370  0.78420  0.84290  Biso   1.000  O
  O38      1.0000 0.21630  0.21580  0.15710  Biso   1.000  O
  O39      1.0000 0.90410  0.87040  0.76810  Biso   1.000  O
  O40      1.0000 0.09590  0.12960  0.23190  Biso   1.000  O
  O41      1.0000 0.48880  0.85770  0.92640  Biso   1.000  O
  O42      1.0000 0.51120  0.14230  0.07360  Biso   1.000  O
  O43      1.0000 0.61560  0.85550  0.85700  Biso   1.000  O
  O44      1.0000 0.38440  0.14450  0.14300  Biso   1.000  O
  O45      1.0000 0.72720  0.94020  0.78000  Biso   1.000  O
  O46      1.0000 0.27280  0.05980  0.22000  Biso   1.000  O
  O47      1.0000 0.94400  0.02650  0.71490  Biso   1.000  O
  O48      1.0000 0.05600  0.97350  0.28510  Biso   1.000  O
  O49      1.0000 0.81350  0.96450  0.67120  Biso   1.000  O
  O50      1.0000 0.18650  0.03550  0.32880  Biso   1.000  O
  O51      1.0000 0.76930  0.07690  0.73480  Biso   1.000  O
  O52      1.0000 0.23070  0.92310  0.26520  Biso   1.000  O
  O53      1.0000 0.60760  0.16810  0.73960  Biso   1.000  O
  O54      1.0000 0.39240  0.83190  0.26040  Biso   1.000  O
  O55      1.0000 0.41410  0.02040  0.88040  Biso   1.000  O
  O56      1.0000 0.58590  0.97960  0.11960  Biso   1.000  O
  O57      1.0000 0.55560  0.02050  0.79690  Biso   1.000  O
  O58      1.0000 0.44440  0.97950  0.20310  Biso   1.000  O
  O59      1.0000 0.62150  0.04520  0.68740  Biso   1.000  O
  O60      1.0000 0.37850  0.95480  0.31260  Biso   1.000  O
  O61      1.0000 0.44440  0.91340  0.80750  Biso   1.000  O
  O62      1.0000 0.55560  0.08660  0.19250  Biso   1.000  O
  O63      1.0000 0.50860  0.73180  0.87760  Biso   1.000  O
  O64      1.0000 0.49140  0.26820  0.12240  Biso   1.000  O
  O65      1.0000 0.90400  0.71900  0.76740  Biso   1.000  O
  O66      1.0000 0.09600  0.28100  0.23260  Biso   1.000  O
  O67      1.0000 0.77440  0.62430  0.85330  Biso   1.000  O
  O68      1.0000 0.22560  0.37570  0.14670  Biso   1.000  O
  O69      1.0000 0.94900  0.66860  0.66750  Biso   1.000  O
  O70      1.0000 0.05100  0.33140  0.33250  Biso   1.000  O
  O71      1.0000 0.81990  0.60360  0.74400  Biso   1.000  O
  O72      1.0000 0.18010  0.39640  0.25600  Biso   1.000  O
  O73      1.0000 0.72740  0.49960  0.82010  Biso   1.000  O
  O74      1.0000 0.27260  0.50040  0.17990  Biso   1.000  O
  O75      1.0000 0.60690  0.63880  0.81840  Biso   1.000  O
  O76      1.0000 0.39310  0.36120  0.18160  Biso   1.000  O
  O77      1.0000 0.72230  0.73080  0.74440  Biso   1.000  O
  O78      1.0000 0.27770  0.26920  0.25560  Biso   1.000  O
  O79      1.0000 0.83680  0.81470  0.66150  Biso   1.000  O
  O80      1.0000 0.16320  0.18530  0.33850  Biso   1.000  O
  O81      1.0000 0.84420  0.94450  0.55770  Biso   1.000  O
  O82      1.0000 0.15580  0.05550  0.44230  Biso   1.000  O
  O83      1.0000 0.66310  0.88830  0.68230  Biso   1.000  O
  O84      1.0000 0.33690  0.11170  0.31770  Biso   1.000  O
  O85      1.0000 0.67500  0.99620  0.58760  Biso   1.000  O
  O86      1.0000 0.32500  0.00380  0.41240  Biso   1.000  O
  O87      1.0000 0.55280  0.80140  0.75930  Biso   1.000  O
  O88      1.0000 0.44720  0.19860  0.24070  Biso   1.000  O
  O89      1.0000 0.39830  0.78300  0.78190  Biso   1.000  O
  O90      1.0000 0.60170  0.21700  0.21810  Biso   1.000  O
  O91      1.0000 0.50960  0.08670  0.58750  Biso   1.000  O
  O92      1.0000 0.49040  0.91330  0.41250  Biso   1.000  O
  O93      1.0000 0.31600  0.93730  0.72400  Biso   1.000  O
  O94      1.0000 0.68400  0.06270  0.27600  Biso   1.000  O
  O95      1.0000 0.64750  0.60500  0.71810  Biso   1.000  O
  O96      1.0000 0.35250  0.39500  0.28190  Biso   1.000  O
  O97      1.0000 0.49330  0.67090  0.73150  Biso   1.000  O
  O98      1.0000 0.50670  0.32910  0.26850  Biso   1.000  O
  O99      1.0000 0.60030  0.76750  0.65300  Biso   1.000  O
  O100     1.0000 0.39970  0.23250  0.34700  Biso   1.000  O
  O101     1.0000 0.71690  0.84640  0.57580  Biso   1.000  O
  O102     1.0000 0.28310  0.15360  0.42420  Biso   1.000  O
  O103     1.0000 0.42780  0.84610  0.66480  Biso   1.000  O
  O104     1.0000 0.57220  0.15390  0.33520  Biso   1.000  O
  O105     1.0000 0.53320  0.92650  0.58990  Biso   1.000  O
  O106     1.0000 0.46680  0.07350  0.41010  Biso   1.000  O
  O107     1.0000 0.49040  0.96210  0.69270  Biso   1.000  O
  O108     1.0000 0.50960  0.03790  0.30730  Biso   1.000  O
  O109     1.0000 0.50710  0.55890  0.66270  Biso   1.000  O
  O110     1.0000 0.49290  0.44110  0.33730  Biso   1.000  O
  O111     1.0000 0.62730  0.65410  0.60060  Biso   1.000  O
  O112     1.0000 0.37270  0.34590  0.39940  Biso   1.000  O
  O113     1.0000 0.42940  0.61940  0.84280  Biso   1.000  O
  O114     1.0000 0.57060  0.38060  0.15720  Biso   1.000  O
  O115     1.0000 0.57020  0.80620  0.54100  Biso   1.000  O
  O116     1.0000 0.42980  0.19380  0.45900  Biso   1.000  O
  O117     1.0000 0.39340  0.87420  0.54170  Biso   1.000  O
  O118     1.0000 0.60660  0.12580  0.45830  Biso   1.000  O
  O119     1.0000 0.73340  0.73430  0.51010  Biso   1.000  O
  O120     1.0000 0.26660  0.26570  0.48990  Biso   1.000  O
  O121     1.0000 0.77350  0.69890  0.63330  Biso   1.000  O
  O122     1.0000 0.22650  0.30110  0.36670  Biso   1.000  O
  O123     1.0000 0.46540  0.72410  0.61260  Biso   1.000  O
  O124     1.0000 0.53460  0.27590  0.38740  Biso   1.000  O
  Cu1      1.0000 0.03230  0.58716  0.93438  Biso   1.000  Cu
  Cu2      1.0000 0.96770  0.41284  0.06562  Biso   1.000  Cu
  Cu3      1.0000 0.57800  0.30040  0.69962  Biso   1.000  Cu
  Cu4      1.0000 0.42200  0.69960  0.30038  Biso   1.000  Cu
  Cu5      1.0000 0.80640  0.20583  0.68454  Biso   1.000  Cu
  Cu6      1.0000 0.19360  0.79417  0.31546  Biso   1.000  Cu
  Cu7      1.0000 0.22690  0.75970  0.80961  Biso   1.000  Cu
  Cu8      1.0000 0.77310  0.24030  0.19039  Biso   1.000  Cu
  Cu9      1.0000 0.16720  0.96620  0.74136  Biso   1.000  Cu
  Cu10     1.0000 0.83280  0.03380  0.25864  Biso   1.000  Cu
  Cu11     1.0000 0.36290  0.50390  0.89527  Biso   1.000  Cu
  Cu12     1.0000 0.63710  0.49610  0.10473  Biso   1.000  Cu
  Cu13     1.0000 0.34500  0.11200  0.59926  Biso   1.000  Cu
  Cu14     1.0000 0.65500  0.88800  0.40074  Biso   1.000  Cu
  Cu15     1.0000 0.92560  0.79660  0.36630  Biso   1.000  Cu
  Cu16     1.0000 0.07440  0.20340  0.63370  Biso   1.000  Cu
  N1       1.0000 0.59470  0.32780  0.77270  Biso   1.000  N
  N2       1.0000 0.40530  0.67220  0.22730  Biso   1.000  N
  C1       1.0000 0.62510  0.27190  0.82580  Biso   1.000  C
  C2       1.0000 0.37490  0.72810  0.17420  Biso   1.000  C
  H1       1.0000 0.64290  0.21880  0.82600  Biso   1.000  H
  H2       1.0000 0.35710  0.78120  0.17400  Biso   1.000  H
  C3       1.0000 0.62890  0.29520  0.87870  Biso   1.000  C
  C4       1.0000 0.37110  0.70480  0.12130  Biso   1.000  C
  H3       1.0000 0.64920  0.25780  0.91420  Biso   1.000  H
  H4       1.0000 0.35080  0.74220  0.08580  Biso   1.000  H
  C5       1.0000 0.60220  0.37450  0.87840  Biso   1.000  C
  C6       1.0000 0.39780  0.62550  0.12160  Biso   1.000  C
  C7       1.0000 0.57180  0.43050  0.82530  Biso   1.000  C
  C8       1.0000 0.42820  0.56950  0.17470  Biso   1.000  C
  H5       1.0000 0.55400  0.48350  0.82510  Biso   1.000  H
  H6       1.0000 0.44600  0.51650  0.17490  Biso   1.000  H
  C9       1.0000 0.56800  0.40710  0.77240  Biso   1.000  C
  C10      1.0000 0.43200  0.59290  0.22760  Biso   1.000  C
  H7       1.0000 0.54770  0.44450  0.73690  Biso   1.000  H
  H8       1.0000 0.45230  0.55550  0.26310  Biso   1.000  H
  N3       1.0000 0.16530  0.76870  0.24540  Biso   1.000  N
  N4       1.0000 0.83470  0.23130  0.75460  Biso   1.000  N
  C11      1.0000 0.13950  0.82510  0.19160  Biso   1.000  C
  C12      1.0000 0.86050  0.17490  0.80840  Biso   1.000  C
  H9       1.0000 0.13540  0.87920  0.18920  Biso   1.000  H
  H10      1.0000 0.86460  0.12080  0.81080  Biso   1.000  H
  C13      1.0000 0.11980  0.80080  0.14130  Biso   1.000  C
  C14      1.0000 0.88020  0.19920  0.85870  Biso   1.000  C
  H11      1.0000 0.10250  0.83850  0.10530  Biso   1.000  H
  H12      1.0000 0.89750  0.16150  0.89470  Biso   1.000  H
  C15      1.0000 0.12580  0.72000  0.14490  Biso   1.000  C
  C16      1.0000 0.87420  0.28000  0.85510  Biso   1.000  C
  C17      1.0000 0.15160  0.66350  0.19870  Biso   1.000  C
  C18      1.0000 0.84840  0.33650  0.80130  Biso   1.000  C
  H13      1.0000 0.15570  0.60950  0.20110  Biso   1.000  H
  H14      1.0000 0.84430  0.39050  0.79890  Biso   1.000  H
  C19      1.0000 0.17140  0.68790  0.24900  Biso   1.000  C
  C20      1.0000 0.82860  0.31210  0.75100  Biso   1.000  C
  H15      1.0000 0.18860  0.65020  0.28510  Biso   1.000  H
  H16      1.0000 0.81140  0.34980  0.71490  Biso   1.000  H
  N5       1.0000 0.04170  0.51770  0.88290  Biso   1.000  N
  N6       1.0000 0.95830  0.48230  0.11710  Biso   1.000  N
  C21      1.0000 0.98770  0.53530  0.83200  Biso   1.000  C
  C22      1.0000 0.01230  0.46470  0.16800  Biso   1.000  C
  H17      1.0000 0.94440  0.58010  0.82380  Biso   1.000  H
  H18      1.0000 0.05560  0.41990  0.17620  Biso   1.000  H
  C23      1.0000 0.99820  0.48600  0.79330  Biso   1.000  C
  C24      1.0000 0.00180  0.51400  0.20670  Biso   1.000  C
  H19      1.0000 0.96210  0.49780  0.75920  Biso   1.000  H
  H20      1.0000 0.03790  0.50220  0.24080  Biso   1.000  H
  C25      1.0000 0.06280  0.41910  0.80550  Biso   1.000  C
  C26      1.0000 0.93720  0.58090  0.19450  Biso   1.000  C
  C27      1.0000 0.11690  0.40150  0.85650  Biso   1.000  C
  C28      1.0000 0.88310  0.59850  0.14350  Biso   1.000  C
  H21      1.0000 0.16020  0.35670  0.86470  Biso   1.000  H
  H22      1.0000 0.83980  0.64330  0.13530  Biso   1.000  H
  C29      1.0000 0.10640  0.45080  0.89520  Biso   1.000  C
  C30      1.0000 0.89360  0.54920  0.10480  Biso   1.000  C
  H23      1.0000 0.14250  0.43900  0.92930  Biso   1.000  H
  H24      1.0000 0.85750  0.56100  0.07070  Biso   1.000  H
  N7       1.0000 0.63660  0.46140  0.03405  Biso   1.000  N
  N8       1.0000 0.36340  0.53860  0.96595  Biso   1.000  N
  C31      1.0000 0.65950  0.38060  0.03765  Biso   1.000  C
  C32      1.0000 0.34050  0.61940  0.96235  Biso   1.000  C
  H25      1.0000 0.68160  0.34530  0.07370  Biso   1.000  H
  H26      1.0000 0.31840  0.65470  0.92630  Biso   1.000  H
  C33      1.0000 0.64950  0.35280  0.98743  Biso   1.000  C
  C34      1.0000 0.35050  0.64720  0.01257  Biso   1.000  C
  H27      1.0000 0.66490  0.29870  0.98980  Biso   1.000  H
  H28      1.0000 0.33510  0.70130  0.01020  Biso   1.000  H
  C35      1.0000 0.61660  0.40560  0.93359  Biso   1.000  C
  C36      1.0000 0.38340  0.59440  0.06641  Biso   1.000  C
  C37      1.0000 0.59360  0.48640  0.92998  Biso   1.000  C
  C38      1.0000 0.40640  0.51360  0.07002  Biso   1.000  C
  H29      1.0000 0.57150  0.52170  0.89400  Biso   1.000  H
  H30      1.0000 0.42850  0.47830  0.10600  Biso   1.000  H
  C39      1.0000 0.60360  0.51430  0.98021  Biso   1.000  C
  C40      1.0000 0.39640  0.48570  0.01979  Biso   1.000  C
  H31      1.0000 0.58820  0.56830  0.97780  Biso   1.000  H
  H32      1.0000 0.41180  0.43170  0.02220  Biso   1.000  H
  C41      1.0000 0.35140  0.33650  0.76940  Biso   1.000  C
  C42      1.0000 0.64860  0.66350  0.23060  Biso   1.000  C
  C43      1.0000 0.35850  0.30640  0.83150  Biso   1.000  C
  C44      1.0000 0.64150  0.69360  0.16850  Biso   1.000  C
  H33      1.0000 0.36170  0.25190  0.84870  Biso   1.000  H
  H34      1.0000 0.63830  0.74810  0.15130  Biso   1.000  H
  C45      1.0000 0.36070  0.35780  0.86790  Biso   1.000  C
  C46      1.0000 0.63930  0.64220  0.13210  Biso   1.000  C
  H35      1.0000 0.36540  0.33770  0.90950  Biso   1.000  H
  H36      1.0000 0.63460  0.66230  0.09050  Biso   1.000  H
  N9       1.0000 0.35590  0.43920  0.84225  Biso   1.000  N
  N10      1.0000 0.64410  0.56080  0.15775  Biso   1.000  N
  C47      1.0000 0.34890  0.46930  0.78017  Biso   1.000  C
  C48      1.0000 0.65110  0.53070  0.21983  Biso   1.000  C
  H37      1.0000 0.34570  0.52380  0.76300  Biso   1.000  H
  H38      1.0000 0.65430  0.47620  0.23700  Biso   1.000  H
  C49      1.0000 0.34660  0.41790  0.74370  Biso   1.000  C
  C50      1.0000 0.65340  0.58210  0.25630  Biso   1.000  C
  H39      1.0000 0.34190  0.43800  0.70220  Biso   1.000  H
  H40      1.0000 0.65810  0.56200  0.29780  Biso   1.000  H
  N11      1.0000 0.34220  0.17910  0.65600  Biso   1.000  N
  N12      1.0000 0.65780  0.82090  0.34400  Biso   1.000  N
  C51      1.0000 0.30530  0.25890  0.63570  Biso   1.000  C
  C52      1.0000 0.69470  0.74110  0.36430  Biso   1.000  C
  H41      1.0000 0.27810  0.27800  0.59780  Biso   1.000  H
  H42      1.0000 0.72190  0.72200  0.40220  Biso   1.000  H
  C53      1.0000 0.30890  0.31030  0.67200  Biso   1.000  C
  C54      1.0000 0.69110  0.68970  0.32800  Biso   1.000  C
  H43      1.0000 0.28410  0.36370  0.65840  Biso   1.000  H
  H44      1.0000 0.71590  0.63630  0.34160  Biso   1.000  H
  C55      1.0000 0.34940  0.28180  0.72860  Biso   1.000  C
  C56      1.0000 0.65060  0.71820  0.27140  Biso   1.000  C
  C57      1.0000 0.38640  0.20190  0.74890  Biso   1.000  C
  C58      1.0000 0.61360  0.79810  0.25110  Biso   1.000  C
  H45      1.0000 0.41350  0.18290  0.78680  Biso   1.000  H
  H46      1.0000 0.58650  0.81710  0.21320  Biso   1.000  H
  C59      1.0000 0.38280  0.15060  0.71260  Biso   1.000  C
  C60      1.0000 0.61720  0.84940  0.28740  Biso   1.000  C
  H47      1.0000 0.40750  0.09720  0.72620  Biso   1.000  H
  H48      1.0000 0.59250  0.90280  0.27380  Biso   1.000  H
  C61      1.0000 0.08130  0.87420  0.58390  Biso   1.000  C
  C62      1.0000 0.91870  0.12580  0.41610  Biso   1.000  C
  C63      1.0000 0.15130  0.91640  0.57660  Biso   1.000  C
  C64      1.0000 0.84870  0.08360  0.42340  Biso   1.000  C
  H49      1.0000 0.17820  0.92850  0.53970  Biso   1.000  H
  H50      1.0000 0.82180  0.07150  0.46030  Biso   1.000  H
  C65      1.0000 0.18130  0.94060  0.62440  Biso   1.000  C
  C66      1.0000 0.81870  0.05940  0.37560  Biso   1.000  C
  H51      1.0000 0.22810  0.96880  0.61950  Biso   1.000  H
  H52      1.0000 0.77190  0.03120  0.38050  Biso   1.000  H
  N13      1.0000 0.14110  0.92260  0.67960  Biso   1.000  N
  N14      1.0000 0.85890  0.07740  0.32040  Biso   1.000  N
  C67      1.0000 0.07110  0.88040  0.68690  Biso   1.000  C
  C68      1.0000 0.92890  0.11960  0.31310  Biso   1.000  C
  H53      1.0000 0.04420  0.86830  0.72380  Biso   1.000  H
  H54      1.0000 0.95580  0.13170  0.27620  Biso   1.000  H
  C69      1.0000 0.04120  0.85620  0.63910  Biso   1.000  C
  C70      1.0000 0.95880  0.14380  0.36090  Biso   1.000  C
  H55      1.0000 0.99430  0.82800  0.64400  Biso   1.000  H
  H56      1.0000 0.00570  0.17200  0.35600  Biso   1.000  H
  N15      1.0000 0.96040  0.83160  0.42940  Biso   1.000  N
  N16      1.0000 0.03960  0.16840  0.57060  Biso   1.000  N
  C71      1.0000 0.00890  0.89370  0.42130  Biso   1.000  C
  C72      1.0000 0.99110  0.10630  0.57870  Biso   1.000  C
  H57      1.0000 0.01560  0.92560  0.38290  Biso   1.000  H
  H58      1.0000 0.98440  0.07440  0.61710  Biso   1.000  H
  C73      1.0000 0.04750  0.90800  0.47070  Biso   1.000  C
  C74      1.0000 0.95250  0.09200  0.52930  Biso   1.000  C
  H59      1.0000 0.08000  0.94950  0.46530  Biso   1.000  H
  H60      1.0000 0.92000  0.05050  0.53470  Biso   1.000  H
  C75      1.0000 0.03760  0.86040  0.52810  Biso   1.000  C
  C76      1.0000 0.96240  0.13960  0.47190  Biso   1.000  C
  C77      1.0000 0.98910  0.79830  0.53610  Biso   1.000  C
  C78      1.0000 0.01090  0.20170  0.46390  Biso   1.000  C
  H61      1.0000 0.98240  0.76640  0.57450  Biso   1.000  H
  H62      1.0000 0.01760  0.23360  0.42550  Biso   1.000  H
  C79      1.0000 0.95050  0.78400  0.48680  Biso   1.000  C
  C80      1.0000 0.04950  0.21600  0.51320  Biso   1.000  C
  H63      1.0000 0.91800  0.74250  0.49210  Biso   1.000  H
  H64      1.0000 0.08200  0.25750  0.50790  Biso   1.000  H
  C81      1.0000 0.21270  0.62500  0.66102  Biso   1.000  C
  C82      1.0000 0.78730  0.37500  0.33898  Biso   1.000  C
  C83      1.0000 0.27760  0.67160  0.66070  Biso   1.000  C
  C84      1.0000 0.72240  0.32840  0.33930  Biso   1.000  C
  H65      1.0000 0.31900  0.67600  0.63080  Biso   1.000  H
  H66      1.0000 0.68100  0.32400  0.36920  Biso   1.000  H
  C85      1.0000 0.28070  0.71170  0.70500  Biso   1.000  C
  C86      1.0000 0.71930  0.28830  0.29500  Biso   1.000  C
  H67      1.0000 0.32410  0.74290  0.70480  Biso   1.000  H
  H68      1.0000 0.67590  0.25710  0.29520  Biso   1.000  H
  N17      1.0000 0.21890  0.70510  0.74963  Biso   1.000  N
  N18      1.0000 0.78110  0.29490  0.25037  Biso   1.000  N
  C87      1.0000 0.15400  0.65850  0.75000  Biso   1.000  C
  C88      1.0000 0.84600  0.34150  0.25000  Biso   1.000  C
  H69      1.0000 0.11270  0.65410  0.77980  Biso   1.000  H
  H70      1.0000 0.88730  0.34590  0.22020  Biso   1.000  H
  C89      1.0000 0.15090  0.61840  0.70570  Biso   1.000  C
  C90      1.0000 0.84910  0.38160  0.29430  Biso   1.000  C
  H71      1.0000 0.10750  0.58720  0.70590  Biso   1.000  H
  H72      1.0000 0.89250  0.41280  0.29410  Biso   1.000  H
  C91      1.0000 0.12760  0.53290  0.54730  Biso   1.000  C
  C92      1.0000 0.87240  0.46710  0.45270  Biso   1.000  C
  H73      1.0000 0.07400  0.52650  0.53300  Biso   1.000  H
  H74      1.0000 0.92600  0.47350  0.46700  Biso   1.000  H
  N19      1.0000 0.20480  0.50490  0.52280  Biso   1.000  N
  N20      1.0000 0.79520  0.49510  0.47720  Biso   1.000  N
  C93      1.0000 0.28500  0.51440  0.54410  Biso   1.000  C
  C94      1.0000 0.71500  0.48560  0.45590  Biso   1.000  C
  H75      1.0000 0.33660  0.49570  0.52770  Biso   1.000  H
  H76      1.0000 0.66340  0.50430  0.47230  Biso   1.000  H
  C95      1.0000 0.28800  0.55190  0.58996  Biso   1.000  C
  C96      1.0000 0.71200  0.44810  0.41004  Biso   1.000  C
  H77      1.0000 0.34160  0.55830  0.60420  Biso   1.000  H
  H78      1.0000 0.65840  0.44170  0.39580  Biso   1.000  H
  C97      1.0000 0.21080  0.57990  0.61447  Biso   1.000  C
  C98      1.0000 0.78920  0.42010  0.38553  Biso   1.000  C
  C99      1.0000 0.13060  0.57040  0.59310  Biso   1.000  C
  C100     1.0000 0.86940  0.42960  0.40690  Biso   1.000  C
  H79      1.0000 0.07900  0.58910  0.60950  Biso   1.000  H
  H80      1.0000 0.92100  0.41090  0.39050  Biso   1.000  H
  C101     1.0000 0.10210  0.69240  0.09180  Biso   1.000  C
  C102     1.0000 0.89790  0.30760  0.90820  Biso   1.000  C
  C103     1.0000 0.03840  0.73100  0.05060  Biso   1.000  C
  C104     1.0000 0.96160  0.26900  0.94940  Biso   1.000  C
  H81      1.0000 0.00790  0.77980  0.05330  Biso   1.000  H
  H82      1.0000 0.99210  0.22020  0.94670  Biso   1.000  H
  C105     1.0000 0.14720  0.62570  0.08190  Biso   1.000  C
  C106     1.0000 0.85280  0.37430  0.91810  Biso   1.000  C
  H83      1.0000 0.19580  0.59890  0.10630  Biso   1.000  H
  H84      1.0000 0.80420  0.40110  0.89370  Biso   1.000  H
  C107     1.0000 0.12180  0.59670  0.03570  Biso   1.000  C
  C108     1.0000 0.87820  0.40330  0.96430  Biso   1.000  C
  H85      1.0000 0.15150  0.54800  0.03210  Biso   1.000  H
  H86      1.0000 0.84850  0.45200  0.96790  Biso   1.000  H
  C109     1.0000 0.01740  0.70020  0.00510  Biso   1.000  C
  C110     1.0000 0.98260  0.29980  0.99490  Biso   1.000  C
  H87      1.0000 0.97120  0.72850  0.97900  Biso   1.000  H
  H88      1.0000 0.02880  0.27150  0.02100  Biso   1.000  H
  C111     1.0000 0.07540  0.36300  0.76560  Biso   1.000  C
  C112     1.0000 0.92460  0.63700  0.23440  Biso   1.000  C
  C113     1.0000 0.04110  0.39690  0.70400  Biso   1.000  C
  C114     1.0000 0.95890  0.60310  0.29600  Biso   1.000  C
  H89      1.0000 0.01700  0.45030  0.68900  Biso   1.000  H
  H90      1.0000 0.98300  0.54970  0.31100  Biso   1.000  H
  N21      1.0000 0.05710  0.63450  0.99560  Biso   1.000  N
  N22      1.0000 0.94290  0.36550  0.00440  Biso   1.000  N
  C115     1.0000 0.11080  0.28480  0.78230  Biso   1.000  C
  C116     1.0000 0.88920  0.71520  0.21770  Biso   1.000  C
  H91      1.0000 0.13660  0.26240  0.82030  Biso   1.000  H
  H92      1.0000 0.86340  0.73760  0.17970  Biso   1.000  H
  C117     1.0000 0.10860  0.23950  0.74330  Biso   1.000  C
  C118     1.0000 0.89140  0.76050  0.25670  Biso   1.000  C
  H93      1.0000 0.12570  0.18480  0.75840  Biso   1.000  H
  H94      1.0000 0.87430  0.81520  0.24160  Biso   1.000  H
  N23      1.0000 0.08540  0.26440  0.68860  Biso   1.000  N
  N24      1.0000 0.91460  0.73560  0.31140  Biso   1.000  N
  C119     1.0000 0.04790  0.34090  0.66930  Biso   1.000  C
  C120     1.0000 0.95210  0.65910  0.33070  Biso   1.000  C
  H95      1.0000 0.02460  0.35840  0.63030  Biso   1.000  H
  H96      1.0000 0.97540  0.64160  0.36970  Biso   1.000  H
  C121     1.0000 0.30540  0.82310  0.89510  Biso   1.000  C
  C122     1.0000 0.69460  0.17690  0.10490  Biso   1.000  C
  H97      1.0000 0.36160  0.81400  0.88080  Biso   1.000  H
  H98      1.0000 0.63840  0.18600  0.11920  Biso   1.000  H
  N25      1.0000 0.22810  0.80670  0.87150  Biso   1.000  N
  N26      1.0000 0.77190  0.19330  0.12850  Biso   1.000  N
  C123     1.0000 0.15690  0.82930  0.90610  Biso   1.000  C
  C124     1.0000 0.84310  0.17070  0.09390  Biso   1.000  C
  H99      1.0000 0.09860  0.82500  0.90030  Biso   1.000  H
  H100     1.0000 0.90140  0.17500  0.09970  Biso   1.000  H
  C125     1.0000 0.19010  0.85960  0.95110  Biso   1.000  C
  C126     1.0000 0.80990  0.14040  0.04890  Biso   1.000  C
  H101     1.0000 0.15750  0.87870  0.97990  Biso   1.000  H
  H102     1.0000 0.84250  0.12130  0.02010  Biso   1.000  H
  N27      1.0000 0.28200  0.85580  0.94430  Biso   1.000  N
  N28      1.0000 0.71800  0.14420  0.05570  Biso   1.000  N
  H103     1.0000 0.31720  0.87070  0.96610  Biso   1.000  H
  H104     1.0000 0.68280  0.12930  0.03390  Biso   1.000  H
  C127     1.0000 0.09610  0.04630  0.83320  Biso   1.000  C
  C128     1.0000 0.90390  0.95370  0.16680  Biso   1.000  C
  H105     1.0000 0.03670  0.04910  0.82540  Biso   1.000  H
  H106     1.0000 0.96330  0.95090  0.17460  Biso   1.000  H
  C129     1.0000 0.13290  0.06940  0.88090  Biso   1.000  C
  C130     1.0000 0.86710  0.93060  0.11910  Biso   1.000  C
  H107     1.0000 0.10190  0.08990  0.90970  Biso   1.000  H
  H108     1.0000 0.89810  0.91010  0.09030  Biso   1.000  H
  N29      1.0000 0.22550  0.05570  0.87670  Biso   1.000  N
  N30      1.0000 0.77450  0.94430  0.12330  Biso   1.000  N
  H109     1.0000 0.26260  0.06490  0.90040  Biso   1.000  H
  H110     1.0000 0.73740  0.93510  0.09960  Biso   1.000  H
  C131     1.0000 0.24580  0.02420  0.82650  Biso   1.000  C
  C132     1.0000 0.75420  0.97580  0.17350  Biso   1.000  C
  H111     1.0000 0.30170  0.00990  0.81360  Biso   1.000  H
  H112     1.0000 0.69830  0.99010  0.18640  Biso   1.000  H
  N31      1.0000 0.16590  0.01840  0.79970  Biso   1.000  N
  N32      1.0000 0.83410  0.98160  0.20030  Biso   1.000  N
  N33      1.0000 0.77930  0.20800  0.60830  Biso   1.000  N
  N34      1.0000 0.22070  0.79200  0.39170  Biso   1.000  N
  C133     1.0000 0.74270  0.14480  0.59550  Biso   1.000  C
  C134     1.0000 0.25730  0.85520  0.40450  Biso   1.000  C
  H113     1.0000 0.73450  0.09760  0.62310  Biso   1.000  H
  H114     1.0000 0.26550  0.90240  0.37690  Biso   1.000  H
  N35      1.0000 0.72090  0.16620  0.53310  Biso   1.000  N
  N36      1.0000 0.27910  0.83380  0.46690  Biso   1.000  N
  H115     1.0000 0.69780  0.13780  0.51420  Biso   1.000  H
  H116     1.0000 0.30220  0.86220  0.48580  Biso   1.000  H
  C135     1.0000 0.74400  0.24270  0.50730  Biso   1.000  C
  C136     1.0000 0.25600  0.75730  0.49270  Biso   1.000  C
  H117     1.0000 0.73670  0.27100  0.46710  Biso   1.000  H
  H118     1.0000 0.26330  0.72900  0.53290  Biso   1.000  H
  C137     1.0000 0.78010  0.26860  0.55380  Biso   1.000  C
  C138     1.0000 0.21990  0.73140  0.44620  Biso   1.000  C
  H119     1.0000 0.80060  0.31670  0.54930  Biso   1.000  H
  H120     1.0000 0.19940  0.68330  0.45070  Biso   1.000  H
  N37      1.0000 0.54540  0.30860  0.62050  Biso   1.000  N
  N38      1.0000 0.45460  0.69140  0.37950  Biso   1.000  N
  C139     1.0000 0.53140  0.24190  0.60000  Biso   1.000  C
  C140     1.0000 0.46860  0.75810  0.40000  Biso   1.000  C
  H121     1.0000 0.54490  0.18860  0.62130  Biso   1.000  H
  H122     1.0000 0.45510  0.81140  0.37870  Biso   1.000  H
  N39      1.0000 0.49300  0.27090  0.54120  Biso   1.000  N
  N40      1.0000 0.50700  0.72910  0.45880  Biso   1.000  N
  H123     1.0000 0.47820  0.24220  0.51910  Biso   1.000  H
  H124     1.0000 0.52180  0.75780  0.48090  Biso   1.000  H
  C141     1.0000 0.48330  0.35550  0.52540  Biso   1.000  C
  C142     1.0000 0.51670  0.64450  0.47460  Biso   1.000  C
  H125     1.0000 0.45980  0.38960  0.48920  Biso   1.000  H
  H126     1.0000 0.54020  0.61040  0.51080  Biso   1.000  H
  C143     1.0000 0.51570  0.37880  0.57430  Biso   1.000  C
  C144     1.0000 0.48430  0.62120  0.42570  Biso   1.000  C
  H127     1.0000 0.51720  0.43080  0.57590  Biso   1.000  H
  H128     1.0000 0.48280  0.56920  0.42410  Biso   1.000  H
  O125     1.0000 0.53300  0.89400  0.04770  Biso   1.000  O
  O126     1.0000 0.46700  0.10600  0.95230  Biso   1.000  O
  O127     1.0000 0.82300  0.49800  0.65370  Biso   1.000  O
  O128     1.0000 0.17700  0.50200  0.34630  Biso   1.000  O
  O129     1.0000 0.34430  0.04840  0.53980  Biso   1.000  O
  O130     1.0000 0.65570  0.95160  0.46020  Biso   1.000  O
