data_image0
_cell_length_a       11.366
_cell_length_b       11.188
_cell_length_c       19.927
_cell_angle_alpha    90
_cell_angle_beta     90
_cell_angle_gamma    90

_symmetry_space_group_name_H-M    "P 1"
_symmetry_int_tables_number       1

loop_
  _symmetry_equiv_pos_as_xyz
  'x, y, z'

loop_
  _atom_site_label
  _atom_site_occupancy
  _atom_site_fract_x
  _atom_site_fract_y
  _atom_site_fract_z
  _atom_site_thermal_displace_type
  _atom_site_B_iso_or_equiv
  _atom_site_type_symbol
  Cu1      1.0000 0.12712  0.08788  0.68407  Biso   1.000  Cu
  Cu2      1.0000 0.37288  0.41212  0.18407  Biso   1.000  Cu
  Cu3      1.0000 0.87288  0.08788  0.81593  Biso   1.000  Cu
  Cu4      1.0000 0.62712  0.41212  0.31593  Biso   1.000  Cu
  Cu5      1.0000 0.87288  0.91212  0.31593  Biso   1.000  Cu
  Cu6      1.0000 0.62712  0.58788  0.81593  Biso   1.000  Cu
  Cu7      1.0000 0.12712  0.91212  0.18407  Biso   1.000  Cu
  Cu8      1.0000 0.37288  0.58788  0.68407  Biso   1.000  Cu
  Cl1      1.0000 0.09640  0.25670  0.63190  Biso   1.000  Cl
  Cl2      1.0000 0.40360  0.24330  0.13190  Biso   1.000  Cl
  Cl3      1.0000 0.90360  0.25670  0.86810  Biso   1.000  Cl
  Cl4      1.0000 0.59640  0.24330  0.36810  Biso   1.000  Cl
  Cl5      1.0000 0.90360  0.74330  0.36810  Biso   1.000  Cl
  Cl6      1.0000 0.59640  0.75670  0.86810  Biso   1.000  Cl
  Cl7      1.0000 0.09640  0.74330  0.13190  Biso   1.000  Cl
  Cl8      1.0000 0.40360  0.75670  0.63190  Biso   1.000  Cl
  C1       1.0000 0.19420  0.14040  0.82160  Biso   1.000  C
  C2       1.0000 0.30580  0.35960  0.32160  Biso   1.000  C
  C3       1.0000 0.80580  0.14040  0.67840  Biso   1.000  C
  C4       1.0000 0.69420  0.35960  0.17840  Biso   1.000  C
  C5       1.0000 0.80580  0.85960  0.17840  Biso   1.000  C
  C6       1.0000 0.69420  0.64040  0.67840  Biso   1.000  C
  C7       1.0000 0.19420  0.85960  0.32160  Biso   1.000  C
  C8       1.0000 0.30580  0.64040  0.82160  Biso   1.000  C
  H1       1.0000 0.13530  0.19770  0.81760  Biso   1.000  H
  H2       1.0000 0.36470  0.30230  0.31760  Biso   1.000  H
  H3       1.0000 0.86470  0.19770  0.68240  Biso   1.000  H
  H4       1.0000 0.63530  0.30230  0.18240  Biso   1.000  H
  H5       1.0000 0.86470  0.80230  0.18240  Biso   1.000  H
  H6       1.0000 0.63530  0.69770  0.68240  Biso   1.000  H
  H7       1.0000 0.13530  0.80230  0.31760  Biso   1.000  H
  H8       1.0000 0.36470  0.69770  0.81760  Biso   1.000  H
  C9       1.0000 0.25370  0.13380  0.88140  Biso   1.000  C
  C10      1.0000 0.24630  0.36620  0.38140  Biso   1.000  C
  C11      1.0000 0.74630  0.13380  0.61860  Biso   1.000  C
  C12      1.0000 0.75370  0.36620  0.11860  Biso   1.000  C
  C13      1.0000 0.74630  0.86620  0.11860  Biso   1.000  C
  C14      1.0000 0.75370  0.63380  0.61860  Biso   1.000  C
  C15      1.0000 0.25370  0.86620  0.38140  Biso   1.000  C
  C16      1.0000 0.24630  0.63380  0.88140  Biso   1.000  C
  H9       1.0000 0.23360  0.18460  0.91650  Biso   1.000  H
  H10      1.0000 0.26640  0.31540  0.41650  Biso   1.000  H
  H11      1.0000 0.76640  0.18460  0.58350  Biso   1.000  H
  H12      1.0000 0.73360  0.31540  0.08350  Biso   1.000  H
  H13      1.0000 0.76640  0.81540  0.08350  Biso   1.000  H
  H14      1.0000 0.73360  0.68460  0.58350  Biso   1.000  H
  H15      1.0000 0.23360  0.81540  0.41650  Biso   1.000  H
  H16      1.0000 0.26640  0.68460  0.91650  Biso   1.000  H
  C17      1.0000 0.34120  0.05390  0.88920  Biso   1.000  C
  C18      1.0000 0.15880  0.44610  0.38920  Biso   1.000  C
  C19      1.0000 0.65880  0.05390  0.61080  Biso   1.000  C
  C20      1.0000 0.84120  0.44610  0.11080  Biso   1.000  C
  C21      1.0000 0.65880  0.94610  0.11080  Biso   1.000  C
  C22      1.0000 0.84120  0.55390  0.61080  Biso   1.000  C
  C23      1.0000 0.34120  0.94610  0.38920  Biso   1.000  C
  C24      1.0000 0.15880  0.55390  0.88920  Biso   1.000  C
  C25      1.0000 0.36620  0.97990  0.83490  Biso   1.000  C
  C26      1.0000 0.13380  0.52010  0.33490  Biso   1.000  C
  C27      1.0000 0.63380  0.97990  0.66510  Biso   1.000  C
  C28      1.0000 0.86620  0.52010  0.16510  Biso   1.000  C
  C29      1.0000 0.63380  0.02010  0.16510  Biso   1.000  C
  C30      1.0000 0.86620  0.47990  0.66510  Biso   1.000  C
  C31      1.0000 0.36620  0.02010  0.33490  Biso   1.000  C
  C32      1.0000 0.13380  0.47990  0.83490  Biso   1.000  C
  H17      1.0000 0.42580  0.92330  0.83790  Biso   1.000  H
  H18      1.0000 0.07420  0.57670  0.33790  Biso   1.000  H
  H19      1.0000 0.57420  0.92330  0.66210  Biso   1.000  H
  H20      1.0000 0.92580  0.57670  0.16210  Biso   1.000  H
  H21      1.0000 0.57420  0.07670  0.16210  Biso   1.000  H
  H22      1.0000 0.92580  0.42330  0.66210  Biso   1.000  H
  H23      1.0000 0.42580  0.07670  0.33790  Biso   1.000  H
  H24      1.0000 0.07420  0.42330  0.83790  Biso   1.000  H
  C33      1.0000 0.30140  0.99130  0.77650  Biso   1.000  C
  C34      1.0000 0.19860  0.50870  0.27650  Biso   1.000  C
  C35      1.0000 0.69860  0.99130  0.72350  Biso   1.000  C
  C36      1.0000 0.80140  0.50870  0.22350  Biso   1.000  C
  C37      1.0000 0.69860  0.00870  0.22350  Biso   1.000  C
  C38      1.0000 0.80140  0.49130  0.72350  Biso   1.000  C
  C39      1.0000 0.30140  0.00870  0.27650  Biso   1.000  C
  C40      1.0000 0.19860  0.49130  0.77650  Biso   1.000  C
  H25      1.0000 0.31920  0.94140  0.74060  Biso   1.000  H
  H26      1.0000 0.18080  0.55860  0.24060  Biso   1.000  H
  H27      1.0000 0.68080  0.94140  0.75940  Biso   1.000  H
  H28      1.0000 0.81920  0.55860  0.25940  Biso   1.000  H
  H29      1.0000 0.68080  0.05860  0.25940  Biso   1.000  H
  H30      1.0000 0.81920  0.44140  0.75940  Biso   1.000  H
  H31      1.0000 0.31920  0.05860  0.24060  Biso   1.000  H
  H32      1.0000 0.18080  0.44140  0.74060  Biso   1.000  H
  C41      1.0000 0.41210  0.04560  0.95420  Biso   1.000  C
  C42      1.0000 0.08790  0.45440  0.45420  Biso   1.000  C
  C43      1.0000 0.58790  0.04560  0.54580  Biso   1.000  C
  C44      1.0000 0.91210  0.45440  0.04580  Biso   1.000  C
  C45      1.0000 0.58790  0.95440  0.04580  Biso   1.000  C
  C46      1.0000 0.91210  0.54560  0.54580  Biso   1.000  C
  C47      1.0000 0.41210  0.95440  0.45420  Biso   1.000  C
  C48      1.0000 0.08790  0.54560  0.95420  Biso   1.000  C
  C49      1.0000 0.40150  0.92270  0.98600  Biso   1.000  C
  C50      1.0000 0.09850  0.57730  0.48600  Biso   1.000  C
  C51      1.0000 0.59850  0.92270  0.51400  Biso   1.000  C
  C52      1.0000 0.90150  0.57730  0.01400  Biso   1.000  C
  C53      1.0000 0.59850  0.07730  0.01400  Biso   1.000  C
  C54      1.0000 0.90150  0.42270  0.51400  Biso   1.000  C
  C55      1.0000 0.40150  0.07730  0.48600  Biso   1.000  C
  C56      1.0000 0.09850  0.42270  0.98600  Biso   1.000  C
  H33      1.0000 0.43160  0.86320  0.95500  Biso   1.000  H
  H34      1.0000 0.06840  0.63680  0.45500  Biso   1.000  H
  H35      1.0000 0.56840  0.86320  0.54500  Biso   1.000  H
  H36      1.0000 0.93160  0.63680  0.04500  Biso   1.000  H
  H37      1.0000 0.56840  0.13680  0.04500  Biso   1.000  H
  H38      1.0000 0.93160  0.36320  0.54500  Biso   1.000  H
  H39      1.0000 0.43160  0.13680  0.45500  Biso   1.000  H
  H40      1.0000 0.06840  0.36320  0.95500  Biso   1.000  H
  H41      1.0000 0.31900  0.90520  0.99390  Biso   1.000  H
  H42      1.0000 0.18100  0.59480  0.49390  Biso   1.000  H
  H43      1.0000 0.68100  0.90520  0.50610  Biso   1.000  H
  H44      1.0000 0.81900  0.59480  0.00610  Biso   1.000  H
  H45      1.0000 0.68100  0.09480  0.00610  Biso   1.000  H
  H46      1.0000 0.81900  0.40520  0.50610  Biso   1.000  H
  H47      1.0000 0.31900  0.09480  0.49390  Biso   1.000  H
  H48      1.0000 0.18100  0.40520  0.99390  Biso   1.000  H
  C57      1.0000 0.53070  0.08670  0.94700  Biso   1.000  C
  C58      1.0000 0.96930  0.41330  0.44700  Biso   1.000  C
  C59      1.0000 0.46930  0.08670  0.55300  Biso   1.000  C
  C60      1.0000 0.03070  0.41330  0.05300  Biso   1.000  C
  C61      1.0000 0.46930  0.91330  0.05300  Biso   1.000  C
  C62      1.0000 0.03070  0.58670  0.55300  Biso   1.000  C
  C63      1.0000 0.53070  0.91330  0.44700  Biso   1.000  C
  C64      1.0000 0.96930  0.58670  0.94700  Biso   1.000  C
  C65      1.0000 0.59310  0.33000  0.82350  Biso   1.000  C
  C66      1.0000 0.90690  0.17000  0.32350  Biso   1.000  C
  C67      1.0000 0.40690  0.33000  0.67650  Biso   1.000  C
  C68      1.0000 0.09310  0.17000  0.17650  Biso   1.000  C
  C69      1.0000 0.40690  0.67000  0.17650  Biso   1.000  C
  C70      1.0000 0.09310  0.83000  0.67650  Biso   1.000  C
  C71      1.0000 0.59310  0.67000  0.32350  Biso   1.000  C
  C72      1.0000 0.90690  0.83000  0.82350  Biso   1.000  C
  H49      1.0000 0.61620  0.33360  0.77880  Biso   1.000  H
  H50      1.0000 0.88380  0.16640  0.27880  Biso   1.000  H
  H51      1.0000 0.38380  0.33360  0.72120  Biso   1.000  H
  H52      1.0000 0.11620  0.16640  0.22120  Biso   1.000  H
  H53      1.0000 0.38380  0.66640  0.22120  Biso   1.000  H
  H54      1.0000 0.11620  0.83360  0.72120  Biso   1.000  H
  H55      1.0000 0.61620  0.66640  0.27880  Biso   1.000  H
  H56      1.0000 0.88380  0.83360  0.77880  Biso   1.000  H
  C73      1.0000 0.57690  0.21990  0.85100  Biso   1.000  C
  C74      1.0000 0.92310  0.28010  0.35100  Biso   1.000  C
  C75      1.0000 0.42310  0.21990  0.64900  Biso   1.000  C
  C76      1.0000 0.07690  0.28010  0.14900  Biso   1.000  C
  C77      1.0000 0.42310  0.78010  0.14900  Biso   1.000  C
  C78      1.0000 0.07690  0.71990  0.64900  Biso   1.000  C
  C79      1.0000 0.57690  0.78010  0.35100  Biso   1.000  C
  C80      1.0000 0.92310  0.71990  0.85100  Biso   1.000  C
  H57      1.0000 0.58780  0.15170  0.82510  Biso   1.000  H
  H58      1.0000 0.91220  0.34830  0.32510  Biso   1.000  H
  H59      1.0000 0.41220  0.15170  0.67490  Biso   1.000  H
  H60      1.0000 0.08780  0.34830  0.17490  Biso   1.000  H
  H61      1.0000 0.41220  0.84830  0.17490  Biso   1.000  H
  H62      1.0000 0.08780  0.65170  0.67490  Biso   1.000  H
  H63      1.0000 0.58780  0.84830  0.32510  Biso   1.000  H
  H64      1.0000 0.91220  0.65170  0.82510  Biso   1.000  H
  C81      1.0000 0.54520  0.20980  0.91550  Biso   1.000  C
  C82      1.0000 0.95480  0.29020  0.41550  Biso   1.000  C
  C83      1.0000 0.45480  0.20980  0.58450  Biso   1.000  C
  C84      1.0000 0.04520  0.29020  0.08450  Biso   1.000  C
  C85      1.0000 0.45480  0.79020  0.08450  Biso   1.000  C
  C86      1.0000 0.04520  0.70980  0.58450  Biso   1.000  C
  C87      1.0000 0.54520  0.79020  0.41550  Biso   1.000  C
  C88      1.0000 0.95480  0.70980  0.91550  Biso   1.000  C
  C89      1.0000 0.52790  0.31170  0.94870  Biso   1.000  C
  C90      1.0000 0.97210  0.18830  0.44870  Biso   1.000  C
  C91      1.0000 0.47210  0.31170  0.55130  Biso   1.000  C
  C92      1.0000 0.02790  0.18830  0.05130  Biso   1.000  C
  C93      1.0000 0.47210  0.68830  0.05130  Biso   1.000  C
  C94      1.0000 0.02790  0.81170  0.55130  Biso   1.000  C
  C95      1.0000 0.52790  0.68830  0.44870  Biso   1.000  C
  C96      1.0000 0.97210  0.81170  0.94870  Biso   1.000  C
  H65      1.0000 0.50470  0.30910  0.99340  Biso   1.000  H
  H66      1.0000 0.99530  0.19090  0.49340  Biso   1.000  H
  H67      1.0000 0.49530  0.30910  0.50660  Biso   1.000  H
  H68      1.0000 0.00470  0.19090  0.00660  Biso   1.000  H
  H69      1.0000 0.49530  0.69090  0.00660  Biso   1.000  H
  H70      1.0000 0.00470  0.80910  0.50660  Biso   1.000  H
  H71      1.0000 0.50470  0.69090  0.49340  Biso   1.000  H
  H72      1.0000 0.99530  0.80910  0.99340  Biso   1.000  H
  C97      1.0000 0.54410  0.42250  0.91760  Biso   1.000  C
  C98      1.0000 0.95590  0.07750  0.41760  Biso   1.000  C
  C99      1.0000 0.45590  0.42250  0.58240  Biso   1.000  C
  C100     1.0000 0.04410  0.07750  0.08240  Biso   1.000  C
  C101     1.0000 0.45590  0.57750  0.08240  Biso   1.000  C
  C102     1.0000 0.04410  0.92250  0.58240  Biso   1.000  C
  C103     1.0000 0.54410  0.57750  0.41760  Biso   1.000  C
  C104     1.0000 0.95590  0.92250  0.91760  Biso   1.000  C
  H73      1.0000 0.52970  0.49160  0.94220  Biso   1.000  H
  H74      1.0000 0.97030  0.00840  0.44220  Biso   1.000  H
  H75      1.0000 0.47030  0.49160  0.55780  Biso   1.000  H
  H76      1.0000 0.02970  0.00840  0.05780  Biso   1.000  H
  H77      1.0000 0.47030  0.50840  0.05780  Biso   1.000  H
  H78      1.0000 0.02970  0.99160  0.55780  Biso   1.000  H
  H79      1.0000 0.52970  0.50840  0.44220  Biso   1.000  H
  H80      1.0000 0.97030  0.99160  0.94220  Biso   1.000  H
  N1       1.0000 0.21480  0.07040  0.76910  Biso   1.000  N
  N2       1.0000 0.28520  0.42960  0.26910  Biso   1.000  N
  N3       1.0000 0.78520  0.07040  0.73090  Biso   1.000  N
  N4       1.0000 0.71480  0.42960  0.23090  Biso   1.000  N
  N5       1.0000 0.78520  0.92960  0.23090  Biso   1.000  N
  N6       1.0000 0.71480  0.57040  0.73090  Biso   1.000  N
  N7       1.0000 0.21480  0.92960  0.26910  Biso   1.000  N
  N8       1.0000 0.28520  0.57040  0.76910  Biso   1.000  N
  N9       1.0000 0.57840  0.43260  0.85590  Biso   1.000  N
  N10      1.0000 0.92160  0.06740  0.35590  Biso   1.000  N
  N11      1.0000 0.42160  0.43260  0.64410  Biso   1.000  N
  N12      1.0000 0.07840  0.06740  0.14410  Biso   1.000  N
  N13      1.0000 0.42160  0.56740  0.14410  Biso   1.000  N
  N14      1.0000 0.07840  0.93260  0.64410  Biso   1.000  N
  N15      1.0000 0.57840  0.56740  0.35590  Biso   1.000  N
  N16      1.0000 0.92160  0.93260  0.85590  Biso   1.000  N
  O1       1.0000 0.34530  0.15100  0.00200  Biso   1.000  O
  O2       1.0000 0.15470  0.34900  0.50200  Biso   1.000  O
  O3       1.0000 0.65470  0.15100  0.49800  Biso   1.000  O
  O4       1.0000 0.84530  0.34900  0.99800  Biso   1.000  O
  O5       1.0000 0.65470  0.84900  0.99800  Biso   1.000  O
  O6       1.0000 0.84530  0.65100  0.49800  Biso   1.000  O
  O7       1.0000 0.34530  0.84900  0.50200  Biso   1.000  O
  O8       1.0000 0.15470  0.65100  0.00200  Biso   1.000  O
  H81      1.0000 0.34740  0.13060  0.04150  Biso   1.000  H
  H82      1.0000 0.15260  0.36940  0.54150  Biso   1.000  H
  H83      1.0000 0.65260  0.13060  0.45850  Biso   1.000  H
  H84      1.0000 0.84740  0.36940  0.95850  Biso   1.000  H
  H85      1.0000 0.65260  0.86940  0.95850  Biso   1.000  H
  H86      1.0000 0.84740  0.63060  0.45850  Biso   1.000  H
  H87      1.0000 0.34740  0.86940  0.54150  Biso   1.000  H
  H88      1.0000 0.15260  0.63060  0.04150  Biso   1.000  H
  H89      1.0000 0.62340  0.94580  0.91370  Biso   1.000  H
  H90      1.0000 0.87660  0.55420  0.41370  Biso   1.000  H
  H91      1.0000 0.37660  0.94580  0.58630  Biso   1.000  H
  H92      1.0000 0.12340  0.55420  0.08630  Biso   1.000  H
  H93      1.0000 0.37660  0.05420  0.08630  Biso   1.000  H
  H94      1.0000 0.12340  0.44580  0.58630  Biso   1.000  H
  H95      1.0000 0.62340  0.05420  0.41370  Biso   1.000  H
  H96      1.0000 0.87660  0.44580  0.91370  Biso   1.000  H
  O9       1.0000 0.59500  0.00370  0.89430  Biso   1.000  O
  O10      1.0000 0.90500  0.49630  0.39430  Biso   1.000  O
  O11      1.0000 0.40500  0.00370  0.60570  Biso   1.000  O
  O12      1.0000 0.09500  0.49630  0.10570  Biso   1.000  O
  O13      1.0000 0.40500  0.99630  0.10570  Biso   1.000  O
  O14      1.0000 0.09500  0.50370  0.60570  Biso   1.000  O
  O15      1.0000 0.59500  0.99630  0.39430  Biso   1.000  O
  O16      1.0000 0.90500  0.50370  0.89430  Biso   1.000  O
