data_image0
_cell_length_a       12.876
_cell_length_b       13.256
_cell_length_c       14.198
_cell_angle_alpha    66.67
_cell_angle_beta     67.42
_cell_angle_gamma    75.36

_symmetry_space_group_name_H-M    "P 1"
_symmetry_int_tables_number       1

loop_
  _symmetry_equiv_pos_as_xyz
  'x, y, z'

loop_
  _atom_site_label
  _atom_site_occupancy
  _atom_site_fract_x
  _atom_site_fract_y
  _atom_site_fract_z
  _atom_site_thermal_displace_type
  _atom_site_B_iso_or_equiv
  _atom_site_type_symbol
  Mo1      1.0000 0.44137  0.79477  0.43346  Biso   1.000  Mo
  Mo2      1.0000 0.55863  0.20523  0.56654  Biso   1.000  Mo
  Mo3      1.0000 0.28159  0.07890  0.37969  Biso   1.000  Mo
  Mo4      1.0000 0.71841  0.92110  0.62031  Biso   1.000  Mo
  Mo5      1.0000 0.71541  0.91565  0.28660  Biso   1.000  Mo
  Mo6      1.0000 0.28459  0.08435  0.71340  Biso   1.000  Mo
  Mo7      1.0000 0.55389  0.20205  0.23654  Biso   1.000  Mo
  Mo8      1.0000 0.44611  0.79795  0.76346  Biso   1.000  Mo
  V1       1.0000 0.49860  0.99489  0.22319  Biso   1.000  V
  V2       1.0000 0.50140  0.00511  0.77681  Biso   1.000  V
  V3       1.0000 0.65619  0.72513  0.54910  Biso   1.000  V
  V4       1.0000 0.34381  0.27487  0.45090  Biso   1.000  V
  V5       1.0000 0.23674  0.88145  0.63929  Biso   1.000  V
  V6       1.0000 0.76326  0.11855  0.36071  Biso   1.000  V
  P1       1.0000 0.50000  0.00000  0.50000  Biso   1.000  P
  O1       1.0000 0.57310  0.86390  0.30190  Biso   1.000  O
  O2       1.0000 0.42690  0.13610  0.69810  Biso   1.000  O
  O3       1.0000 0.42510  0.12810  0.25150  Biso   1.000  O
  O4       1.0000 0.57490  0.87190  0.74850  Biso   1.000  O
  O5       1.0000 0.73370  0.79900  0.39930  Biso   1.000  O
  O6       1.0000 0.26630  0.20100  0.60070  Biso   1.000  O
  O7       1.0000 0.12050  0.82910  0.70140  Biso   1.000  O
  O8       1.0000 0.87950  0.17090  0.29860  Biso   1.000  O
  O9       1.0000 0.49290  0.98460  0.11060  Biso   1.000  O
  O10      1.0000 0.50710  0.01540  0.88940  Biso   1.000  O
  O11      1.0000 0.54220  0.71100  0.50100  Biso   1.000  O
  O12      1.0000 0.45780  0.28900  0.49900  Biso   1.000  O
  O13      1.0000 0.57660  0.28810  0.10940  Biso   1.000  O
  O14      1.0000 0.42340  0.71190  0.89060  Biso   1.000  O
  O15      1.0000 0.19030  0.11010  0.31320  Biso   1.000  O
  O16      1.0000 0.80970  0.88990  0.68680  Biso   1.000  O
  O17      1.0000 0.41400  0.70890  0.39000  Biso   1.000  O
  O18      1.0000 0.58600  0.29110  0.61000  Biso   1.000  O
  O19      1.0000 0.80560  0.88030  0.18040  Biso   1.000  O
  O20      1.0000 0.19440  0.11970  0.81960  Biso   1.000  O
  O21      1.0000 0.26590  0.19950  0.41330  Biso   1.000  O
  O22      1.0000 0.73410  0.80050  0.58670  Biso   1.000  O
  O23      1.0000 0.37050  0.93890  0.34280  Biso   1.000  O
  O24      1.0000 0.62950  0.06110  0.65720  Biso   1.000  O
  O25      1.0000 0.45780  0.28650  0.31180  Biso   1.000  O
  O26      1.0000 0.54220  0.71350  0.68820  Biso   1.000  O
  O27      1.0000 0.72370  0.60430  0.56950  Biso   1.000  O
  O28      1.0000 0.27630  0.39570  0.43050  Biso   1.000  O
  O29      1.0000 0.62460  0.05330  0.20980  Biso   1.000  O
  O30      1.0000 0.37540  0.94670  0.79020  Biso   1.000  O
  O31      1.0000 0.20950  0.99150  0.51210  Biso   1.000  O
  O32      1.0000 0.79050  0.00850  0.48790  Biso   1.000  O
  O33      1.0000 0.32000  0.79330  0.54900  Biso   1.000  O
  O34      1.0000 0.68000  0.20670  0.45100  Biso   1.000  O
  O35      1.0000 0.67890  0.20290  0.26330  Biso   1.000  O
  O36      1.0000 0.32110  0.79710  0.73670  Biso   1.000  O
  O37      1.0000 0.79170  0.00230  0.30040  Biso   1.000  O
  O38      1.0000 0.20830  0.99770  0.69960  Biso   1.000  O
  O39      1.0000 0.41560  0.95500  0.48120  Biso   1.000  O
  O40      1.0000 0.58440  0.04500  0.51880  Biso   1.000  O
  O41      1.0000 0.44150  0.09600  0.42650  Biso   1.000  O
  O42      1.0000 0.55850  0.90400  0.57350  Biso   1.000  O
  O43      1.0000 0.59750  0.03470  0.38520  Biso   1.000  O
  O44      1.0000 0.40250  0.96530  0.61480  Biso   1.000  O
  O45      1.0000 0.54660  0.90540  0.46140  Biso   1.000  O
  O46      1.0000 0.45340  0.09460  0.53860  Biso   1.000  O
  Cu1      1.0000 0.50000  0.50000  0.50000  Biso   1.000  Cu
  N1       1.0000 0.27670  0.08880  0.05820  Biso   1.000  N
  N2       1.0000 0.72330  0.91120  0.94180  Biso   1.000  N
  N3       1.0000 0.38730  0.48630  0.63610  Biso   1.000  N
  N4       1.0000 0.61270  0.51370  0.36390  Biso   1.000  N
  N5       1.0000 0.02620  0.13230  0.62340  Biso   1.000  N
  N6       1.0000 0.97380  0.86770  0.37660  Biso   1.000  N
  N7       1.0000 0.91660  0.25970  0.54000  Biso   1.000  N
  N8       1.0000 0.08340  0.74030  0.46000  Biso   1.000  N
  C1       1.0000 0.16980  0.09270  0.07260  Biso   1.000  C
  C2       1.0000 0.83020  0.90730  0.92740  Biso   1.000  C
  H1       1.0000 0.14090  0.02490  0.09430  Biso   1.000  H
  H2       1.0000 0.85910  0.97510  0.90570  Biso   1.000  H
  C3       1.0000 0.09430  0.19040  0.05810  Biso   1.000  C
  C4       1.0000 0.90570  0.80960  0.94190  Biso   1.000  C
  H3       1.0000 0.01680  0.19000  0.06890  Biso   1.000  H
  H4       1.0000 0.98320  0.81000  0.93110  Biso   1.000  H
  C5       1.0000 0.13920  0.28680  0.02710  Biso   1.000  C
  C6       1.0000 0.86080  0.71320  0.97290  Biso   1.000  C
  C7       1.0000 0.25140  0.28150  0.01590  Biso   1.000  C
  C8       1.0000 0.74860  0.71850  0.98410  Biso   1.000  C
  H5       1.0000 0.28360  0.34720  0.99550  Biso   1.000  H
  H6       1.0000 0.71640  0.65280  0.00450  Biso   1.000  H
  C9       1.0000 0.31600  0.18110  0.03430  Biso   1.000  C
  C10      1.0000 0.68400  0.81890  0.96570  Biso   1.000  C
  H7       1.0000 0.39230  0.17800  0.02960  Biso   1.000  H
  H8       1.0000 0.60770  0.82200  0.97040  Biso   1.000  H
  C11      1.0000 0.06520  0.39510  0.00950  Biso   1.000  C
  C12      1.0000 0.93480  0.60490  0.99050  Biso   1.000  C
  C13      1.0000 0.10300  0.48730  0.91920  Biso   1.000  C
  C14      1.0000 0.89700  0.51270  0.08080  Biso   1.000  C
  C15      1.0000 0.03690  0.59100  0.91210  Biso   1.000  C
  C16      1.0000 0.96310  0.40900  0.08790  Biso   1.000  C
  H9       1.0000 0.06350  0.65370  0.85130  Biso   1.000  H
  H10      1.0000 0.93650  0.34630  0.14870  Biso   1.000  H
  C17      1.0000 0.20450  0.48050  0.82620  Biso   1.000  C
  C18      1.0000 0.79550  0.51950  0.17380  Biso   1.000  C
  C19      1.0000 0.28530  0.55360  0.78340  Biso   1.000  C
  C20      1.0000 0.71470  0.44640  0.21660  Biso   1.000  C
  H11      1.0000 0.27970  0.60300  0.81920  Biso   1.000  H
  H12      1.0000 0.72030  0.39700  0.18080  Biso   1.000  H
  C21      1.0000 0.37210  0.55410  0.69040  Biso   1.000  C
  C22      1.0000 0.62790  0.44590  0.30960  Biso   1.000  C
  H13      1.0000 0.42490  0.60580  0.66250  Biso   1.000  H
  H14      1.0000 0.57510  0.39420  0.33750  Biso   1.000  H
  C23      1.0000 0.31180  0.41290  0.67920  Biso   1.000  C
  C24      1.0000 0.68820  0.58710  0.32080  Biso   1.000  C
  H15      1.0000 0.32100  0.36220  0.64370  Biso   1.000  H
  H16      1.0000 0.67900  0.63780  0.35630  Biso   1.000  H
  C25      1.0000 0.22230  0.40840  0.77230  Biso   1.000  C
  C26      1.0000 0.77770  0.59160  0.22770  Biso   1.000  C
  H17      1.0000 0.17170  0.35460  0.79980  Biso   1.000  H
  H18      1.0000 0.82830  0.64540  0.20020  Biso   1.000  H
  C27      1.0000 0.01060  0.23730  0.56240  Biso   1.000  C
  C28      1.0000 0.98940  0.76270  0.43760  Biso   1.000  C
  H19      1.0000 0.06190  0.28970  0.53800  Biso   1.000  H
  H20      1.0000 0.93810  0.71030  0.46200  Biso   1.000  H
  C29      1.0000 0.93490  0.08770  0.63580  Biso   1.000  C
  C30      1.0000 0.06510  0.91230  0.36420  Biso   1.000  C
  H21      1.0000 0.92180  0.01280  0.67580  Biso   1.000  H
  H22      1.0000 0.07820  0.98720  0.32420  Biso   1.000  H
  C31      1.0000 0.86830  0.16180  0.58530  Biso   1.000  C
  C32      1.0000 0.13170  0.83820  0.41470  Biso   1.000  C
  H23      1.0000 0.80060  0.15090  0.58060  Biso   1.000  H
  H24      1.0000 0.19940  0.84910  0.41940  Biso   1.000  H
  C33      1.0000 0.87200  0.36530  0.47300  Biso   1.000  C
  C34      1.0000 0.12800  0.63470  0.52700  Biso   1.000  C
  H25      1.0000 0.81750  0.35190  0.44660  Biso   1.000  H
  H26      1.0000 0.18250  0.64810  0.55340  Biso   1.000  H
  H27      1.0000 0.83120  0.41390  0.51710  Biso   1.000  H
  H28      1.0000 0.16880  0.58610  0.48290  Biso   1.000  H
  C35      1.0000 0.96480  0.42020  0.38020  Biso   1.000  C
  C36      1.0000 0.03520  0.57980  0.61980  Biso   1.000  C
  C37      1.0000 0.04260  0.36970  0.31430  Biso   1.000  C
  C38      1.0000 0.95740  0.63030  0.68570  Biso   1.000  C
  H29      1.0000 0.04050  0.29450  0.32580  Biso   1.000  H
  H30      1.0000 0.95950  0.70550  0.67420  Biso   1.000  H
  C39      1.0000 0.04700  0.59300  0.27270  Biso   1.000  C
  C40      1.0000 0.95300  0.40700  0.72730  Biso   1.000  C
  H31      1.0000 0.04530  0.66980  0.25740  Biso   1.000  H
  H32      1.0000 0.95470  0.33020  0.74260  Biso   1.000  H
  C41      1.0000 0.13100  0.43090  0.22420  Biso   1.000  C
  C42      1.0000 0.86900  0.56910  0.77580  Biso   1.000  C
  H33      1.0000 0.18770  0.39500  0.17730  Biso   1.000  H
  H34      1.0000 0.81230  0.60500  0.82270  Biso   1.000  H
  C43      1.0000 0.13400  0.53900  0.20660  Biso   1.000  C
  C44      1.0000 0.86600  0.46100  0.79340  Biso   1.000  C
  C45      1.0000 0.96400  0.53460  0.36050  Biso   1.000  C
  C46      1.0000 0.03600  0.46540  0.63950  Biso   1.000  C
  H35      1.0000 0.90690  0.57060  0.40700  Biso   1.000  H
  H36      1.0000 0.09310  0.42940  0.59300  Biso   1.000  H
  Cu2      1.0000 0.65930  0.06680  0.89910  Biso   1.000  Cu
  Cu3      1.0000 0.34070  0.93320  0.10090  Biso   1.000  Cu
  C47      1.0000 0.76640  0.40500  0.87200  Biso   1.000  C
  C48      1.0000 0.23360  0.59500  0.12800  Biso   1.000  C
  H37      1.0000 0.79900  0.33240  0.91270  Biso   1.000  H
  H38      1.0000 0.20100  0.66760  0.08730  Biso   1.000  H
  H39      1.0000 0.73200  0.44660  0.92360  Biso   1.000  H
  H40      1.0000 0.26800  0.55340  0.07640  Biso   1.000  H
  N9       1.0000 0.64100  0.22100  0.87100  Biso   1.000  N
  N10      1.0000 0.35900  0.77900  0.12900  Biso   1.000  N
  C49      1.0000 0.70100  0.27100  0.89500  Biso   1.000  C
  C50      1.0000 0.29900  0.72900  0.10500  Biso   1.000  C
  H41      1.0000 0.75630  0.23550  0.93010  Biso   1.000  H
  H42      1.0000 0.24370  0.76450  0.06990  Biso   1.000  H
  N11      1.0000 0.66900  0.38000  0.86000  Biso   1.000  N
  N12      1.0000 0.33100  0.62000  0.14000  Biso   1.000  N
  C51      1.0000 0.58900  0.39700  0.81400  Biso   1.000  C
  C52      1.0000 0.41100  0.60300  0.18600  Biso   1.000  C
  H43      1.0000 0.55170  0.46670  0.78270  Biso   1.000  H
  H44      1.0000 0.44830  0.53330  0.21730  Biso   1.000  H
  C53      1.0000 0.57200  0.29900  0.82100  Biso   1.000  C
  C54      1.0000 0.42800  0.70100  0.17900  Biso   1.000  C
  H45      1.0000 0.51980  0.28610  0.79560  Biso   1.000  H
  H46      1.0000 0.48020  0.71390  0.20440  Biso   1.000  H
  Cu4      1.0000 0.40340  0.96230  0.04620  Biso   1.000  Cu
  Cu5      1.0000 0.59660  0.03770  0.95380  Biso   1.000  Cu
  C55      1.0000 0.20070  0.61350  0.10070  Biso   1.000  C
  C56      1.0000 0.79930  0.38650  0.89930  Biso   1.000  C
  H47      1.0000 0.14960  0.66310  0.05940  Biso   1.000  H
  H48      1.0000 0.85040  0.33690  0.94060  Biso   1.000  H
  H49      1.0000 0.25670  0.56930  0.05690  Biso   1.000  H
  H50      1.0000 0.74330  0.43070  0.94310  Biso   1.000  H
  N13      1.0000 0.35020  0.81400  0.10600  Biso   1.000  N
  N14      1.0000 0.64980  0.18600  0.89400  Biso   1.000  N
  C57      1.0000 0.27600  0.79050  0.07020  Biso   1.000  C
  C58      1.0000 0.72400  0.20950  0.92980  Biso   1.000  C
  H51      1.0000 0.24220  0.84120  0.01770  Biso   1.000  H
  H52      1.0000 0.75780  0.15880  0.98230  Biso   1.000  H
  N15      1.0000 0.25990  0.68010  0.12430  Biso   1.000  N
  N16      1.0000 0.74010  0.31990  0.87570  Biso   1.000  N
  C59      1.0000 0.32400  0.63530  0.19350  Biso   1.000  C
  C60      1.0000 0.67600  0.36470  0.80650  Biso   1.000  C
  H53      1.0000 0.32910  0.56090  0.24050  Biso   1.000  H
  H54      1.0000 0.67090  0.43910  0.75950  Biso   1.000  H
  C61      1.0000 0.38000  0.71810  0.18220  Biso   1.000  C
  C62      1.0000 0.62000  0.28190  0.81780  Biso   1.000  C
  H55      1.0000 0.42990  0.71040  0.22010  Biso   1.000  H
  H56      1.0000 0.57010  0.28960  0.77990  Biso   1.000  H
  O47      1.0000 0.96130  0.10200  0.93300  Biso   1.000  O
  O48      1.0000 0.03870  0.89800  0.06700  Biso   1.000  O
  O49      1.0000 0.59100  0.54100  0.98900  Biso   1.000  O
  O50      1.0000 0.40900  0.45900  0.01100  Biso   1.000  O
  O51      1.0000 0.84500  0.17600  0.08100  Biso   1.000  O
  O52      1.0000 0.15500  0.82400  0.91900  Biso   1.000  O
