data_image0
_cell_length_a       7.6294
_cell_length_b       9.5964
_cell_length_c       10.202
_cell_angle_alpha    84.19
_cell_angle_beta     80.63
_cell_angle_gamma    70.93

_symmetry_space_group_name_H-M    "P 1"
_symmetry_int_tables_number       1

loop_
  _symmetry_equiv_pos_as_xyz
  'x, y, z'

loop_
  _atom_site_label
  _atom_site_occupancy
  _atom_site_fract_x
  _atom_site_fract_y
  _atom_site_fract_z
  _atom_site_thermal_displace_type
  _atom_site_B_iso_or_equiv
  _atom_site_type_symbol
  Cu1      1.0000 0.96057  0.83530  0.16964  Biso   1.000  Cu
  Cu2      1.0000 0.03943  0.16470  0.83036  Biso   1.000  Cu
  S1       1.0000 0.99674  0.67390  0.37486  Biso   1.000  S
  S2       1.0000 0.00326  0.32610  0.62514  Biso   1.000  S
  S3       1.0000 0.11161  0.47767  0.28919  Biso   1.000  S
  S4       1.0000 0.88839  0.52233  0.71081  Biso   1.000  S
  N1       1.0000 0.69740  0.92930  0.16879  Biso   1.000  N
  N2       1.0000 0.30260  0.07070  0.83121  Biso   1.000  N
  N3       1.0000 0.11310  0.96330  0.17961  Biso   1.000  N
  N4       1.0000 0.88690  0.03670  0.82039  Biso   1.000  N
  N5       1.0000 0.36230  0.05920  0.20770  Biso   1.000  N
  N6       1.0000 0.63770  0.94080  0.79230  Biso   1.000  N
  N7       1.0000 0.35890  0.64690  0.38308  Biso   1.000  N
  N8       1.0000 0.64110  0.35310  0.61692  Biso   1.000  N
  N9       1.0000 0.12490  0.65814  0.06703  Biso   1.000  N
  N10      1.0000 0.87510  0.34186  0.93297  Biso   1.000  N
  C1       1.0000 0.53950  0.98400  0.18390  Biso   1.000  C
  C2       1.0000 0.46050  0.01600  0.81610  Biso   1.000  C
  C3       1.0000 0.23610  0.00160  0.19050  Biso   1.000  C
  C4       1.0000 0.76390  0.99840  0.80950  Biso   1.000  C
  C5       1.0000 0.18410  0.71060  0.43562  Biso   1.000  C
  C6       1.0000 0.81590  0.28940  0.56438  Biso   1.000  C
  C7       1.0000 0.13110  0.81030  0.53300  Biso   1.000  C
  C8       1.0000 0.86890  0.18970  0.46700  Biso   1.000  C
  H1       1.0000 0.00590  0.84990  0.56840  Biso   1.000  H
  H2       1.0000 0.99410  0.15010  0.43160  Biso   1.000  H
  C9       1.0000 0.26820  0.85040  0.57700  Biso   1.000  C
  C10      1.0000 0.73180  0.14960  0.42300  Biso   1.000  C
  H3       1.0000 0.23720  0.91970  0.64140  Biso   1.000  H
  H4       1.0000 0.76280  0.08030  0.35860  Biso   1.000  H
  C11      1.0000 0.45160  0.78630  0.52420  Biso   1.000  C
  C12      1.0000 0.54840  0.21370  0.47580  Biso   1.000  C
  H5       1.0000 0.54750  0.81090  0.55190  Biso   1.000  H
  H6       1.0000 0.45250  0.18910  0.44810  Biso   1.000  H
  C13      1.0000 0.48890  0.68580  0.43020  Biso   1.000  C
  C14      1.0000 0.51110  0.31420  0.56980  Biso   1.000  C
  H7       1.0000 0.61360  0.64090  0.39630  Biso   1.000  H
  H8       1.0000 0.38640  0.35910  0.60370  Biso   1.000  H
  C15      1.0000 0.18110  0.52120  0.11824  Biso   1.000  C
  C16      1.0000 0.81890  0.47880  0.88176  Biso   1.000  C
  C17      1.0000 0.29190  0.40270  0.04540  Biso   1.000  C
  C18      1.0000 0.70810  0.59730  0.95460  Biso   1.000  C
  H9       1.0000 0.32450  0.30780  0.08500  Biso   1.000  H
  H10      1.0000 0.67550  0.69220  0.91500  Biso   1.000  H
  C19      1.0000 0.35280  0.42640  0.91480  Biso   1.000  C
  C20      1.0000 0.64720  0.57360  0.08520  Biso   1.000  C
  H11      1.0000 0.42890  0.34840  0.86380  Biso   1.000  H
  H12      1.0000 0.57110  0.65160  0.13620  Biso   1.000  H
  C21      1.0000 0.29960  0.56820  0.85970  Biso   1.000  C
  C22      1.0000 0.70040  0.43180  0.14030  Biso   1.000  C
  H13      1.0000 0.34020  0.58770  0.77080  Biso   1.000  H
  H14      1.0000 0.65980  0.41230  0.22920  Biso   1.000  H
  C23      1.0000 0.18680  0.67950  0.93670  Biso   1.000  C
  C24      1.0000 0.81320  0.32050  0.06330  Biso   1.000  C
  H15      1.0000 0.15050  0.77480  0.89810  Biso   1.000  H
  H16      1.0000 0.84950  0.22520  0.10190  Biso   1.000  H
