data_image0
_cell_length_a       5.7093
_cell_length_b       6.9441
_cell_length_c       14.592
_cell_angle_alpha    90
_cell_angle_beta     93.5
_cell_angle_gamma    90

_symmetry_space_group_name_H-M    "P 1"
_symmetry_int_tables_number       1

loop_
  _symmetry_equiv_pos_as_xyz
  'x, y, z'

loop_
  _atom_site_label
  _atom_site_occupancy
  _atom_site_fract_x
  _atom_site_fract_y
  _atom_site_fract_z
  _atom_site_thermal_displace_type
  _atom_site_B_iso_or_equiv
  _atom_site_type_symbol
  Cu1      1.0000 0.11102  0.33936  0.82924  Biso   1.000  Cu
  Cu2      1.0000 0.61102  0.16064  0.32924  Biso   1.000  Cu
  Cu3      1.0000 0.88898  0.66064  0.17076  Biso   1.000  Cu
  Cu4      1.0000 0.38898  0.83936  0.67076  Biso   1.000  Cu
  C1       1.0000 0.48200  0.58170  0.91780  Biso   1.000  C
  C2       1.0000 0.98200  0.91830  0.41780  Biso   1.000  C
  C3       1.0000 0.51800  0.41830  0.08220  Biso   1.000  C
  C4       1.0000 0.01800  0.08170  0.58220  Biso   1.000  C
  H1       1.0000 0.47330  0.64080  0.86050  Biso   1.000  H
  H2       1.0000 0.97330  0.85920  0.36050  Biso   1.000  H
  H3       1.0000 0.52670  0.35920  0.13950  Biso   1.000  H
  H4       1.0000 0.02670  0.14080  0.63950  Biso   1.000  H
  N1       1.0000 0.32090  0.44690  0.93534  Biso   1.000  N
  N2       1.0000 0.82090  0.05310  0.43534  Biso   1.000  N
  N3       1.0000 0.67910  0.55310  0.06466  Biso   1.000  N
  N4       1.0000 0.17910  0.94690  0.56466  Biso   1.000  N
  C5       1.0000 0.66110  0.63640  0.98170  Biso   1.000  C
  C6       1.0000 0.16110  0.86360  0.48170  Biso   1.000  C
  C7       1.0000 0.33890  0.36360  0.01830  Biso   1.000  C
  C8       1.0000 0.83890  0.13640  0.51830  Biso   1.000  C
  C9       1.0000 0.83570  0.78900  0.95850  Biso   1.000  C
  C10      1.0000 0.33570  0.71100  0.45850  Biso   1.000  C
  C11      1.0000 0.16430  0.21100  0.04150  Biso   1.000  C
  C12      1.0000 0.66430  0.28900  0.54150  Biso   1.000  C
  H5       1.0000 0.78040  0.91280  0.97690  Biso   1.000  H
  H6       1.0000 0.28040  0.58720  0.47690  Biso   1.000  H
  H7       1.0000 0.21960  0.08720  0.02310  Biso   1.000  H
  H8       1.0000 0.71960  0.41280  0.52310  Biso   1.000  H
  H9       1.0000 0.85370  0.78900  0.89350  Biso   1.000  H
  H10      1.0000 0.35370  0.71100  0.39350  Biso   1.000  H
  H11      1.0000 0.14630  0.21100  0.10650  Biso   1.000  H
  H12      1.0000 0.64630  0.28900  0.60650  Biso   1.000  H
  H13      1.0000 0.98430  0.76240  0.99030  Biso   1.000  H
  H14      1.0000 0.48430  0.73760  0.49030  Biso   1.000  H
  H15      1.0000 0.01570  0.23760  0.00970  Biso   1.000  H
  H16      1.0000 0.51570  0.26240  0.50970  Biso   1.000  H
  S1       1.0000 0.35333  0.06433  0.79607  Biso   1.000  S
  S2       1.0000 0.85333  0.43567  0.29607  Biso   1.000  S
  S3       1.0000 0.64667  0.93567  0.20393  Biso   1.000  S
  S4       1.0000 0.14667  0.56433  0.70393  Biso   1.000  S
  C13      1.0000 0.61550  0.16720  0.80850  Biso   1.000  C
  C14      1.0000 0.11550  0.33280  0.30850  Biso   1.000  C
  C15      1.0000 0.38450  0.83280  0.19150  Biso   1.000  C
  C16      1.0000 0.88450  0.66720  0.69150  Biso   1.000  C
  N5       1.0000 0.79580  0.24010  0.82030  Biso   1.000  N
  N6       1.0000 0.29580  0.25990  0.32030  Biso   1.000  N
  N7       1.0000 0.20420  0.75990  0.17970  Biso   1.000  N
  N8       1.0000 0.70420  0.74010  0.67970  Biso   1.000  N
