data_image0
_cell_length_a       5.685
_cell_length_b       6.9277
_cell_length_c       14.3575
_cell_angle_alpha    90
_cell_angle_beta     93.435
_cell_angle_gamma    90

_symmetry_space_group_name_H-M    "P 1"
_symmetry_int_tables_number       1

loop_
  _symmetry_equiv_pos_as_xyz
  'x, y, z'

loop_
  _atom_site_label
  _atom_site_occupancy
  _atom_site_fract_x
  _atom_site_fract_y
  _atom_site_fract_z
  _atom_site_thermal_displace_type
  _atom_site_B_iso_or_equiv
  _atom_site_type_symbol
  Cu1      1.0000 0.61246  0.17050  0.32890  Biso   1.000  Cu
  Cu2      1.0000 0.11246  0.32950  0.82890  Biso   1.000  Cu
  Cu3      1.0000 0.38754  0.82950  0.67110  Biso   1.000  Cu
  Cu4      1.0000 0.88754  0.67050  0.17110  Biso   1.000  Cu
  N1       1.0000 0.82360  0.05690  0.43389  Biso   1.000  N
  N2       1.0000 0.32360  0.44310  0.93389  Biso   1.000  N
  N3       1.0000 0.17640  0.94310  0.56611  Biso   1.000  N
  N4       1.0000 0.67640  0.55690  0.06611  Biso   1.000  N
  C1       1.0000 0.98830  0.92730  0.41464  Biso   1.000  C
  C2       1.0000 0.48830  0.57270  0.91464  Biso   1.000  C
  C3       1.0000 0.01170  0.07270  0.58536  Biso   1.000  C
  C4       1.0000 0.51170  0.42730  0.08536  Biso   1.000  C
  H1       1.0000 0.98330  0.87280  0.35380  Biso   1.000  H
  H2       1.0000 0.48330  0.62720  0.85380  Biso   1.000  H
  H3       1.0000 0.01670  0.12720  0.64620  Biso   1.000  H
  H4       1.0000 0.51670  0.37280  0.14620  Biso   1.000  H
  C5       1.0000 0.83370  0.13180  0.52101  Biso   1.000  C
  C6       1.0000 0.33370  0.36820  0.02101  Biso   1.000  C
  C7       1.0000 0.16630  0.86820  0.47899  Biso   1.000  C
  C8       1.0000 0.66630  0.63180  0.97899  Biso   1.000  C
  C9       1.0000 0.65690  0.28060  0.54435  Biso   1.000  C
  C10      1.0000 0.15690  0.21940  0.04435  Biso   1.000  C
  C11      1.0000 0.34310  0.71940  0.45565  Biso   1.000  C
  C12      1.0000 0.84310  0.78060  0.95565  Biso   1.000  C
  H5       1.0000 0.70410  0.40630  0.52040  Biso   1.000  H
  H6       1.0000 0.20410  0.09370  0.02040  Biso   1.000  H
  H7       1.0000 0.29590  0.59370  0.47960  Biso   1.000  H
  H8       1.0000 0.79590  0.90630  0.97960  Biso   1.000  H
  H9       1.0000 0.64840  0.28790  0.61220  Biso   1.000  H
  H10      1.0000 0.14840  0.21210  0.11220  Biso   1.000  H
  H11      1.0000 0.35160  0.71210  0.38780  Biso   1.000  H
  H12      1.0000 0.85160  0.78790  0.88780  Biso   1.000  H
  H13      1.0000 0.50210  0.24520  0.51570  Biso   1.000  H
  H14      1.0000 0.00210  0.25480  0.01570  Biso   1.000  H
  H15      1.0000 0.49790  0.75480  0.48430  Biso   1.000  H
  H16      1.0000 0.99790  0.74520  0.98430  Biso   1.000  H
  S1       1.0000 0.64833  0.95156  0.19929  Biso   1.000  S
  S2       1.0000 0.14833  0.54844  0.69929  Biso   1.000  S
  S3       1.0000 0.35167  0.04844  0.80071  Biso   1.000  S
  S4       1.0000 0.85167  0.45156  0.30071  Biso   1.000  S
  C13      1.0000 0.38540  0.84610  0.18920  Biso   1.000  C
  C14      1.0000 0.88540  0.65390  0.68920  Biso   1.000  C
  C15      1.0000 0.61460  0.15390  0.81080  Biso   1.000  C
  C16      1.0000 0.11460  0.34610  0.31080  Biso   1.000  C
  N5       1.0000 0.20380  0.77010  0.17965  Biso   1.000  N
  N6       1.0000 0.70380  0.72990  0.67965  Biso   1.000  N
  N7       1.0000 0.79620  0.22990  0.82035  Biso   1.000  N
  N8       1.0000 0.29620  0.27010  0.32035  Biso   1.000  N
