data_image0
_cell_length_a       11.124
_cell_length_b       12.168
_cell_length_c       14.329
_cell_angle_alpha    88.56
_cell_angle_beta     88.77
_cell_angle_gamma    82.427

_symmetry_space_group_name_H-M    "P 1"
_symmetry_int_tables_number       1

loop_
  _symmetry_equiv_pos_as_xyz
  'x, y, z'

loop_
  _atom_site_label
  _atom_site_occupancy
  _atom_site_fract_x
  _atom_site_fract_y
  _atom_site_fract_z
  _atom_site_thermal_displace_type
  _atom_site_B_iso_or_equiv
  _atom_site_type_symbol
  Cu1      1.0000 0.83257  0.53114  0.47723  Biso   1.000  Cu
  Cu2      1.0000 0.16743  0.46886  0.52277  Biso   1.000  Cu
  N1       1.0000 0.74550  0.42990  0.41740  Biso   1.000  N
  N2       1.0000 0.25450  0.57010  0.58260  Biso   1.000  N
  N3       1.0000 0.61670  0.30900  0.39347  Biso   1.000  N
  N4       1.0000 0.38330  0.69100  0.60653  Biso   1.000  N
  N5       1.0000 0.02100  0.78009  0.54785  Biso   1.000  N
  N6       1.0000 0.97900  0.21991  0.45215  Biso   1.000  N
  N7       1.0000 0.91380  0.64140  0.53060  Biso   1.000  N
  N8       1.0000 0.08620  0.35860  0.46940  Biso   1.000  N
  C1       1.0000 0.75870  0.39490  0.32710  Biso   1.000  C
  C2       1.0000 0.24130  0.60510  0.67290  Biso   1.000  C
  H1       1.0000 0.81270  0.41880  0.28300  Biso   1.000  H
  H2       1.0000 0.18730  0.58120  0.71700  Biso   1.000  H
  C3       1.0000 0.68120  0.32000  0.31140  Biso   1.000  C
  C4       1.0000 0.31880  0.68000  0.68860  Biso   1.000  C
  H3       1.0000 0.67330  0.28340  0.25610  Biso   1.000  H
  H4       1.0000 0.32670  0.71660  0.74390  Biso   1.000  H
  C5       1.0000 0.65890  0.37670  0.45550  Biso   1.000  C
  C6       1.0000 0.34110  0.62330  0.54450  Biso   1.000  C
  H5       1.0000 0.63080  0.38470  0.51680  Biso   1.000  H
  H6       1.0000 0.36920  0.61530  0.48320  Biso   1.000  H
  C7       1.0000 0.52610  0.23660  0.41260  Biso   1.000  C
  C8       1.0000 0.47390  0.76340  0.58740  Biso   1.000  C
  C9       1.0000 0.53290  0.13640  0.36810  Biso   1.000  C
  C10      1.0000 0.46710  0.86360  0.63190  Biso   1.000  C
  H7       1.0000 0.59340  0.11680  0.32350  Biso   1.000  H
  H8       1.0000 0.40660  0.88320  0.67650  Biso   1.000  H
  C11      1.0000 0.44800  0.06530  0.39100  Biso   1.000  C
  C12      1.0000 0.55200  0.93470  0.60900  Biso   1.000  C
  H9       1.0000 0.45240  0.99810  0.36070  Biso   1.000  H
  H10      1.0000 0.54760  0.00190  0.63930  Biso   1.000  H
  C13      1.0000 0.35630  0.09150  0.45790  Biso   1.000  C
  C14      1.0000 0.64370  0.90850  0.54210  Biso   1.000  C
  C15      1.0000 0.35220  0.19340  0.50100  Biso   1.000  C
  C16      1.0000 0.64780  0.80660  0.49900  Biso   1.000  C
  H11      1.0000 0.29230  0.21340  0.54590  Biso   1.000  H
  H12      1.0000 0.70770  0.78660  0.45410  Biso   1.000  H
  C17      1.0000 0.43550  0.26600  0.47830  Biso   1.000  C
  C18      1.0000 0.56450  0.73400  0.52170  Biso   1.000  C
  H13      1.0000 0.43030  0.33410  0.50720  Biso   1.000  H
  H14      1.0000 0.56970  0.66590  0.49280  Biso   1.000  H
  C19      1.0000 0.26620  0.01350  0.48190  Biso   1.000  C
  C20      1.0000 0.73380  0.98650  0.51810  Biso   1.000  C
  C21      1.0000 0.24860  0.92920  0.42210  Biso   1.000  C
  C22      1.0000 0.75140  0.07080  0.57790  Biso   1.000  C
  H15      1.0000 0.29170  0.92350  0.36570  Biso   1.000  H
  H16      1.0000 0.70830  0.07650  0.63430  Biso   1.000  H
  C23      1.0000 0.16940  0.85330  0.44340  Biso   1.000  C
  C24      1.0000 0.83060  0.14670  0.55660  Biso   1.000  C
  H17      1.0000 0.16060  0.79760  0.40180  Biso   1.000  H
  H18      1.0000 0.83940  0.20240  0.59820  Biso   1.000  H
  C25      1.0000 0.10310  0.86000  0.52600  Biso   1.000  C
  C26      1.0000 0.89690  0.14000  0.47400  Biso   1.000  C
  C27      1.0000 0.11730  0.94420  0.58670  Biso   1.000  C
  C28      1.0000 0.88270  0.05580  0.41330  Biso   1.000  C
  H19      1.0000 0.07250  0.95040  0.64230  Biso   1.000  H
  H20      1.0000 0.92750  0.04960  0.35770  Biso   1.000  H
  C29      1.0000 0.19780  0.01930  0.56480  Biso   1.000  C
  C30      1.0000 0.80220  0.98070  0.43520  Biso   1.000  C
  H21      1.0000 0.20640  0.07490  0.60660  Biso   1.000  H
  H22      1.0000 0.79360  0.92510  0.39340  Biso   1.000  H
  C31      1.0000 0.98640  0.70560  0.48800  Biso   1.000  C
  C32      1.0000 0.01360  0.29440  0.51200  Biso   1.000  C
  H23      1.0000 0.01050  0.70040  0.42560  Biso   1.000  H
  H24      1.0000 0.98950  0.29960  0.57440  Biso   1.000  H
  C33      1.0000 0.96670  0.76120  0.63280  Biso   1.000  C
  C34      1.0000 0.03330  0.23880  0.36720  Biso   1.000  C
  H25      1.0000 0.97340  0.79940  0.68740  Biso   1.000  H
  H26      1.0000 0.02660  0.20060  0.31260  Biso   1.000  H
  C35      1.0000 0.90150  0.67580  0.62130  Biso   1.000  C
  C36      1.0000 0.09850  0.32420  0.37870  Biso   1.000  C
  H27      1.0000 0.85550  0.64540  0.66770  Biso   1.000  H
  H28      1.0000 0.14450  0.35460  0.33230  Biso   1.000  H
  Cu3      1.0000 0.10683  0.90803  0.01757  Biso   1.000  Cu
  Cu4      1.0000 0.89317  0.09197  0.98243  Biso   1.000  Cu
  N9       1.0000 0.19130  0.00641  0.08370  Biso   1.000  N
  N10      1.0000 0.80870  0.99359  0.91630  Biso   1.000  N
  N11      1.0000 0.31590  0.12793  0.11416  Biso   1.000  N
  N12      1.0000 0.68410  0.87207  0.88584  Biso   1.000  N
  N13      1.0000 0.92030  0.65010  0.96500  Biso   1.000  N
  N14      1.0000 0.07970  0.34990  0.03500  Biso   1.000  N
  N15      1.0000 0.03030  0.78841  0.97455  Biso   1.000  N
  N16      1.0000 0.96970  0.21159  0.02545  Biso   1.000  N
  C37      1.0000 0.27490  0.06500  0.04790  Biso   1.000  C
  C38      1.0000 0.72510  0.93500  0.95210  Biso   1.000  C
  H29      1.0000 0.30160  0.06310  0.98600  Biso   1.000  H
  H30      1.0000 0.69840  0.93690  0.01400  Biso   1.000  H
  C39      1.0000 0.17960  0.03370  0.17660  Biso   1.000  C
  C40      1.0000 0.82040  0.96630  0.82340  Biso   1.000  C
  H31      1.0000 0.12730  0.00510  0.21960  Biso   1.000  H
  H32      1.0000 0.87270  0.99490  0.78040  Biso   1.000  H
  C41      1.0000 0.25570  0.10850  0.19610  Biso   1.000  C
  C42      1.0000 0.74430  0.89150  0.80390  Biso   1.000  C
  H33      1.0000 0.26500  0.14010  0.25350  Biso   1.000  H
  H34      1.0000 0.73500  0.85990  0.74650  Biso   1.000  H
  C43      1.0000 0.40750  0.20160  0.09910  Biso   1.000  C
  C44      1.0000 0.59250  0.79840  0.90090  Biso   1.000  C
  C45      1.0000 0.50480  0.17010  0.04060  Biso   1.000  C
  C46      1.0000 0.49520  0.82990  0.95940  Biso   1.000  C
  H35      1.0000 0.51370  0.10080  0.01340  Biso   1.000  H
  H36      1.0000 0.48630  0.89920  0.98660  Biso   1.000  H
  C47      1.0000 0.59000  0.24210  0.02220  Biso   1.000  C
  C48      1.0000 0.41000  0.75790  0.97780  Biso   1.000  C
  H37      1.0000 0.65620  0.21940  0.98330  Biso   1.000  H
  H38      1.0000 0.34380  0.78060  0.01670  Biso   1.000  H
  C49      1.0000 0.57910  0.34690  0.06010  Biso   1.000  C
  C50      1.0000 0.42090  0.65310  0.93990  Biso   1.000  C
  C51      1.0000 0.48150  0.37450  0.12190  Biso   1.000  C
  C52      1.0000 0.51850  0.62550  0.87810  Biso   1.000  C
  H39      1.0000 0.47320  0.44300  0.15040  Biso   1.000  H
  H40      1.0000 0.52680  0.55700  0.84960  Biso   1.000  H
  C53      1.0000 0.39630  0.30310  0.14190  Biso   1.000  C
  C54      1.0000 0.60370  0.69690  0.85810  Biso   1.000  C
  H41      1.0000 0.33250  0.32330  0.18370  Biso   1.000  H
  H42      1.0000 0.66750  0.67670  0.81630  Biso   1.000  H
  C55      1.0000 0.66850  0.42500  0.03560  Biso   1.000  C
  C56      1.0000 0.33150  0.57500  0.96440  Biso   1.000  C
  C57      1.0000 0.74620  0.40980  0.95780  Biso   1.000  C
  C58      1.0000 0.25380  0.59020  0.04220  Biso   1.000  C
  H43      1.0000 0.74240  0.34910  0.92030  Biso   1.000  H
  H44      1.0000 0.25760  0.65090  0.07970  Biso   1.000  H
  C59      1.0000 0.82880  0.48250  0.93470  Biso   1.000  C
  C60      1.0000 0.17120  0.51750  0.06530  Biso   1.000  C
  H45      1.0000 0.87960  0.46990  0.88260  Biso   1.000  H
  H46      1.0000 0.12040  0.53010  0.11740  Biso   1.000  H
  C61      1.0000 0.83580  0.57380  0.98920  Biso   1.000  C
  C62      1.0000 0.16420  0.42620  0.01080  Biso   1.000  C
  C63      1.0000 0.75880  0.59140  0.06640  Biso   1.000  C
  C64      1.0000 0.24120  0.40860  0.93360  Biso   1.000  C
  H47      1.0000 0.76240  0.65260  0.10330  Biso   1.000  H
  H48      1.0000 0.23760  0.34740  0.89670  Biso   1.000  H
  C65      1.0000 0.67720  0.51860  0.08880  Biso   1.000  C
  C66      1.0000 0.32280  0.48140  0.91120  Biso   1.000  C
  H49      1.0000 0.62630  0.53200  0.14080  Biso   1.000  H
  H50      1.0000 0.37370  0.46800  0.85920  Biso   1.000  H
  C67      1.0000 0.98950  0.65210  0.88330  Biso   1.000  C
  C68      1.0000 0.01050  0.34790  0.11670  Biso   1.000  C
  H51      1.0000 0.99040  0.60450  0.83350  Biso   1.000  H
  H52      1.0000 0.00960  0.39550  0.16650  Biso   1.000  H
  C69      1.0000 0.94890  0.73420  0.01800  Biso   1.000  C
  C70      1.0000 0.05110  0.26580  0.98200  Biso   1.000  C
  H53      1.0000 0.91560  0.75130  0.07680  Biso   1.000  H
  H54      1.0000 0.08440  0.24870  0.92320  Biso   1.000  H
  C71      1.0000 0.05540  0.73740  0.89080  Biso   1.000  C
  C72      1.0000 0.94460  0.26260  0.10920  Biso   1.000  C
  H55      1.0000 0.10980  0.75820  0.84570  Biso   1.000  H
  H56      1.0000 0.89020  0.24180  0.15430  Biso   1.000  H
  O1       1.0000 0.15730  0.95990  0.85229  Biso   1.000  O
  O2       1.0000 0.84270  0.04010  0.14771  Biso   1.000  O
  H57      1.0000 0.20540  0.01040  0.84470  Biso   1.000  H
  H58      1.0000 0.79460  0.98960  0.15530  Biso   1.000  H
  H59      1.0000 0.07790  0.99910  0.82680  Biso   1.000  H
  H60      1.0000 0.92210  0.00090  0.17320  Biso   1.000  H
  O3       1.0000 0.34640  0.07420  0.81810  Biso   1.000  O
  O4       1.0000 0.65360  0.92580  0.18190  Biso   1.000  O
  O5       1.0000 0.22510  0.21571  0.75430  Biso   1.000  O
  O6       1.0000 0.77490  0.78429  0.24570  Biso   1.000  O
  O7       1.0000 0.73190  0.49060  0.65900  Biso   1.000  O
  O8       1.0000 0.26810  0.50940  0.34100  Biso   1.000  O
  O9       1.0000 0.85224  0.34897  0.72272  Biso   1.000  O
  O10      1.0000 0.14776  0.65103  0.27728  Biso   1.000  O
  C73      1.0000 0.63940  0.34050  0.72250  Biso   1.000  C
  C74      1.0000 0.36060  0.65950  0.27750  Biso   1.000  C
  C75      1.0000 0.52400  0.38800  0.69690  Biso   1.000  C
  C76      1.0000 0.47600  0.61200  0.30310  Biso   1.000  C
  H61      1.0000 0.51360  0.45780  0.66810  Biso   1.000  H
  H62      1.0000 0.48640  0.54220  0.33190  Biso   1.000  H
  C77      1.0000 0.42350  0.33250  0.71390  Biso   1.000  C
  C78      1.0000 0.57650  0.66750  0.28610  Biso   1.000  C
  H63      1.0000 0.34700  0.36530  0.69580  Biso   1.000  H
  H64      1.0000 0.65300  0.63470  0.30420  Biso   1.000  H
  C79      1.0000 0.43650  0.22830  0.75768  Biso   1.000  C
  C80      1.0000 0.56350  0.77170  0.24232  Biso   1.000  C
  C81      1.0000 0.55160  0.18070  0.78450  Biso   1.000  C
  C82      1.0000 0.44840  0.81930  0.21550  Biso   1.000  C
  H65      1.0000 0.56180  0.11150  0.81450  Biso   1.000  H
  H66      1.0000 0.43820  0.88850  0.18550  Biso   1.000  H
  C83      1.0000 0.65170  0.23640  0.76670  Biso   1.000  C
  C84      1.0000 0.34830  0.76360  0.23330  Biso   1.000  C
  H67      1.0000 0.72820  0.20350  0.78460  Biso   1.000  H
  H68      1.0000 0.27180  0.79650  0.21540  Biso   1.000  H
  C85      1.0000 0.32680  0.16750  0.77850  Biso   1.000  C
  C86      1.0000 0.67320  0.83250  0.22150  Biso   1.000  C
  C87      1.0000 0.75030  0.39920  0.70020  Biso   1.000  C
  C88      1.0000 0.24970  0.60080  0.29980  Biso   1.000  C
  O11      1.0000 0.99990  0.14810  0.76801  Biso   1.000  O
  O12      1.0000 0.00010  0.85190  0.23199  Biso   1.000  O
  H69      1.0000 0.07360  0.17470  0.76690  Biso   1.000  H
  H70      1.0000 0.92640  0.82530  0.23310  Biso   1.000  H
  H71      1.0000 0.99050  0.15350  0.71450  Biso   1.000  H
  H72      1.0000 0.00950  0.84650  0.28550  Biso   1.000  H
  O13      1.0000 0.07030  0.42800  0.72380  Biso   1.000  O
  O14      1.0000 0.92970  0.57200  0.27620  Biso   1.000  O
  H73      1.0000 0.99880  0.40240  0.71830  Biso   1.000  H
  H74      1.0000 0.00120  0.59760  0.28170  Biso   1.000  H
  H75      1.0000 0.11910  0.34730  0.73550  Biso   1.000  H
  H76      1.0000 0.88090  0.65270  0.26450  Biso   1.000  H
