data_image0
_cell_length_a       9.2279
_cell_length_b       9.4014
_cell_length_c       13.3663
_cell_angle_alpha    107.44
_cell_angle_beta     106.71
_cell_angle_gamma    93.48

_symmetry_space_group_name_H-M    "P 1"
_symmetry_int_tables_number       1

loop_
  _symmetry_equiv_pos_as_xyz
  'x, y, z'

loop_
  _atom_site_label
  _atom_site_occupancy
  _atom_site_fract_x
  _atom_site_fract_y
  _atom_site_fract_z
  _atom_site_thermal_displace_type
  _atom_site_B_iso_or_equiv
  _atom_site_type_symbol
  I1       1.0000 0.68726  0.38975  0.57143  Biso   1.000  I
  I2       1.0000 0.31274  0.61025  0.42857  Biso   1.000  I
  Cu1      1.0000 0.44137  0.50844  0.60067  Biso   1.000  Cu
  Cu2      1.0000 0.55863  0.49156  0.39933  Biso   1.000  Cu
  N1       1.0000 0.27970  0.32125  0.56545  Biso   1.000  N
  N2       1.0000 0.72030  0.67875  0.43455  Biso   1.000  N
  C1       1.0000 0.31775  0.20160  0.59580  Biso   1.000  C
  C2       1.0000 0.68225  0.79840  0.40420  Biso   1.000  C
  H1       1.0000 0.41880  0.20355  0.63490  Biso   1.000  H
  H2       1.0000 0.58120  0.79645  0.36510  Biso   1.000  H
  C3       1.0000 0.21130  0.07395  0.57105  Biso   1.000  C
  C4       1.0000 0.78870  0.92605  0.42895  Biso   1.000  C
  H3       1.0000 0.24310  0.99370  0.59295  Biso   1.000  H
  H4       1.0000 0.75690  0.00630  0.40705  Biso   1.000  H
  C5       1.0000 0.05950  0.06715  0.51460  Biso   1.000  C
  C6       1.0000 0.94050  0.93285  0.48540  Biso   1.000  C
  C7       1.0000 0.02000  0.19290  0.48480  Biso   1.000  C
  C8       1.0000 0.98000  0.80710  0.51520  Biso   1.000  C
  H5       1.0000 0.91910  0.19525  0.44755  Biso   1.000  H
  H6       1.0000 0.08090  0.80475  0.55245  Biso   1.000  H
  C9       1.0000 0.13280  0.31440  0.51115  Biso   1.000  C
  C10      1.0000 0.86720  0.68560  0.48885  Biso   1.000  C
  H7       1.0000 0.10410  0.39560  0.48910  Biso   1.000  H
  H8       1.0000 0.89590  0.60440  0.51090  Biso   1.000  H
  P1       1.0000 0.48890  0.70395  0.75765  Biso   1.000  P
  P2       1.0000 0.51110  0.29605  0.24235  Biso   1.000  P
  C11      1.0000 0.58155  0.66970  0.88765  Biso   1.000  C
  C12      1.0000 0.41845  0.33030  0.11235  Biso   1.000  C
  C13      1.0000 0.52750  0.70720  0.97765  Biso   1.000  C
  C14      1.0000 0.47250  0.29280  0.02235  Biso   1.000  C
  H9       1.0000 0.43880  0.74985  0.97320  Biso   1.000  H
  H10      1.0000 0.56120  0.25015  0.02680  Biso   1.000  H
  C15      1.0000 0.60700  0.68225  0.07445  Biso   1.000  C
  C16      1.0000 0.39300  0.31775  0.92555  Biso   1.000  C
  H11      1.0000 0.56995  0.70675  0.13425  Biso   1.000  H
  H12      1.0000 0.43005  0.29325  0.86575  Biso   1.000  H
  C17      1.0000 0.73800  0.62225  0.08200  Biso   1.000  C
  C18      1.0000 0.26200  0.37775  0.91800  Biso   1.000  C
  H13      1.0000 0.79150  0.60685  0.14680  Biso   1.000  H
  H14      1.0000 0.20850  0.39315  0.85320  Biso   1.000  H
  C19      1.0000 0.79150  0.58450  0.99440  Biso   1.000  C
  C20      1.0000 0.20850  0.41550  0.00560  Biso   1.000  C
  H15      1.0000 0.88145  0.54640  0.00140  Biso   1.000  H
  H16      1.0000 0.11855  0.45360  0.99860  Biso   1.000  H
  C21      1.0000 0.71450  0.60505  0.89690  Biso   1.000  C
  C22      1.0000 0.28550  0.39495  0.10310  Biso   1.000  C
  H17      1.0000 0.75070  0.57485  0.83715  Biso   1.000  H
  H18      1.0000 0.24930  0.42515  0.16285  Biso   1.000  H
  C23      1.0000 0.60675  0.87935  0.77635  Biso   1.000  C
  C24      1.0000 0.39325  0.12065  0.22365  Biso   1.000  C
  C25      1.0000 0.68585  0.98280  0.88000  Biso   1.000  C
  C26      1.0000 0.31415  0.01720  0.12000  Biso   1.000  C
  H19      1.0000 0.68270  0.96220  0.94325  Biso   1.000  H
  H20      1.0000 0.31730  0.03780  0.05675  Biso   1.000  H
  C27      1.0000 0.76980  0.11760  0.88980  Biso   1.000  C
  C28      1.0000 0.23020  0.88240  0.11020  Biso   1.000  C
  H21      1.0000 0.82335  0.18575  0.95955  Biso   1.000  H
  H22      1.0000 0.17665  0.81425  0.04045  Biso   1.000  H
  C29      1.0000 0.77395  0.14880  0.79695  Biso   1.000  C
  C30      1.0000 0.22605  0.85120  0.20305  Biso   1.000  C
  H23      1.0000 0.82685  0.24030  0.80380  Biso   1.000  H
  H24      1.0000 0.17315  0.75970  0.19620  Biso   1.000  H
  C31      1.0000 0.70030  0.04630  0.69450  Biso   1.000  C
  C32      1.0000 0.29970  0.95370  0.30550  Biso   1.000  C
  H25      1.0000 0.70620  0.06690  0.63185  Biso   1.000  H
  H26      1.0000 0.29380  0.93310  0.36815  Biso   1.000  H
  C33      1.0000 0.61700  0.91245  0.68320  Biso   1.000  C
  C34      1.0000 0.38300  0.08755  0.31680  Biso   1.000  C
  H27      1.0000 0.56750  0.84345  0.61300  Biso   1.000  H
  H28      1.0000 0.43250  0.15655  0.38700  Biso   1.000  H
  C35      1.0000 0.31065  0.76555  0.77590  Biso   1.000  C
  C36      1.0000 0.68935  0.23445  0.22410  Biso   1.000  C
  C37      1.0000 0.28745  0.91355  0.80765  Biso   1.000  C
  C38      1.0000 0.71255  0.08645  0.19235  Biso   1.000  C
  H29      1.0000 0.36590  0.99060  0.82090  Biso   1.000  H
  H30      1.0000 0.63410  0.00940  0.17910  Biso   1.000  H
  C39      1.0000 0.14855  0.94910  0.81995  Biso   1.000  C
  C40      1.0000 0.85145  0.05090  0.18005  Biso   1.000  C
  H31      1.0000 0.13385  0.04935  0.84020  Biso   1.000  H
  H32      1.0000 0.86615  0.95065  0.15980  Biso   1.000  H
  C41      1.0000 0.03260  0.83590  0.80220  Biso   1.000  C
  C42      1.0000 0.96740  0.16410  0.19780  Biso   1.000  C
  H33      1.0000 0.94045  0.85975  0.81220  Biso   1.000  H
  H34      1.0000 0.05955  0.14025  0.18780  Biso   1.000  H
  C43      1.0000 0.05360  0.68700  0.76940  Biso   1.000  C
  C44      1.0000 0.94640  0.31300  0.23060  Biso   1.000  C
  H35      1.0000 0.97545  0.61050  0.75680  Biso   1.000  H
  H36      1.0000 0.02455  0.38950  0.24320  Biso   1.000  H
  C45      1.0000 0.18995  0.65120  0.75515  Biso   1.000  C
  C46      1.0000 0.81005  0.34880  0.24485  Biso   1.000  C
  H37      1.0000 0.20255  0.55060  0.73155  Biso   1.000  H
  H38      1.0000 0.79745  0.44940  0.26845  Biso   1.000  H
