data_image0
_cell_length_a       9.2279
_cell_length_b       9.4014
_cell_length_c       13.3663
_cell_angle_alpha    107.445
_cell_angle_beta     106.707
_cell_angle_gamma    93.479

_symmetry_space_group_name_H-M    "P 1"
_symmetry_int_tables_number       1

loop_
  _symmetry_equiv_pos_as_xyz
  'x, y, z'

loop_
  _atom_site_label
  _atom_site_occupancy
  _atom_site_fract_x
  _atom_site_fract_y
  _atom_site_fract_z
  _atom_site_thermal_displace_type
  _atom_site_B_iso_or_equiv
  _atom_site_type_symbol
  I1       1.0000 0.18064  0.49985  0.74454  Biso   1.000  I
  I2       1.0000 0.80611  0.72035  0.60169  Biso   1.000  I
  Cu1      1.0000 0.93533  0.61837  0.77394  Biso   1.000  Cu
  Cu2      1.0000 0.05259  0.60150  0.57260  Biso   1.000  Cu
  P1       1.0000 0.98070  0.81400  0.93000  Biso   1.000  P
  P2       1.0000 0.00290  0.40610  0.41470  Biso   1.000  P
  N1       1.0000 0.76990  0.43350  0.73820  Biso   1.000  N
  N2       1.0000 0.21050  0.79100  0.60730  Biso   1.000  N
  C1       1.0000 0.80880  0.31280  0.76600  Biso   1.000  C
  H1       1.0000 0.91190  0.31060  0.79840  Biso   1.000  H
  C2       1.0000 0.69940  0.18800  0.74820  Biso   1.000  C
  H2       1.0000 0.72880  0.11330  0.77880  Biso   1.000  H
  C3       1.0000 0.55630  0.17790  0.68860  Biso   1.000  C
  C4       1.0000 0.51230  0.30790  0.66000  Biso   1.000  C
  H3       1.0000 0.41010  0.31440  0.62860  Biso   1.000  H
  C5       1.0000 0.62640  0.42040  0.68100  Biso   1.000  C
  H4       1.0000 0.59960  0.49660  0.65150  Biso   1.000  H
  C6       1.0000 0.43730  0.04360  0.65940  Biso   1.000  C
  C7       1.0000 0.47230  0.92210  0.69040  Biso   1.000  C
  H5       1.0000 0.57190  0.92390  0.73350  Biso   1.000  H
  C8       1.0000 0.27680  0.04010  0.60610  Biso   1.000  C
  H6       1.0000 0.24260  0.12590  0.59290  Biso   1.000  H
  C9       1.0000 0.36080  0.79160  0.65870  Biso   1.000  C
  H7       1.0000 0.39140  0.70540  0.67330  Biso   1.000  H
  C10      1.0000 0.17330  0.90960  0.57440  Biso   1.000  C
  H8       1.0000 0.07430  0.90350  0.52860  Biso   1.000  H
  C11      1.0000 0.91500  0.43830  0.28370  Biso   1.000  C
  C12      1.0000 0.95770  0.39940  0.19380  Biso   1.000  C
  H9       1.0000 0.04220  0.34980  0.19670  Biso   1.000  H
  C13      1.0000 0.88900  0.42560  0.09770  Biso   1.000  C
  H10      1.0000 0.93180  0.40450  0.04070  Biso   1.000  H
  C14      1.0000 0.75100  0.48550  0.08720  Biso   1.000  C
  H11      1.0000 0.69400  0.48960  0.01870  Biso   1.000  H
  C15      1.0000 0.69900  0.53900  0.17820  Biso   1.000  C
  H12      1.0000 0.61780  0.59350  0.17470  Biso   1.000  H
  C16      1.0000 0.77900  0.50570  0.28150  Biso   1.000  C
  H13      1.0000 0.74220  0.52760  0.34140  Biso   1.000  H
  C17      1.0000 0.88550  0.23210  0.39660  Biso   1.000  C
  C18      1.0000 0.81100  0.12230  0.29620  Biso   1.000  C
  H14      1.0000 0.81660  0.14310  0.23350  Biso   1.000  H
  C19      1.0000 0.73020  0.98680  0.27900  Biso   1.000  C
  H15      1.0000 0.68110  0.91700  0.20890  Biso   1.000  H
  C20      1.0000 0.72780  0.96070  0.38300  Biso   1.000  C
  H16      1.0000 0.67730  0.86970  0.37930  Biso   1.000  H
  C21      1.0000 0.79600  0.06450  0.47990  Biso   1.000  C
  H17      1.0000 0.79150  0.04520  0.54330  Biso   1.000  H
  C22      1.0000 0.87070  0.19500  0.49040  Biso   1.000  C
  H18      1.0000 0.91530  0.26540  0.56090  Biso   1.000  H
  C23      1.0000 0.18220  0.33980  0.39300  Biso   1.000  C
  C24      1.0000 0.20540  0.19400  0.36320  Biso   1.000  C
  H19      1.0000 0.12770  0.11690  0.35130  Biso   1.000  H
  C25      1.0000 0.34330  0.15980  0.35070  Biso   1.000  C
  H20      1.0000 0.36010  0.06010  0.33050  Biso   1.000  H
  C26      1.0000 0.46440  0.28500  0.37010  Biso   1.000  C
  H21      1.0000 0.55670  0.26560  0.35800  Biso   1.000  H
  C27      1.0000 0.43800  0.42600  0.40550  Biso   1.000  C
  H22      1.0000 0.51480  0.50580  0.42170  Biso   1.000  H
  C28      1.0000 0.30460  0.45680  0.41820  Biso   1.000  C
  H23      1.0000 0.29120  0.55690  0.44420  Biso   1.000  H
  C29      1.0000 0.09900  0.99080  0.94930  Biso   1.000  C
  C30      1.0000 0.10470  0.01990  0.85680  Biso   1.000  C
  H24      1.0000 0.05030  0.95230  0.78690  Biso   1.000  H
  C31      1.0000 0.19660  0.15710  0.86890  Biso   1.000  C
  H25      1.0000 0.20390  0.17900  0.80700  Biso   1.000  H
  C32      1.0000 0.27570  0.25830  0.97690  Biso   1.000  C
  H26      1.0000 0.33100  0.35030  0.98690  Biso   1.000  H
  C33      1.0000 0.26980  0.22200  0.05860  Biso   1.000  C
  H27      1.0000 0.32780  0.28850  0.12800  Biso   1.000  H
  C34      1.0000 0.18270  0.08790  0.05620  Biso   1.000  C
  H28      1.0000 0.18200  0.06750  0.12000  Biso   1.000  H
  C35      1.0000 0.07810  0.77770  0.05900  Biso   1.000  C
  C36      1.0000 0.20800  0.71580  0.07530  Biso   1.000  C
  H29      1.0000 0.24360  0.67730  0.01570  Biso   1.000  H
  C37      1.0000 0.28200  0.70800  0.16700  Biso   1.000  C
  H30      1.0000 0.38070  0.68630  0.17750  Biso   1.000  H
  C38      1.0000 0.22700  0.73000  0.25120  Biso   1.000  C
  H31      1.0000 0.27700  0.70330  0.31230  Biso   1.000  H
  C39      1.0000 0.10300  0.79010  0.24660  Biso   1.000  C
  H32      1.0000 0.07170  0.81800  0.30920  Biso   1.000  H
  C40      1.0000 0.01270  0.81380  0.14910  Biso   1.000  C
  H33      1.0000 0.91980  0.84950  0.14310  Biso   1.000  H
  C41      1.0000 0.80350  0.87090  0.94480  Biso   1.000  C
  C42      1.0000 0.78030  0.02110  0.97850  Biso   1.000  C
  H34      1.0000 0.85950  0.09810  0.99310  Biso   1.000  H
  C43      1.0000 0.64040  0.05800  0.99060  Biso   1.000  C
  H35      1.0000 0.62780  0.15880  0.01090  Biso   1.000  H
  C44      1.0000 0.52960  0.95680  0.97450  Biso   1.000  C
  H36      1.0000 0.43760  0.98510  0.98240  Biso   1.000  H
  C45      1.0000 0.54520  0.80000  0.94430  Biso   1.000  C
  H37      1.0000 0.46570  0.72680  0.93530  Biso   1.000  H
  C46      1.0000 0.68450  0.75920  0.92850  Biso   1.000  C
  H38      1.0000 0.69630  0.65810  0.90730  Biso   1.000  H
