data_image0
_cell_length_a       10.9539
_cell_length_b       11.4171
_cell_length_c       12.3377
_cell_angle_alpha    85.654
_cell_angle_beta     72.963
_cell_angle_gamma    69.624

_symmetry_space_group_name_H-M    "P 1"
_symmetry_int_tables_number       1

loop_
  _symmetry_equiv_pos_as_xyz
  'x, y, z'

loop_
  _atom_site_label
  _atom_site_occupancy
  _atom_site_fract_x
  _atom_site_fract_y
  _atom_site_fract_z
  _atom_site_thermal_displace_type
  _atom_site_B_iso_or_equiv
  _atom_site_type_symbol
  Cu1      1.0000 0.46384  0.58271  0.21598  Biso   1.000  Cu
  Cu2      1.0000 0.53616  0.41729  0.78402  Biso   1.000  Cu
  Cu3      1.0000 0.33558  0.99723  0.51702  Biso   1.000  Cu
  Cu4      1.0000 0.66442  0.00277  0.48298  Biso   1.000  Cu
  Mo1      1.0000 0.16800  0.48287  0.26686  Biso   1.000  Mo
  Mo2      1.0000 0.83200  0.51713  0.73314  Biso   1.000  Mo
  Mo3      1.0000 0.85263  0.45716  0.35489  Biso   1.000  Mo
  Mo4      1.0000 0.14737  0.54284  0.64511  Biso   1.000  Mo
  Mo5      1.0000 0.95918  0.66297  0.48071  Biso   1.000  Mo
  Mo6      1.0000 0.04082  0.33703  0.51929  Biso   1.000  Mo
  Mo7      1.0000 0.36201  0.36320  0.43091  Biso   1.000  Mo
  Mo8      1.0000 0.63799  0.63680  0.56909  Biso   1.000  Mo
  C1       1.0000 0.32330  0.85510  0.22800  Biso   1.000  C
  C2       1.0000 0.67670  0.14490  0.77200  Biso   1.000  C
  H1       1.0000 0.30680  0.85950  0.15770  Biso   1.000  H
  H2       1.0000 0.69320  0.14050  0.84230  Biso   1.000  H
  C3       1.0000 0.39290  0.78840  0.36770  Biso   1.000  C
  C4       1.0000 0.60710  0.21160  0.63230  Biso   1.000  C
  H3       1.0000 0.43500  0.73350  0.41610  Biso   1.000  H
  H4       1.0000 0.56500  0.26650  0.58390  Biso   1.000  H
  C5       1.0000 0.19420  0.08300  0.29600  Biso   1.000  C
  C6       1.0000 0.80580  0.91700  0.70400  Biso   1.000  C
  H5       1.0000 0.24870  0.13480  0.29370  Biso   1.000  H
  H6       1.0000 0.75130  0.86520  0.70630  Biso   1.000  H
  H7       1.0000 0.11850  0.10610  0.36440  Biso   1.000  H
  H8       1.0000 0.88150  0.89390  0.63560  Biso   1.000  H
  C7       1.0000 0.13930  0.10960  0.19340  Biso   1.000  C
  C8       1.0000 0.86070  0.89040  0.80660  Biso   1.000  C
  C9       1.0000 0.21210  0.15200  0.09500  Biso   1.000  C
  C10      1.0000 0.78790  0.84800  0.90500  Biso   1.000  C
  C11      1.0000 0.14980  0.19600  0.00780  Biso   1.000  C
  C12      1.0000 0.85020  0.80400  0.99220  Biso   1.000  C
  C13      1.0000 0.02480  0.18830  0.01440  Biso   1.000  C
  C14      1.0000 0.97520  0.81170  0.98560  Biso   1.000  C
  C15      1.0000 0.95790  0.13600  0.11010  Biso   1.000  C
  C16      1.0000 0.04210  0.86400  0.88990  Biso   1.000  C
  C17      1.0000 0.01190  0.09980  0.20170  Biso   1.000  C
  C18      1.0000 0.98810  0.90020  0.79830  Biso   1.000  C
  C19      1.0000 0.93940  0.04970  0.31070  Biso   1.000  C
  C20      1.0000 0.06060  0.95030  0.68930  Biso   1.000  C
  H9       1.0000 0.96980  0.06430  0.37230  Biso   1.000  H
  H10      1.0000 0.03020  0.93570  0.62770  Biso   1.000  H
  H11      1.0000 0.96000  0.96160  0.30110  Biso   1.000  H
  H12      1.0000 0.04000  0.03840  0.69890  Biso   1.000  H
  H13      1.0000 0.84310  0.09180  0.32710  Biso   1.000  H
  H14      1.0000 0.15690  0.90820  0.67290  Biso   1.000  H
  C21      1.0000 0.82840  0.11620  0.11000  Biso   1.000  C
  C22      1.0000 0.17160  0.88380  0.89000  Biso   1.000  C
  H15      1.0000 0.84620  0.06610  0.04340  Biso   1.000  H
  H16      1.0000 0.15380  0.93390  0.95660  Biso   1.000  H
  H17      1.0000 0.80100  0.06980  0.17630  Biso   1.000  H
  H18      1.0000 0.19900  0.93020  0.82370  Biso   1.000  H
  C23      1.0000 0.35350  0.15040  0.08450  Biso   1.000  C
  C24      1.0000 0.64650  0.84960  0.91550  Biso   1.000  C
  H19      1.0000 0.34860  0.21190  0.13600  Biso   1.000  H
  H20      1.0000 0.65140  0.78810  0.86400  Biso   1.000  H
  H21      1.0000 0.39460  0.16910  0.00820  Biso   1.000  H
  H22      1.0000 0.60540  0.83090  0.99180  Biso   1.000  H
  H23      1.0000 0.40720  0.06910  0.10250  Biso   1.000  H
  H24      1.0000 0.59280  0.93090  0.89750  Biso   1.000  H
  C25      1.0000 0.67830  0.34090  0.16700  Biso   1.000  C
  C26      1.0000 0.32170  0.65910  0.83300  Biso   1.000  C
  H25      1.0000 0.72140  0.35560  0.21660  Biso   1.000  H
  H26      1.0000 0.27860  0.64440  0.78340  Biso   1.000  H
  C27      1.0000 0.54500  0.35860  0.06740  Biso   1.000  C
  C28      1.0000 0.45500  0.64140  0.93260  Biso   1.000  C
  H27      1.0000 0.47330  0.39250  0.03570  Biso   1.000  H
  H28      1.0000 0.52670  0.60750  0.96430  Biso   1.000  H
  C29      1.0000 0.22300  0.25210  0.90540  Biso   1.000  C
  C30      1.0000 0.77700  0.74790  0.09460  Biso   1.000  C
  H29      1.0000 0.15780  0.32370  0.88190  Biso   1.000  H
  H30      1.0000 0.84220  0.67630  0.11810  Biso   1.000  H
  H31      1.0000 0.28720  0.28100  0.92550  Biso   1.000  H
  H32      1.0000 0.71280  0.71900  0.07450  Biso   1.000  H
  C31      1.0000 0.26940  0.16260  0.71230  Biso   1.000  C
  C32      1.0000 0.73060  0.83740  0.28770  Biso   1.000  C
  H33      1.0000 0.20610  0.22860  0.68780  Biso   1.000  H
  H34      1.0000 0.79390  0.77140  0.31220  Biso   1.000  H
  C33      1.0000 0.96020  0.23010  0.92060  Biso   1.000  C
  C34      1.0000 0.03980  0.76990  0.07940  Biso   1.000  C
  H35      1.0000 0.90190  0.31580  0.93430  Biso   1.000  H
  H36      1.0000 0.09810  0.68420  0.06570  Biso   1.000  H
  H37      1.0000 0.90760  0.17910  0.91740  Biso   1.000  H
  H38      1.0000 0.09240  0.82090  0.08260  Biso   1.000  H
  H39      1.0000 0.02940  0.22210  0.84990  Biso   1.000  H
  H40      1.0000 0.97060  0.77790  0.15010  Biso   1.000  H
  C35      1.0000 0.42560  0.99200  0.72270  Biso   1.000  C
  C36      1.0000 0.57440  0.00800  0.27730  Biso   1.000  C
  H41      1.0000 0.49420  0.91470  0.70340  Biso   1.000  H
  H42      1.0000 0.50580  0.08530  0.29660  Biso   1.000  H
  N1       1.0000 0.39500  0.75350  0.26880  Biso   1.000  N
  N2       1.0000 0.60500  0.24650  0.73120  Biso   1.000  N
  N3       1.0000 0.32570  0.90910  0.39370  Biso   1.000  N
  N4       1.0000 0.67430  0.09090  0.60630  Biso   1.000  N
  N5       1.0000 0.27750  0.95070  0.30130  Biso   1.000  N
  N6       1.0000 0.72250  0.04930  0.69870  Biso   1.000  N
  N7       1.0000 0.71510  0.23470  0.11050  Biso   1.000  N
  N8       1.0000 0.28490  0.76530  0.88950  Biso   1.000  N
  N9       1.0000 0.63100  0.24470  0.04490  Biso   1.000  N
  N10      1.0000 0.36900  0.75530  0.95510  Biso   1.000  N
  N11      1.0000 0.57090  0.42330  0.14240  Biso   1.000  N
  N12      1.0000 0.42910  0.57670  0.85760  Biso   1.000  N
  N13      1.0000 0.29560  0.16000  0.81100  Biso   1.000  N
  N14      1.0000 0.70440  0.84000  0.18900  Biso   1.000  N
  N15      1.0000 0.39100  0.05390  0.82140  Biso   1.000  N
  N16      1.0000 0.60900  0.94610  0.17860  Biso   1.000  N
  N17      1.0000 0.34780  0.05610  0.65330  Biso   1.000  N
  N18      1.0000 0.65220  0.94390  0.34670  Biso   1.000  N
  O1       1.0000 0.24070  0.59480  0.23360  Biso   1.000  O
  O2       1.0000 0.75930  0.40520  0.76640  Biso   1.000  O
  O3       1.0000 0.16390  0.43810  0.14180  Biso   1.000  O
  O4       1.0000 0.83610  0.56190  0.85820  Biso   1.000  O
  O5       1.0000 0.97730  0.59600  0.33380  Biso   1.000  O
  O6       1.0000 0.02270  0.40400  0.66620  Biso   1.000  O
  O7       1.0000 0.87270  0.46680  0.21370  Biso   1.000  O
  O8       1.0000 0.12730  0.53320  0.78630  Biso   1.000  O
  O9       1.0000 0.78060  0.34550  0.39600  Biso   1.000  O
  O10      1.0000 0.21940  0.65450  0.60400  Biso   1.000  O
  O11      1.0000 0.13210  0.50190  0.46600  Biso   1.000  O
  O12      1.0000 0.86790  0.49810  0.53400  Biso   1.000  O
  O13      1.0000 0.03990  0.36050  0.36040  Biso   1.000  O
  O14      1.0000 0.96010  0.63950  0.63960  Biso   1.000  O
  O15      1.0000 0.31370  0.34740  0.29690  Biso   1.000  O
  O16      1.0000 0.68630  0.65260  0.70310  Biso   1.000  O
  O17      1.0000 0.21630  0.25130  0.48920  Biso   1.000  O
  O18      1.0000 0.78370  0.74870  0.51080  Biso   1.000  O
  O19      1.0000 0.42740  0.48130  0.39030  Biso   1.000  O
  O20      1.0000 0.57260  0.51870  0.60970  Biso   1.000  O
  O21      1.0000 0.03580  0.77040  0.44290  Biso   1.000  O
  O22      1.0000 0.96420  0.22960  0.55710  Biso   1.000  O
  O23      1.0000 0.29830  0.39620  0.59040  Biso   1.000  O
  O24      1.0000 0.70170  0.60380  0.40960  Biso   1.000  O
  O25      1.0000 0.49940  0.23000  0.42200  Biso   1.000  O
  O26      1.0000 0.50060  0.77000  0.57800  Biso   1.000  O
  O27      1.0000 0.50000  0.00000  0.50000  Biso   1.000  O
