data_image0
_cell_length_a       14.465
_cell_length_b       14.55
_cell_length_c       15.7323
_cell_angle_alpha    90
_cell_angle_beta     109.896
_cell_angle_gamma    90

_symmetry_space_group_name_H-M    "P 1"
_symmetry_int_tables_number       1

loop_
  _symmetry_equiv_pos_as_xyz
  'x, y, z'

loop_
  _atom_site_label
  _atom_site_occupancy
  _atom_site_fract_x
  _atom_site_fract_y
  _atom_site_fract_z
  _atom_site_thermal_displace_type
  _atom_site_B_iso_or_equiv
  _atom_site_type_symbol
  W1       1.0000 0.75049  0.50000  0.14298  Biso   1.000  W
  W2       1.0000 0.24951  0.50000  0.85702  Biso   1.000  W
  W3       1.0000 0.25049  0.00000  0.64298  Biso   1.000  W
  W4       1.0000 0.74951  0.00000  0.35702  Biso   1.000  W
  W5       1.0000 0.66062  0.32680  0.97560  Biso   1.000  W
  W6       1.0000 0.33938  0.32680  0.02440  Biso   1.000  W
  W7       1.0000 0.16062  0.82680  0.47560  Biso   1.000  W
  W8       1.0000 0.83938  0.82680  0.52440  Biso   1.000  W
  W9       1.0000 0.33938  0.67320  0.02440  Biso   1.000  W
  W10      1.0000 0.66062  0.67320  0.97560  Biso   1.000  W
  W11      1.0000 0.83938  0.17320  0.52440  Biso   1.000  W
  W12      1.0000 0.16062  0.17320  0.47560  Biso   1.000  W
  W13      1.0000 0.42283  0.50000  0.19135  Biso   1.000  W
  W14      1.0000 0.57717  0.50000  0.80865  Biso   1.000  W
  W15      1.0000 0.92283  0.00000  0.69135  Biso   1.000  W
  W16      1.0000 0.07717  0.00000  0.30865  Biso   1.000  W
  W17      1.0000 0.58833  0.32723  0.17012  Biso   1.000  W
  W18      1.0000 0.41167  0.32723  0.82988  Biso   1.000  W
  W19      1.0000 0.08833  0.82723  0.67012  Biso   1.000  W
  W20      1.0000 0.91167  0.82723  0.32988  Biso   1.000  W
  W21      1.0000 0.41167  0.67277  0.82988  Biso   1.000  W
  W22      1.0000 0.58833  0.67277  0.17012  Biso   1.000  W
  W23      1.0000 0.91167  0.17277  0.32988  Biso   1.000  W
  W24      1.0000 0.08833  0.17277  0.67012  Biso   1.000  W
  Cu1      1.0000 0.94961  0.50000  0.37722  Biso   1.000  Cu
  Cu2      1.0000 0.05039  0.50000  0.62278  Biso   1.000  Cu
  Cu3      1.0000 0.44961  0.00000  0.87722  Biso   1.000  Cu
  Cu4      1.0000 0.55039  0.00000  0.12278  Biso   1.000  Cu
  Cu5      1.0000 0.58645  0.37851  0.42087  Biso   1.000  Cu
  Cu6      1.0000 0.41355  0.37851  0.57913  Biso   1.000  Cu
  Cu7      1.0000 0.08645  0.87851  0.92087  Biso   1.000  Cu
  Cu8      1.0000 0.91355  0.87851  0.07913  Biso   1.000  Cu
  Cu9      1.0000 0.41355  0.62149  0.57913  Biso   1.000  Cu
  Cu10     1.0000 0.58645  0.62149  0.42087  Biso   1.000  Cu
  Cu11     1.0000 0.91355  0.12149  0.07913  Biso   1.000  Cu
  Cu12     1.0000 0.08645  0.12149  0.92087  Biso   1.000  Cu
  Cu13     1.0000 0.32568  0.37698  0.37017  Biso   1.000  Cu
  Cu14     1.0000 0.67432  0.37698  0.62983  Biso   1.000  Cu
  Cu15     1.0000 0.82568  0.87698  0.87017  Biso   1.000  Cu
  Cu16     1.0000 0.17432  0.87698  0.12983  Biso   1.000  Cu
  Cu17     1.0000 0.67432  0.62302  0.62983  Biso   1.000  Cu
  Cu18     1.0000 0.32568  0.62302  0.37017  Biso   1.000  Cu
  Cu19     1.0000 0.17432  0.12302  0.12983  Biso   1.000  Cu
  Cu20     1.0000 0.82568  0.12302  0.87017  Biso   1.000  Cu
  Cu21     1.0000 0.45227  0.00000  0.36844  Biso   1.000  Cu
  Cu22     1.0000 0.54773  0.00000  0.63156  Biso   1.000  Cu
  Cu23     1.0000 0.95227  0.50000  0.86844  Biso   1.000  Cu
  Cu24     1.0000 0.04773  0.50000  0.13156  Biso   1.000  Cu
  Cl1      1.0000 0.50000  0.50000  0.50000  Biso   1.000  Cl
  Cl2      1.0000 0.00000  0.00000  0.00000  Biso   1.000  Cl
  P1       1.0000 0.50000  0.50000  0.00000  Biso   1.000  P
  P2       1.0000 0.00000  0.00000  0.50000  Biso   1.000  P
  O1       1.0000 0.69570  0.40970  0.19920  Biso   1.000  O
  O2       1.0000 0.30430  0.40970  0.80080  Biso   1.000  O
  O3       1.0000 0.19570  0.90970  0.69920  Biso   1.000  O
  O4       1.0000 0.80430  0.90970  0.30080  Biso   1.000  O
  O5       1.0000 0.30430  0.59030  0.80080  Biso   1.000  O
  O6       1.0000 0.69570  0.59030  0.19920  Biso   1.000  O
  O7       1.0000 0.80430  0.09030  0.30080  Biso   1.000  O
  O8       1.0000 0.19570  0.09030  0.69920  Biso   1.000  O
  O9       1.0000 0.74940  0.41120  0.05520  Biso   1.000  O
  O10      1.0000 0.25060  0.41120  0.94480  Biso   1.000  O
  O11      1.0000 0.24940  0.91120  0.55520  Biso   1.000  O
  O12      1.0000 0.75060  0.91120  0.44480  Biso   1.000  O
  O13      1.0000 0.25060  0.58880  0.94480  Biso   1.000  O
  O14      1.0000 0.74940  0.58880  0.05520  Biso   1.000  O
  O15      1.0000 0.75060  0.08880  0.44480  Biso   1.000  O
  O16      1.0000 0.24940  0.08880  0.55520  Biso   1.000  O
  O17      1.0000 0.87020  0.50000  0.20640  Biso   1.000  O
  O18      1.0000 0.12980  0.50000  0.79360  Biso   1.000  O
  O19      1.0000 0.37020  0.00000  0.70640  Biso   1.000  O
  O20      1.0000 0.62980  0.00000  0.29360  Biso   1.000  O
  O21      1.0000 0.73890  0.24630  0.96500  Biso   1.000  O
  O22      1.0000 0.26110  0.24630  0.03500  Biso   1.000  O
  O23      1.0000 0.23890  0.74630  0.46500  Biso   1.000  O
  O24      1.0000 0.76110  0.74630  0.53500  Biso   1.000  O
  O25      1.0000 0.26110  0.75370  0.03500  Biso   1.000  O
  O26      1.0000 0.73890  0.75370  0.96500  Biso   1.000  O
  O27      1.0000 0.76110  0.25370  0.53500  Biso   1.000  O
  O28      1.0000 0.23890  0.25370  0.46500  Biso   1.000  O
  O29      1.0000 0.53950  0.27860  0.89760  Biso   1.000  O
  O30      1.0000 0.46050  0.27860  0.10240  Biso   1.000  O
  O31      1.0000 0.03950  0.77860  0.39760  Biso   1.000  O
  O32      1.0000 0.96050  0.77860  0.60240  Biso   1.000  O
  O33      1.0000 0.46050  0.72140  0.10240  Biso   1.000  O
  O34      1.0000 0.53950  0.72140  0.89760  Biso   1.000  O
  O35      1.0000 0.96050  0.22140  0.60240  Biso   1.000  O
  O36      1.0000 0.03950  0.22140  0.39760  Biso   1.000  O
  O37      1.0000 0.62580  0.28270  0.07360  Biso   1.000  O
  O38      1.0000 0.37420  0.28270  0.92640  Biso   1.000  O
  O39      1.0000 0.12580  0.78270  0.57360  Biso   1.000  O
  O40      1.0000 0.87420  0.78270  0.42640  Biso   1.000  O
  O41      1.0000 0.37420  0.71730  0.92640  Biso   1.000  O
  O42      1.0000 0.62580  0.71730  0.07360  Biso   1.000  O
  O43      1.0000 0.87420  0.21730  0.42640  Biso   1.000  O
  O44      1.0000 0.12580  0.21730  0.57360  Biso   1.000  O
  O45      1.0000 0.52360  0.59040  0.22470  Biso   1.000  O
  O46      1.0000 0.47640  0.59040  0.77530  Biso   1.000  O
  O47      1.0000 0.02360  0.09040  0.72470  Biso   1.000  O
  O48      1.0000 0.97640  0.09040  0.27530  Biso   1.000  O
  O49      1.0000 0.47640  0.40960  0.77530  Biso   1.000  O
  O50      1.0000 0.52360  0.40960  0.22470  Biso   1.000  O
  O51      1.0000 0.97640  0.90960  0.27530  Biso   1.000  O
  O52      1.0000 0.02360  0.90960  0.72470  Biso   1.000  O
  O53      1.0000 0.38660  0.50000  0.28110  Biso   1.000  O
  O54      1.0000 0.61340  0.50000  0.71890  Biso   1.000  O
  O55      1.0000 0.88660  0.00000  0.78110  Biso   1.000  O
  O56      1.0000 0.11340  0.00000  0.21890  Biso   1.000  O
  O57      1.0000 0.33950  0.40930  0.11810  Biso   1.000  O
  O58      1.0000 0.66050  0.40930  0.88190  Biso   1.000  O
  O59      1.0000 0.83950  0.90930  0.61810  Biso   1.000  O
  O60      1.0000 0.16050  0.90930  0.38190  Biso   1.000  O
  O61      1.0000 0.66050  0.59070  0.88190  Biso   1.000  O
  O62      1.0000 0.33950  0.59070  0.11810  Biso   1.000  O
  O63      1.0000 0.16050  0.09070  0.38190  Biso   1.000  O
  O64      1.0000 0.83950  0.09070  0.61810  Biso   1.000  O
  O65      1.0000 0.47230  0.43590  0.06790  Biso   1.000  O
  O66      1.0000 0.52770  0.43590  0.93210  Biso   1.000  O
  O67      1.0000 0.97230  0.93590  0.56790  Biso   1.000  O
  O68      1.0000 0.02770  0.93590  0.43210  Biso   1.000  O
  O69      1.0000 0.52770  0.56410  0.93210  Biso   1.000  O
  O70      1.0000 0.47230  0.56410  0.06790  Biso   1.000  O
  O71      1.0000 0.02770  0.06410  0.43210  Biso   1.000  O
  O72      1.0000 0.97230  0.06410  0.56790  Biso   1.000  O
  O73      1.0000 0.41180  0.55680  0.94780  Biso   1.000  O
  O74      1.0000 0.58820  0.55680  0.05220  Biso   1.000  O
  O75      1.0000 0.91180  0.05680  0.44780  Biso   1.000  O
  O76      1.0000 0.08820  0.05680  0.55220  Biso   1.000  O
  O77      1.0000 0.58820  0.44320  0.05220  Biso   1.000  O
  O78      1.0000 0.41180  0.44320  0.94780  Biso   1.000  O
  O79      1.0000 0.08820  0.94320  0.55220  Biso   1.000  O
  O80      1.0000 0.91180  0.94320  0.44780  Biso   1.000  O
  O81      1.0000 0.62950  0.24530  0.24960  Biso   1.000  O
  O82      1.0000 0.37050  0.24530  0.75040  Biso   1.000  O
  O83      1.0000 0.12950  0.74530  0.74960  Biso   1.000  O
  O84      1.0000 0.87050  0.74530  0.25040  Biso   1.000  O
  O85      1.0000 0.37050  0.75470  0.75040  Biso   1.000  O
  O86      1.0000 0.62950  0.75470  0.24960  Biso   1.000  O
  O87      1.0000 0.87050  0.25470  0.25040  Biso   1.000  O
  O88      1.0000 0.12950  0.25470  0.74960  Biso   1.000  O
  N1       1.0000 0.07580  0.50000  0.36200  Biso   1.000  N
  N2       1.0000 0.92420  0.50000  0.63800  Biso   1.000  N
  N3       1.0000 0.57580  0.00000  0.86200  Biso   1.000  N
  N4       1.0000 0.42420  0.00000  0.13800  Biso   1.000  N
  N5       1.0000 0.82930  0.50000  0.39790  Biso   1.000  N
  N6       1.0000 0.17070  0.50000  0.60210  Biso   1.000  N
  N7       1.0000 0.32930  0.00000  0.89790  Biso   1.000  N
  N8       1.0000 0.67070  0.00000  0.10210  Biso   1.000  N
  N9       1.0000 0.69300  0.45240  0.41650  Biso   1.000  N
  N10      1.0000 0.30700  0.45240  0.58350  Biso   1.000  N
  N11      1.0000 0.19300  0.95240  0.91650  Biso   1.000  N
  N12      1.0000 0.80700  0.95240  0.08350  Biso   1.000  N
  N13      1.0000 0.30700  0.54760  0.58350  Biso   1.000  N
  N14      1.0000 0.69300  0.54760  0.41650  Biso   1.000  N
  N15      1.0000 0.80700  0.04760  0.08350  Biso   1.000  N
  N16      1.0000 0.19300  0.04760  0.91650  Biso   1.000  N
  N17      1.0000 0.21640  0.54640  0.35940  Biso   1.000  N
  N18      1.0000 0.78360  0.54640  0.64060  Biso   1.000  N
  N19      1.0000 0.71640  0.04640  0.85940  Biso   1.000  N
  N20      1.0000 0.28360  0.04640  0.14060  Biso   1.000  N
  N21      1.0000 0.78360  0.45360  0.64060  Biso   1.000  N
  N22      1.0000 0.21640  0.45360  0.35940  Biso   1.000  N
  N23      1.0000 0.28360  0.95360  0.14060  Biso   1.000  N
  N24      1.0000 0.71640  0.95360  0.85940  Biso   1.000  N
  N25      1.0000 0.50500  0.27160  0.39650  Biso   1.000  N
  N26      1.0000 0.49500  0.27160  0.60350  Biso   1.000  N
  N27      1.0000 0.00500  0.77160  0.89650  Biso   1.000  N
  N28      1.0000 0.99500  0.77160  0.10350  Biso   1.000  N
  N29      1.0000 0.49500  0.72840  0.60350  Biso   1.000  N
  N30      1.0000 0.50500  0.72840  0.39650  Biso   1.000  N
  N31      1.0000 0.99500  0.22840  0.10350  Biso   1.000  N
  N32      1.0000 0.00500  0.22840  0.89650  Biso   1.000  N
  N33      1.0000 0.40420  0.27320  0.37210  Biso   1.000  N
  N34      1.0000 0.59580  0.27320  0.62790  Biso   1.000  N
  N35      1.0000 0.90420  0.77320  0.87210  Biso   1.000  N
  N36      1.0000 0.09580  0.77320  0.12790  Biso   1.000  N
  N37      1.0000 0.59580  0.72680  0.62790  Biso   1.000  N
  N38      1.0000 0.40420  0.72680  0.37210  Biso   1.000  N
  N39      1.0000 0.09580  0.22680  0.12790  Biso   1.000  N
  N40      1.0000 0.90420  0.22680  0.87210  Biso   1.000  N
  N41      1.0000 0.45020  0.12940  0.37270  Biso   1.000  N
  N42      1.0000 0.54980  0.12940  0.62730  Biso   1.000  N
  N43      1.0000 0.95020  0.62940  0.87270  Biso   1.000  N
  N44      1.0000 0.04980  0.62940  0.12730  Biso   1.000  N
  N45      1.0000 0.54980  0.87060  0.62730  Biso   1.000  N
  N46      1.0000 0.45020  0.87060  0.37270  Biso   1.000  N
  N47      1.0000 0.04980  0.37060  0.12730  Biso   1.000  N
  N48      1.0000 0.95020  0.37060  0.87270  Biso   1.000  N
  C1       1.0000 0.12950  0.57240  0.36080  Biso   1.000  C
  C2       1.0000 0.87050  0.57240  0.63920  Biso   1.000  C
  C3       1.0000 0.62950  0.07240  0.86080  Biso   1.000  C
  C4       1.0000 0.37050  0.07240  0.13920  Biso   1.000  C
  C5       1.0000 0.87050  0.42760  0.63920  Biso   1.000  C
  C6       1.0000 0.12950  0.42760  0.36080  Biso   1.000  C
  C7       1.0000 0.37050  0.92760  0.13920  Biso   1.000  C
  C8       1.0000 0.62950  0.92760  0.86080  Biso   1.000  C
  H1       1.0000 0.10930  0.63310  0.36090  Biso   1.000  H
  H2       1.0000 0.89070  0.63310  0.63910  Biso   1.000  H
  H3       1.0000 0.60930  0.13310  0.86090  Biso   1.000  H
  H4       1.0000 0.39070  0.13310  0.13910  Biso   1.000  H
  H5       1.0000 0.89070  0.36690  0.63910  Biso   1.000  H
  H6       1.0000 0.10930  0.36690  0.36090  Biso   1.000  H
  H7       1.0000 0.39070  0.86690  0.13910  Biso   1.000  H
  H8       1.0000 0.60930  0.86690  0.86090  Biso   1.000  H
  C9       1.0000 0.77580  0.42680  0.40610  Biso   1.000  C
  C10      1.0000 0.22420  0.42680  0.59390  Biso   1.000  C
  C11      1.0000 0.27580  0.92680  0.90610  Biso   1.000  C
  C12      1.0000 0.72420  0.92680  0.09390  Biso   1.000  C
  C13      1.0000 0.22420  0.57320  0.59390  Biso   1.000  C
  C14      1.0000 0.77580  0.57320  0.40610  Biso   1.000  C
  C15      1.0000 0.72420  0.07320  0.09390  Biso   1.000  C
  C16      1.0000 0.27580  0.07320  0.90610  Biso   1.000  C
  H9       1.0000 0.79490  0.36600  0.40460  Biso   1.000  H
  H10      1.0000 0.20510  0.36600  0.59540  Biso   1.000  H
  H11      1.0000 0.29490  0.86600  0.90460  Biso   1.000  H
  H12      1.0000 0.70510  0.86600  0.09540  Biso   1.000  H
  H13      1.0000 0.20510  0.63400  0.59540  Biso   1.000  H
  H14      1.0000 0.79490  0.63400  0.40460  Biso   1.000  H
  H15      1.0000 0.70510  0.13400  0.09540  Biso   1.000  H
  H16      1.0000 0.29490  0.13400  0.90460  Biso   1.000  H
  C17      1.0000 0.52830  0.18750  0.39280  Biso   1.000  C
  C18      1.0000 0.47170  0.18750  0.60720  Biso   1.000  C
  C19      1.0000 0.02830  0.68750  0.89280  Biso   1.000  C
  C20      1.0000 0.97170  0.68750  0.10720  Biso   1.000  C
  C21      1.0000 0.47170  0.81250  0.60720  Biso   1.000  C
  C22      1.0000 0.52830  0.81250  0.39280  Biso   1.000  C
  C23      1.0000 0.97170  0.31250  0.10720  Biso   1.000  C
  C24      1.0000 0.02830  0.31250  0.89280  Biso   1.000  C
  H17      1.0000 0.59230  0.16790  0.40290  Biso   1.000  H
  H18      1.0000 0.40770  0.16790  0.59710  Biso   1.000  H
  H19      1.0000 0.09230  0.66790  0.90290  Biso   1.000  H
  H20      1.0000 0.90770  0.66790  0.09710  Biso   1.000  H
  H21      1.0000 0.40770  0.83210  0.59710  Biso   1.000  H
  H22      1.0000 0.59230  0.83210  0.40290  Biso   1.000  H
  H23      1.0000 0.90770  0.33210  0.09710  Biso   1.000  H
  H24      1.0000 0.09230  0.33210  0.90290  Biso   1.000  H
  C25      1.0000 0.37760  0.18580  0.35850  Biso   1.000  C
  C26      1.0000 0.62240  0.18580  0.64150  Biso   1.000  C
  C27      1.0000 0.87760  0.68580  0.85850  Biso   1.000  C
  C28      1.0000 0.12240  0.68580  0.14150  Biso   1.000  C
  C29      1.0000 0.62240  0.81420  0.64150  Biso   1.000  C
  C30      1.0000 0.37760  0.81420  0.35850  Biso   1.000  C
  C31      1.0000 0.12240  0.31420  0.14150  Biso   1.000  C
  C32      1.0000 0.87760  0.31420  0.85850  Biso   1.000  C
  H25      1.0000 0.31240  0.16680  0.34030  Biso   1.000  H
  H26      1.0000 0.68760  0.16680  0.65970  Biso   1.000  H
  H27      1.0000 0.81240  0.66680  0.84030  Biso   1.000  H
  H28      1.0000 0.18760  0.66680  0.15970  Biso   1.000  H
  H29      1.0000 0.68760  0.83320  0.65970  Biso   1.000  H
  H30      1.0000 0.31240  0.83320  0.34030  Biso   1.000  H
  H31      1.0000 0.18760  0.33320  0.15970  Biso   1.000  H
  H32      1.0000 0.81240  0.33320  0.84030  Biso   1.000  H
