data_image0
_cell_length_a       12.3635
_cell_length_b       13.2905
_cell_length_c       13.905
_cell_angle_alpha    88.053
_cell_angle_beta     68.583
_cell_angle_gamma    64.326

_symmetry_space_group_name_H-M    "P 1"
_symmetry_int_tables_number       1

loop_
  _symmetry_equiv_pos_as_xyz
  'x, y, z'

loop_
  _atom_site_label
  _atom_site_occupancy
  _atom_site_fract_x
  _atom_site_fract_y
  _atom_site_fract_z
  _atom_site_thermal_displace_type
  _atom_site_B_iso_or_equiv
  _atom_site_type_symbol
  Cu1      1.0000 0.67700  0.94900  0.94470  Biso   1.000  Cu
  Cu2      1.0000 0.32300  0.05100  0.05530  Biso   1.000  Cu
  Cu3      1.0000 0.56760  0.36540  0.04630  Biso   1.000  Cu
  Cu4      1.0000 0.43240  0.63460  0.95370  Biso   1.000  Cu
  Si1      1.0000 0.00000  0.50000  0.50000  Biso   1.000  Si
  W1       1.0000 0.21433  0.21435  0.48748  Biso   1.000  W
  W2       1.0000 0.78567  0.78565  0.51252  Biso   1.000  W
  W3       1.0000 0.29477  0.42753  0.53161  Biso   1.000  W
  W4       1.0000 0.70523  0.57247  0.46839  Biso   1.000  W
  W5       1.0000 0.83050  0.68492  0.73988  Biso   1.000  W
  W6       1.0000 0.16950  0.31508  0.26012  Biso   1.000  W
  W7       1.0000 0.03667  0.39639  0.72740  Biso   1.000  W
  W8       1.0000 0.96333  0.60361  0.27260  Biso   1.000  W
  W9       1.0000 0.91544  0.28747  0.46231  Biso   1.000  W
  W10      1.0000 0.08456  0.71253  0.53769  Biso   1.000  W
  W11      1.0000 0.74050  0.47641  0.69922  Biso   1.000  W
  W12      1.0000 0.25950  0.52359  0.30078  Biso   1.000  W
  S1       1.0000 0.73870  0.04380  0.69590  Biso   1.000  S
  S2       1.0000 0.26130  0.95620  0.30410  Biso   1.000  S
  S3       1.0000 0.72340  0.18650  0.87630  Biso   1.000  S
  S4       1.0000 0.27660  0.81350  0.12370  Biso   1.000  S
  S5       1.0000 0.85890  0.35090  0.05840  Biso   1.000  S
  S6       1.0000 0.14110  0.64910  0.94160  Biso   1.000  S
  S7       1.0000 0.63570  0.39110  0.27380  Biso   1.000  S
  S8       1.0000 0.36430  0.60890  0.72620  Biso   1.000  S
  O1       1.0000 0.31200  0.07900  0.48500  Biso   1.000  O
  O2       1.0000 0.68800  0.92100  0.51500  Biso   1.000  O
  O3       1.0000 0.97100  0.96100  0.38200  Biso   1.000  O
  O4       1.0000 0.02900  0.03900  0.61800  Biso   1.000  O
  O5       1.0000 0.43300  0.39400  0.54800  Biso   1.000  O
  O6       1.0000 0.56700  0.60600  0.45200  Biso   1.000  O
  O7       1.0000 0.75000  0.77300  0.85300  Biso   1.000  O
  O8       1.0000 0.25000  0.22700  0.14700  Biso   1.000  O
  O9       1.0000 0.05800  0.34400  0.83500  Biso   1.000  O
  O10      1.0000 0.94200  0.65600  0.16500  Biso   1.000  O
  O11      1.0000 0.87700  0.18900  0.44300  Biso   1.000  O
  O12      1.0000 0.12300  0.81100  0.55700  Biso   1.000  O
  O13      1.0000 0.61900  0.46200  0.79300  Biso   1.000  O
  O14      1.0000 0.38100  0.53800  0.20700  Biso   1.000  O
  O15      1.0000 0.92900  0.50600  0.62900  Biso   1.000  O
  O16      1.0000 0.07100  0.49400  0.37100  Biso   1.000  O
  O17      1.0000 0.05900  0.36700  0.44900  Biso   1.000  O
  O18      1.0000 0.94100  0.63300  0.55100  Biso   1.000  O
  O19      1.0000 0.12000  0.52600  0.48400  Biso   1.000  O
  O20      1.0000 0.88000  0.47400  0.51600  Biso   1.000  O
  O21      1.0000 0.10300  0.41400  0.53900  Biso   1.000  O
  O22      1.0000 0.89700  0.58600  0.46100  Biso   1.000  O
  O23      1.0000 0.88100  0.40300  0.73500  Biso   1.000  O
  O24      1.0000 0.11900  0.59700  0.26500  Biso   1.000  O
  O25      1.0000 0.97000  0.71900  0.67400  Biso   1.000  O
  O26      1.0000 0.03000  0.28100  0.32600  Biso   1.000  O
  O27      1.0000 0.18800  0.42000  0.66800  Biso   1.000  O
  O28      1.0000 0.81200  0.58000  0.33200  Biso   1.000  O
  O29      1.0000 0.93600  0.55500  0.78200  Biso   1.000  O
  O30      1.0000 0.06400  0.44500  0.21800  Biso   1.000  O
  O31      1.0000 0.21200  0.58600  0.56400  Biso   1.000  O
  O32      1.0000 0.78800  0.41400  0.43600  Biso   1.000  O
  O33      1.0000 0.81500  0.33900  0.60900  Biso   1.000  O
  O34      1.0000 0.18500  0.66100  0.39100  Biso   1.000  O
  O35      1.0000 0.05800  0.20600  0.49900  Biso   1.000  O
  O36      1.0000 0.94200  0.79400  0.50100  Biso   1.000  O
  O37      1.0000 0.74700  0.77300  0.65300  Biso   1.000  O
  O38      1.0000 0.25300  0.22700  0.34700  Biso   1.000  O
  O39      1.0000 0.72400  0.60900  0.75200  Biso   1.000  O
  O40      1.0000 0.27600  0.39100  0.24800  Biso   1.000  O
  O41      1.0000 0.32000  0.27800  0.48500  Biso   1.000  O
  O42      1.0000 0.68000  0.72200  0.51500  Biso   1.000  O
  O43      1.0000 0.12600  0.26400  0.63200  Biso   1.000  O
  O44      1.0000 0.87400  0.73600  0.36800  Biso   1.000  O
  O45      1.0000 0.65800  0.55400  0.61300  Biso   1.000  O
  O46      1.0000 0.34200  0.44600  0.38700  Biso   1.000  O
  N1       1.0000 0.55300  0.03800  0.87200  Biso   1.000  N
  N2       1.0000 0.44700  0.96200  0.12800  Biso   1.000  N
  N3       1.0000 0.42400  0.06600  0.91200  Biso   1.000  N
  N4       1.0000 0.57600  0.93400  0.08800  Biso   1.000  N
  N5       1.0000 0.37900  0.10700  0.84300  Biso   1.000  N
  N6       1.0000 0.62100  0.89300  0.15700  Biso   1.000  N
  N7       1.0000 0.47700  0.10800  0.76100  Biso   1.000  N
  N8       1.0000 0.52300  0.89200  0.23900  Biso   1.000  N
  N9       1.0000 0.83900  0.96800  0.90600  Biso   1.000  N
  N10      1.0000 0.16100  0.03200  0.09400  Biso   1.000  N
  N11      1.0000 0.95400  0.89200  0.90600  Biso   1.000  N
  N12      1.0000 0.04600  0.10800  0.09400  Biso   1.000  N
  N13      1.0000 0.03900  0.93400  0.87900  Biso   1.000  N
  N14      1.0000 0.96100  0.06600  0.12100  Biso   1.000  N
  N15      1.0000 0.96700  0.04400  0.86300  Biso   1.000  N
  N16      1.0000 0.03300  0.95600  0.13700  Biso   1.000  N
  N17      1.0000 0.63900  0.47400  0.01900  Biso   1.000  N
  N18      1.0000 0.36100  0.52600  0.98100  Biso   1.000  N
  N19      1.0000 0.57100  0.58500  0.00800  Biso   1.000  N
  N20      1.0000 0.42900  0.41500  0.99200  Biso   1.000  N
  N21      1.0000 0.62800  0.64600  0.01500  Biso   1.000  N
  N22      1.0000 0.37200  0.35400  0.98500  Biso   1.000  N
  N23      1.0000 0.74000  0.57000  0.03100  Biso   1.000  N
  N24      1.0000 0.26000  0.43000  0.96900  Biso   1.000  N
  N25      1.0000 0.60500  0.26000  0.14700  Biso   1.000  N
  N26      1.0000 0.39500  0.74000  0.85300  Biso   1.000  N
  N27      1.0000 0.60500  0.16000  0.14600  Biso   1.000  N
  N28      1.0000 0.39500  0.84000  0.85400  Biso   1.000  N
  N29      1.0000 0.62000  0.11900  0.22700  Biso   1.000  N
  N30      1.0000 0.38000  0.88100  0.77300  Biso   1.000  N
  N31      1.0000 0.64100  0.18600  0.27400  Biso   1.000  N
  N32      1.0000 0.35900  0.81400  0.72600  Biso   1.000  N
  C1       1.0000 0.58300  0.06100  0.78100  Biso   1.000  C
  C2       1.0000 0.41700  0.93900  0.21900  Biso   1.000  C
  C3       1.0000 0.73800  0.17400  0.74700  Biso   1.000  C
  C4       1.0000 0.26200  0.82600  0.25300  Biso   1.000  C
  H1       1.0000 0.81880  0.17540  0.70240  Biso   1.000  H
  H2       1.0000 0.18120  0.82460  0.29760  Biso   1.000  H
  H3       1.0000 0.66740  0.23930  0.73940  Biso   1.000  H
  H4       1.0000 0.33260  0.76070  0.26060  Biso   1.000  H
  C5       1.0000 0.85200  0.06200  0.87900  Biso   1.000  C
  C6       1.0000 0.14800  0.93800  0.12100  Biso   1.000  C
  C7       1.0000 0.45300  0.14300  0.66800  Biso   1.000  C
  C8       1.0000 0.54700  0.85700  0.33200  Biso   1.000  C
  H5       1.0000 0.53080  0.13870  0.61500  Biso   1.000  H
  H6       1.0000 0.46920  0.86130  0.38500  Biso   1.000  H
  H7       1.0000 0.38470  0.21870  0.68430  Biso   1.000  H
  H8       1.0000 0.61530  0.78130  0.31570  Biso   1.000  H
  H9       1.0000 0.42670  0.09350  0.64380  Biso   1.000  H
  H10      1.0000 0.57330  0.90650  0.35620  Biso   1.000  H
  C9       1.0000 0.02700  0.12400  0.81600  Biso   1.000  C
  C10      1.0000 0.97300  0.87600  0.18400  Biso   1.000  C
  H11      1.0000 0.96010  0.19450  0.81330  Biso   1.000  H
  H12      1.0000 0.03990  0.80550  0.18670  Biso   1.000  H
  H13      1.0000 0.09150  0.09010  0.74680  Biso   1.000  H
  H14      1.0000 0.90850  0.90990  0.25320  Biso   1.000  H
  H15      1.0000 0.06760  0.13590  0.85890  Biso   1.000  H
  H16      1.0000 0.93240  0.86410  0.14110  Biso   1.000  H
  C11      1.0000 0.74500  0.47500  0.03400  Biso   1.000  C
  C12      1.0000 0.25500  0.52500  0.96600  Biso   1.000  C
  C13      1.0000 0.80200  0.36600  0.19800  Biso   1.000  C
  C14      1.0000 0.19800  0.63400  0.80200  Biso   1.000  C
  H17      1.0000 0.85910  0.29740  0.21560  Biso   1.000  H
  H18      1.0000 0.14090  0.70260  0.78440  Biso   1.000  H
  H19      1.0000 0.81320  0.42710  0.22090  Biso   1.000  H
  H20      1.0000 0.18680  0.57290  0.77910  Biso   1.000  H
  C15      1.0000 0.63200  0.26800  0.22900  Biso   1.000  C
  C16      1.0000 0.36800  0.73200  0.77100  Biso   1.000  C
  C17      1.0000 0.81700  0.61400  0.04800  Biso   1.000  C
  C18      1.0000 0.18300  0.38600  0.95200  Biso   1.000  C
  H21      1.0000 0.88970  0.55410  0.05840  Biso   1.000  H
  H22      1.0000 0.11030  0.44590  0.94160  Biso   1.000  H
  H23      1.0000 0.76620  0.67040  0.10880  Biso   1.000  H
  H24      1.0000 0.23380  0.32960  0.89120  Biso   1.000  H
  H25      1.0000 0.84920  0.64680  0.98830  Biso   1.000  H
  H26      1.0000 0.15080  0.35320  0.01170  Biso   1.000  H
  C19      1.0000 0.66300  0.15200  0.37200  Biso   1.000  C
  C20      1.0000 0.33700  0.84800  0.62800  Biso   1.000  C
  H27      1.0000 0.67730  0.20800  0.40120  Biso   1.000  H
  H28      1.0000 0.32270  0.79200  0.59880  Biso   1.000  H
  H29      1.0000 0.58860  0.14730  0.42170  Biso   1.000  H
  H30      1.0000 0.41140  0.85270  0.57830  Biso   1.000  H
  H31      1.0000 0.73870  0.08040  0.35580  Biso   1.000  H
  H32      1.0000 0.26130  0.91960  0.64420  Biso   1.000  H
