data_image0
_cell_length_a       13.784
_cell_length_b       15.939
_cell_length_c       17.512
_cell_angle_alpha    79.346
_cell_angle_beta     81.562
_cell_angle_gamma    79.064

_symmetry_space_group_name_H-M    "P 1"
_symmetry_int_tables_number       1

loop_
  _symmetry_equiv_pos_as_xyz
  'x, y, z'

loop_
  _atom_site_label
  _atom_site_occupancy
  _atom_site_fract_x
  _atom_site_fract_y
  _atom_site_fract_z
  _atom_site_thermal_displace_type
  _atom_site_B_iso_or_equiv
  _atom_site_type_symbol
  Cu1      1.0000 0.69210  0.18850  0.06452  Biso   1.000  Cu
  Cu2      1.0000 0.30790  0.81150  0.93548  Biso   1.000  Cu
  Cu3      1.0000 0.87280  0.07648  0.17244  Biso   1.000  Cu
  Cu4      1.0000 0.12720  0.92352  0.82756  Biso   1.000  Cu
  Cu5      1.0000 0.90980  0.18614  0.31758  Biso   1.000  Cu
  Cu6      1.0000 0.09020  0.81386  0.68242  Biso   1.000  Cu
  Cu7      1.0000 0.94990  0.35770  0.40500  Biso   1.000  Cu
  Cu8      1.0000 0.05010  0.64230  0.59500  Biso   1.000  Cu
  Si1      1.0000 0.50000  0.00000  0.50000  Biso   1.000  Si
  Si2      1.0000 0.00000  0.50000  0.00000  Biso   1.000  Si
  W1       1.0000 0.66603  0.13348  0.52346  Biso   1.000  W
  W2       1.0000 0.33397  0.86652  0.47654  Biso   1.000  W
  W3       1.0000 0.54821  0.88219  0.34249  Biso   1.000  W
  W4       1.0000 0.45179  0.11781  0.65751  Biso   1.000  W
  W5       1.0000 0.56956  0.77290  0.53583  Biso   1.000  W
  W6       1.0000 0.43044  0.22710  0.46417  Biso   1.000  W
  W7       1.0000 0.71796  0.01130  0.36922  Biso   1.000  W
  W8       1.0000 0.28204  0.98870  0.63078  Biso   1.000  W
  W9       1.0000 0.73451  0.90549  0.56289  Biso   1.000  W
  W10      1.0000 0.26549  0.09451  0.43711  Biso   1.000  W
  W11      1.0000 0.48500  0.11051  0.30632  Biso   1.000  W
  W12      1.0000 0.51500  0.88949  0.69368  Biso   1.000  W
  W13      1.0000 0.92873  0.29422  0.02669  Biso   1.000  W
  W14      1.0000 0.07127  0.70578  0.97331  Biso   1.000  W
  W15      1.0000 0.83075  0.68753  0.93771  Biso   1.000  W
  W16      1.0000 0.16925  0.31247  0.06229  Biso   1.000  W
  W17      1.0000 0.96000  0.38434  0.18986  Biso   1.000  W
  W18      1.0000 0.04000  0.61566  0.81014  Biso   1.000  W
  W19      1.0000 0.76637  0.48082  0.95266  Biso   1.000  W
  W20      1.0000 0.23363  0.51918  0.04734  Biso   1.000  W
  W21      1.0000 0.98424  0.40506  0.83565  Biso   1.000  W
  W22      1.0000 0.01576  0.59494  0.16435  Biso   1.000  W
  W23      1.0000 0.78246  0.56275  0.12409  Biso   1.000  W
  W24      1.0000 0.21754  0.43725  0.87591  Biso   1.000  W
  S1       1.0000 0.55800  0.37260  0.18750  Biso   1.000  S
  S2       1.0000 0.44200  0.62740  0.81250  Biso   1.000  S
  S3       1.0000 0.46990  0.32540  0.96870  Biso   1.000  S
  S4       1.0000 0.53010  0.67460  0.03130  Biso   1.000  S
  S5       1.0000 0.87300  0.83610  0.15660  Biso   1.000  S
  S6       1.0000 0.12700  0.16390  0.84340  Biso   1.000  S
  S7       1.0000 0.14160  0.96010  0.10960  Biso   1.000  S
  S8       1.0000 0.85840  0.03990  0.89040  Biso   1.000  S
  S9       1.0000 0.99150  0.25160  0.60710  Biso   1.000  S
  S10      1.0000 0.00850  0.74840  0.39290  Biso   1.000  S
  S11      1.0000 0.73230  0.46290  0.61750  Biso   1.000  S
  S12      1.0000 0.26770  0.53710  0.38250  Biso   1.000  S
  S13      1.0000 0.57170  0.57420  0.39510  Biso   1.000  S
  S14      1.0000 0.42830  0.42580  0.60490  Biso   1.000  S
  O1       1.0000 0.74410  0.19710  0.53740  Biso   1.000  O
  O2       1.0000 0.25590  0.80290  0.46260  Biso   1.000  O
  O3       1.0000 0.57010  0.82790  0.26960  Biso   1.000  O
  O4       1.0000 0.42990  0.17210  0.73040  Biso   1.000  O
  O5       1.0000 0.60240  0.66600  0.55330  Biso   1.000  O
  O6       1.0000 0.39760  0.33400  0.44670  Biso   1.000  O
  O7       1.0000 0.82040  0.01740  0.30560  Biso   1.000  O
  O8       1.0000 0.17960  0.98260  0.69440  Biso   1.000  O
  O9       1.0000 0.84600  0.86280  0.58780  Biso   1.000  O
  O10      1.0000 0.15400  0.13720  0.41220  Biso   1.000  O
  O11      1.0000 0.47860  0.16060  0.21320  Biso   1.000  O
  O12      1.0000 0.52140  0.83940  0.78680  Biso   1.000  O
  O13      1.0000 0.89500  0.19580  0.03910  Biso   1.000  O
  O14      1.0000 0.10500  0.80420  0.96090  Biso   1.000  O
  O15      1.0000 0.76810  0.59900  0.91930  Biso   1.000  O
  O16      1.0000 0.23190  0.40100  0.08070  Biso   1.000  O
  O17      1.0000 0.93490  0.32720  0.27960  Biso   1.000  O
  O18      1.0000 0.06510  0.67280  0.72040  Biso   1.000  O
  O19      1.0000 0.65440  0.47150  0.93280  Biso   1.000  O
  O20      1.0000 0.34560  0.52850  0.06720  Biso   1.000  O
  O21      1.0000 0.97730  0.35820  0.75680  Biso   1.000  O
  O22      1.0000 0.02270  0.64180  0.24320  Biso   1.000  O
  O23      1.0000 0.68340  0.59400  0.18420  Biso   1.000  O
  O24      1.0000 0.31660  0.40600  0.81580  Biso   1.000  O
  O25      1.0000 0.50600  0.09360  0.52660  Biso   1.000  O
  O26      1.0000 0.49400  0.90640  0.47340  Biso   1.000  O
  O27      1.0000 0.61880  0.00620  0.49060  Biso   1.000  O
  O28      1.0000 0.38120  0.99380  0.50940  Biso   1.000  O
  O29      1.0000 0.55770  0.91770  0.55180  Biso   1.000  O
  O30      1.0000 0.44230  0.08230  0.44820  Biso   1.000  O
  O31      1.0000 0.54700  0.00440  0.41150  Biso   1.000  O
  O32      1.0000 0.45300  0.99560  0.58850  Biso   1.000  O
  O33      1.0000 0.88850  0.53850  0.00480  Biso   1.000  O
  O34      1.0000 0.11150  0.46150  0.99520  Biso   1.000  O
  O35      1.0000 0.93930  0.43840  0.96750  Biso   1.000  O
  O36      1.0000 0.06070  0.56160  0.03250  Biso   1.000  O
  O37      1.0000 0.01540  0.40110  0.05310  Biso   1.000  O
  O38      1.0000 0.98460  0.59890  0.94690  Biso   1.000  O
  O39      1.0000 0.05030  0.48840  0.91180  Biso   1.000  O
  O40      1.0000 0.94970  0.51160  0.08820  Biso   1.000  O
  O41      1.0000 0.73110  0.02390  0.57040  Biso   1.000  O
  O42      1.0000 0.26890  0.97610  0.42960  Biso   1.000  O
  O43      1.0000 0.67370  0.92440  0.33540  Biso   1.000  O
  O44      1.0000 0.32630  0.07560  0.66460  Biso   1.000  O
  O45      1.0000 0.69220  0.80910  0.53920  Biso   1.000  O
  O46      1.0000 0.30780  0.19090  0.46080  Biso   1.000  O
  O47      1.0000 0.76880  0.93130  0.45190  Biso   1.000  O
  O48      1.0000 0.23120  0.06870  0.54810  Biso   1.000  O
  O49      1.0000 0.71750  0.10370  0.42370  Biso   1.000  O
  O50      1.0000 0.28250  0.89630  0.57630  Biso   1.000  O
  O51      1.0000 0.59300  0.79520  0.42370  Biso   1.000  O
  O52      1.0000 0.40700  0.20480  0.57630  Biso   1.000  O
  O53      1.0000 0.62360  0.08940  0.31090  Biso   1.000  O
  O54      1.0000 0.37640  0.91060  0.68910  Biso   1.000  O
  O55      1.0000 0.49830  0.99580  0.29210  Biso   1.000  O
  O56      1.0000 0.50170  0.00420  0.70790  Biso   1.000  O
  O57      1.0000 0.56820  0.21180  0.47560  Biso   1.000  O
  O58      1.0000 0.43180  0.78820  0.52440  Biso   1.000  O
  O59      1.0000 0.58150  0.13360  0.62210  Biso   1.000  O
  O60      1.0000 0.41850  0.86640  0.37790  Biso   1.000  O
  O61      1.0000 0.52720  0.79470  0.64040  Biso   1.000  O
  O62      1.0000 0.47280  0.20530  0.35960  Biso   1.000  O
  O63      1.0000 0.65140  0.89570  0.65830  Biso   1.000  O
  O64      1.0000 0.34860  0.10430  0.34170  Biso   1.000  O
  O65      1.0000 0.90870  0.31530  0.12970  Biso   1.000  O
  O66      1.0000 0.09130  0.68470  0.87030  Biso   1.000  O
  O67      1.0000 0.81010  0.36590  0.00630  Biso   1.000  O
  O68      1.0000 0.18990  0.63410  0.99370  Biso   1.000  O
  O69      1.0000 0.96990  0.31280  0.91610  Biso   1.000  O
  O70      1.0000 0.03010  0.68720  0.08390  Biso   1.000  O
  O71      1.0000 0.84620  0.44980  0.86610  Biso   1.000  O
  O72      1.0000 0.15380  0.55020  0.13390  Biso   1.000  O
  O73      1.0000 0.83160  0.45700  0.17980  Biso   1.000  O
  O74      1.0000 0.16840  0.54300  0.82020  Biso   1.000  O
  O75      1.0000 0.73270  0.50780  0.05790  Biso   1.000  O
  O76      1.0000 0.26730  0.49220  0.94210  Biso   1.000  O
  O77      1.0000 0.06840  0.26340  0.03690  Biso   1.000  O
  O78      1.0000 0.93160  0.73660  0.96310  Biso   1.000  O
  O79      1.0000 0.08330  0.33520  0.15780  Biso   1.000  O
  O80      1.0000 0.91670  0.66480  0.84220  Biso   1.000  O
  O81      1.0000 0.77910  0.66170  0.04260  Biso   1.000  O
  O82      1.0000 0.22090  0.33830  0.95740  Biso   1.000  O
  O83      1.0000 0.75090  0.77380  0.90900  Biso   1.000  O
  O84      1.0000 0.24910  0.22620  0.09100  Biso   1.000  O
  O85      1.0000 0.00720  0.47460  0.21280  Biso   1.000  O
  O86      1.0000 0.99280  0.52540  0.78720  Biso   1.000  O
  O87      1.0000 0.87850  0.61090  0.16080  Biso   1.000  O
  O88      1.0000 0.12150  0.38910  0.83920  Biso   1.000  O
  N1       1.0000 0.70430  0.23090  0.16290  Biso   1.000  N
  N2       1.0000 0.29570  0.76910  0.83710  Biso   1.000  N
  N3       1.0000 0.78000  0.18430  0.20070  Biso   1.000  N
  N4       1.0000 0.22000  0.81570  0.79930  Biso   1.000  N
  N5       1.0000 0.78310  0.21680  0.26200  Biso   1.000  N
  N6       1.0000 0.21690  0.78320  0.73800  Biso   1.000  N
  N7       1.0000 0.70850  0.28030  0.26710  Biso   1.000  N
  N8       1.0000 0.29150  0.71970  0.73290  Biso   1.000  N
  N9       1.0000 0.66590  0.24230  0.96040  Biso   1.000  N
  N10      1.0000 0.33410  0.75770  0.03960  Biso   1.000  N
  N11      1.0000 0.74410  0.22840  0.90060  Biso   1.000  N
  N12      1.0000 0.25590  0.77160  0.09940  Biso   1.000  N
  N13      1.0000 0.71080  0.26920  0.83370  Biso   1.000  N
  N14      1.0000 0.28920  0.73080  0.16630  Biso   1.000  N
  N15      1.0000 0.61580  0.30110  0.85080  Biso   1.000  N
  N16      1.0000 0.38420  0.69890  0.14920  Biso   1.000  N
  N17      1.0000 0.79560  0.01020  0.12430  Biso   1.000  N
  N18      1.0000 0.20440  0.98980  0.87570  Biso   1.000  N
  N19      1.0000 0.71160  0.05690  0.09120  Biso   1.000  N
  N20      1.0000 0.28840  0.94310  0.90880  Biso   1.000  N
  N21      1.0000 0.65890  0.00700  0.07530  Biso   1.000  N
  N22      1.0000 0.34110  0.99300  0.92470  Biso   1.000  N
  N23      1.0000 0.70630  0.92480  0.09790  Biso   1.000  N
  N24      1.0000 0.29370  0.07520  0.90210  Biso   1.000  N
  N25      1.0000 0.00650  0.07630  0.19350  Biso   1.000  N
  N26      1.0000 0.99350  0.92370  0.80650  Biso   1.000  N
  N27      1.0000 0.01850  0.12740  0.24580  Biso   1.000  N
  N28      1.0000 0.98150  0.87260  0.75420  Biso   1.000  N
  N29      1.0000 0.11260  0.12050  0.25320  Biso   1.000  N
  N30      1.0000 0.88740  0.87950  0.74680  Biso   1.000  N
  N31      1.0000 0.16300  0.06340  0.20560  Biso   1.000  N
  N32      1.0000 0.83700  0.93660  0.79440  Biso   1.000  N
  N33      1.0000 0.94610  0.24030  0.46290  Biso   1.000  N
  N34      1.0000 0.05390  0.75970  0.53710  Biso   1.000  N
  N35      1.0000 0.93110  0.17590  0.43000  Biso   1.000  N
  N36      1.0000 0.06890  0.82410  0.57000  Biso   1.000  N
  N37      1.0000 0.93620  0.10060  0.47670  Biso   1.000  N
  N38      1.0000 0.06380  0.89940  0.52330  Biso   1.000  N
  N39      1.0000 0.95680  0.12230  0.54280  Biso   1.000  N
  N40      1.0000 0.04320  0.87770  0.45720  Biso   1.000  N
  N41      1.0000 0.89350  0.54800  0.58890  Biso   1.000  N
  N42      1.0000 0.10650  0.45200  0.41110  Biso   1.000  N
  N43      1.0000 0.91550  0.61320  0.61260  Biso   1.000  N
  N44      1.0000 0.08450  0.38680  0.38740  Biso   1.000  N
  N45      1.0000 0.84990  0.64230  0.67250  Biso   1.000  N
  N46      1.0000 0.15010  0.35770  0.32750  Biso   1.000  N
  N47      1.0000 0.77770  0.59440  0.68240  Biso   1.000  N
  N48      1.0000 0.22230  0.40560  0.31760  Biso   1.000  N
  N49      1.0000 0.74300  0.45340  0.41910  Biso   1.000  N
  N50      1.0000 0.25700  0.54660  0.58090  Biso   1.000  N
  N51      1.0000 0.84170  0.46180  0.40230  Biso   1.000  N
  N52      1.0000 0.15830  0.53820  0.59770  Biso   1.000  N
  N53      1.0000 0.85970  0.53600  0.37810  Biso   1.000  N
  N54      1.0000 0.14030  0.46400  0.62190  Biso   1.000  N
  N55      1.0000 0.76670  0.58680  0.36650  Biso   1.000  N
  N56      1.0000 0.23330  0.41320  0.63350  Biso   1.000  N
  C1       1.0000 0.65990  0.29240  0.20320  Biso   1.000  C
  C2       1.0000 0.34010  0.70760  0.79680  Biso   1.000  C
  C3       1.0000 0.54690  0.37370  0.08730  Biso   1.000  C
  C4       1.0000 0.45310  0.62630  0.91270  Biso   1.000  C
  H1       1.0000 0.61290  0.36070  0.05980  Biso   1.000  H
  H2       1.0000 0.38710  0.63930  0.94020  Biso   1.000  H
  H3       1.0000 0.51750  0.43150  0.06480  Biso   1.000  H
  H4       1.0000 0.48250  0.56850  0.93520  Biso   1.000  H
  C5       1.0000 0.48640  0.31180  0.07420  Biso   1.000  C
  C6       1.0000 0.51360  0.68820  0.92580  Biso   1.000  C
  H5       1.0000 0.51880  0.25320  0.09140  Biso   1.000  H
  H6       1.0000 0.48120  0.74680  0.90860  Biso   1.000  H
  H7       1.0000 0.42180  0.32100  0.10480  Biso   1.000  H
  H8       1.0000 0.57820  0.67900  0.89520  Biso   1.000  H
  C7       1.0000 0.58560  0.28860  0.92620  Biso   1.000  C
  C8       1.0000 0.41440  0.71140  0.07380  Biso   1.000  C
  C9       1.0000 0.68600  0.33140  0.32760  Biso   1.000  C
  C10      1.0000 0.31400  0.66860  0.67240  Biso   1.000  C
  H9       1.0000 0.73140  0.30940  0.36620  Biso   1.000  H
  H10      1.0000 0.26860  0.69060  0.63380  Biso   1.000  H
  H11      1.0000 0.69240  0.39030  0.30610  Biso   1.000  H
  H12      1.0000 0.30760  0.60970  0.69390  Biso   1.000  H
  H13      1.0000 0.61910  0.32900  0.35160  Biso   1.000  H
  H14      1.0000 0.38090  0.67100  0.64840  Biso   1.000  H
  C11      1.0000 0.55500  0.35200  0.78810  Biso   1.000  C
  C12      1.0000 0.44500  0.64800  0.21190  Biso   1.000  C
  H15      1.0000 0.48810  0.37010  0.81090  Biso   1.000  H
  H16      1.0000 0.51190  0.62990  0.18910  Biso   1.000  H
  H17      1.0000 0.58360  0.40210  0.76360  Biso   1.000  H
  H18      1.0000 0.41640  0.59790  0.23640  Biso   1.000  H
  H19      1.0000 0.55370  0.31650  0.74970  Biso   1.000  H
  H20      1.0000 0.44630  0.68350  0.25030  Biso   1.000  H
  C13      1.0000 0.79420  0.93160  0.12590  Biso   1.000  C
  C14      1.0000 0.20580  0.06840  0.87410  Biso   1.000  C
  C15      1.0000 0.98400  0.87580  0.17290  Biso   1.000  C
  C16      1.0000 0.01600  0.12420  0.82710  Biso   1.000  C
  H21      1.0000 0.03350  0.82710  0.19160  Biso   1.000  H
  H22      1.0000 0.96650  0.17290  0.80840  Biso   1.000  H
  H23      1.0000 0.96650  0.91290  0.21260  Biso   1.000  H
  H24      1.0000 0.03350  0.08710  0.78740  Biso   1.000  H
  C17      1.0000 0.03000  0.92810  0.09470  Biso   1.000  C
  C18      1.0000 0.97000  0.07190  0.90530  Biso   1.000  C
  H25      1.0000 0.04390  0.89230  0.05400  Biso   1.000  H
  H26      1.0000 0.95610  0.10770  0.94600  Biso   1.000  H
  H27      1.0000 0.98250  0.97900  0.07790  Biso   1.000  H
  H28      1.0000 0.01750  0.02100  0.92210  Biso   1.000  H
  C19      1.0000 0.09840  0.03720  0.17250  Biso   1.000  C
  C20      1.0000 0.90160  0.96280  0.82750  Biso   1.000  C
  C21      1.0000 0.67000  0.84900  0.08610  Biso   1.000  C
  C22      1.0000 0.33000  0.15100  0.91390  Biso   1.000  C
  H29      1.0000 0.60690  0.86690  0.06560  Biso   1.000  H
  H30      1.0000 0.39310  0.13310  0.93440  Biso   1.000  H
  H31      1.0000 0.71670  0.81950  0.04970  Biso   1.000  H
  H32      1.0000 0.28330  0.18050  0.95030  Biso   1.000  H
  H33      1.0000 0.66180  0.81120  0.13510  Biso   1.000  H
  H34      1.0000 0.33820  0.18880  0.86490  Biso   1.000  H
  C23      1.0000 0.27020  0.03910  0.20410  Biso   1.000  C
  C24      1.0000 0.72980  0.96090  0.79590  Biso   1.000  C
  H35      1.0000 0.29440  0.99910  0.16810  Biso   1.000  H
  H36      1.0000 0.70560  0.00090  0.83190  Biso   1.000  H
  H37      1.0000 0.30070  0.08980  0.18770  Biso   1.000  H
  H38      1.0000 0.69930  0.91020  0.81230  Biso   1.000  H
  H39      1.0000 0.28630  0.01230  0.25550  Biso   1.000  H
  H40      1.0000 0.71370  0.98770  0.74450  Biso   1.000  H
  C25      1.0000 0.96210  0.20780  0.53590  Biso   1.000  C
  C26      1.0000 0.03790  0.79220  0.46410  Biso   1.000  C
  C27      1.0000 0.92300  0.35900  0.59070  Biso   1.000  C
  C28      1.0000 0.07700  0.64100  0.40930  Biso   1.000  C
  H41      1.0000 0.91500  0.37680  0.53560  Biso   1.000  H
  H42      1.0000 0.08500  0.62320  0.46440  Biso   1.000  H
  H43      1.0000 0.95710  0.39910  0.60690  Biso   1.000  H
  H44      1.0000 0.04290  0.60090  0.39310  Biso   1.000  H
  C29      1.0000 0.82300  0.35900  0.63800  Biso   1.000  C
  C30      1.0000 0.17700  0.64100  0.36200  Biso   1.000  C
  H45      1.0000 0.79390  0.31160  0.62660  Biso   1.000  H
  H46      1.0000 0.20610  0.68840  0.37340  Biso   1.000  H
  H47      1.0000 0.83140  0.34700  0.69270  Biso   1.000  H
  H48      1.0000 0.16860  0.65300  0.30730  Biso   1.000  H
  C31      1.0000 0.80800  0.53960  0.62860  Biso   1.000  C
  C32      1.0000 0.19200  0.46040  0.37140  Biso   1.000  C
  C33      1.0000 0.96110  0.05540  0.61300  Biso   1.000  C
  C34      1.0000 0.03890  0.94460  0.38700  Biso   1.000  C
  H49      1.0000 0.95480  0.00100  0.59970  Biso   1.000  H
  H50      1.0000 0.04520  0.99900  0.40030  Biso   1.000  H
  H51      1.0000 0.02350  0.04990  0.63310  Biso   1.000  H
  H52      1.0000 0.97650  0.95010  0.36690  Biso   1.000  H
  H53      1.0000 0.90770  0.07150  0.65210  Biso   1.000  H
  H54      1.0000 0.09230  0.92850  0.34790  Biso   1.000  H
  C35      1.0000 0.69000  0.61200  0.73190  Biso   1.000  C
  C36      1.0000 0.31000  0.38800  0.26810  Biso   1.000  C
  H55      1.0000 0.69610  0.65530  0.76190  Biso   1.000  H
  H56      1.0000 0.30390  0.34470  0.23810  Biso   1.000  H
  H57      1.0000 0.63530  0.63360  0.70120  Biso   1.000  H
  H58      1.0000 0.36470  0.36640  0.29880  Biso   1.000  H
  H59      1.0000 0.67760  0.56030  0.76670  Biso   1.000  H
  H60      1.0000 0.32240  0.43970  0.23330  Biso   1.000  H
  C37      1.0000 0.69650  0.53380  0.39580  Biso   1.000  C
  C38      1.0000 0.30350  0.46620  0.60420  Biso   1.000  C
  C39      1.0000 0.52600  0.48900  0.46790  Biso   1.000  C
  C40      1.0000 0.47400  0.51100  0.53210  Biso   1.000  C
  H61      1.0000 0.58240  0.44520  0.48250  Biso   1.000  H
  H62      1.0000 0.41760  0.55480  0.51750  Biso   1.000  H
  H63      1.0000 0.48440  0.46090  0.44320  Biso   1.000  H
  H64      1.0000 0.51560  0.53910  0.55680  Biso   1.000  H
  C41      1.0000 0.76060  0.67830  0.33770  Biso   1.000  C
  C42      1.0000 0.23940  0.32170  0.66230  Biso   1.000  C
  H65      1.0000 0.69240  0.70400  0.33280  Biso   1.000  H
  H66      1.0000 0.30760  0.29600  0.66720  Biso   1.000  H
  H67      1.0000 0.78600  0.70510  0.37360  Biso   1.000  H
  H68      1.0000 0.21400  0.29490  0.62640  Biso   1.000  H
  H69      1.0000 0.79920  0.68680  0.28740  Biso   1.000  H
  H70      1.0000 0.20080  0.31320  0.71260  Biso   1.000  H
