data_image0
_cell_length_a       14.474
_cell_length_b       6.949
_cell_length_c       17.45
_cell_angle_alpha    90
_cell_angle_beta     96.255
_cell_angle_gamma    90

_symmetry_space_group_name_H-M    "P 1"
_symmetry_int_tables_number       1

loop_
  _symmetry_equiv_pos_as_xyz
  'x, y, z'

loop_
  _atom_site_label
  _atom_site_occupancy
  _atom_site_fract_x
  _atom_site_fract_y
  _atom_site_fract_z
  _atom_site_thermal_displace_type
  _atom_site_B_iso_or_equiv
  _atom_site_type_symbol
  S1       1.0000 0.61252  0.03735  0.22940  Biso   1.000  S
  S2       1.0000 0.11252  0.53735  0.22940  Biso   1.000  S
  S3       1.0000 0.38748  0.03735  0.27060  Biso   1.000  S
  S4       1.0000 0.88748  0.53735  0.27060  Biso   1.000  S
  S5       1.0000 0.38748  0.96265  0.77060  Biso   1.000  S
  S6       1.0000 0.88748  0.46265  0.77060  Biso   1.000  S
  S7       1.0000 0.61252  0.96265  0.72940  Biso   1.000  S
  S8       1.0000 0.11252  0.46265  0.72940  Biso   1.000  S
  Cu1      1.0000 0.50000  0.28604  0.25000  Biso   1.000  Cu
  Cu2      1.0000 0.00000  0.78604  0.25000  Biso   1.000  Cu
  Cu3      1.0000 0.50000  0.71396  0.75000  Biso   1.000  Cu
  Cu4      1.0000 0.00000  0.21396  0.75000  Biso   1.000  Cu
  Cu5      1.0000 0.94203  0.83829  0.50882  Biso   1.000  Cu
  Cu6      1.0000 0.44203  0.33829  0.50882  Biso   1.000  Cu
  Cu7      1.0000 0.05797  0.83829  0.99118  Biso   1.000  Cu
  Cu8      1.0000 0.55797  0.33829  0.99118  Biso   1.000  Cu
  Cu9      1.0000 0.05797  0.16171  0.49118  Biso   1.000  Cu
  Cu10     1.0000 0.55797  0.66171  0.49118  Biso   1.000  Cu
  Cu11     1.0000 0.94203  0.16171  0.00882  Biso   1.000  Cu
  Cu12     1.0000 0.44203  0.66171  0.00882  Biso   1.000  Cu
  N1       1.0000 0.82300  0.90530  0.43600  Biso   1.000  N
  N2       1.0000 0.32300  0.40530  0.43600  Biso   1.000  N
  N3       1.0000 0.17700  0.90530  0.06400  Biso   1.000  N
  N4       1.0000 0.67700  0.40530  0.06400  Biso   1.000  N
  N5       1.0000 0.17700  0.09470  0.56400  Biso   1.000  N
  N6       1.0000 0.67700  0.59470  0.56400  Biso   1.000  N
  N7       1.0000 0.82300  0.09470  0.93600  Biso   1.000  N
  N8       1.0000 0.32300  0.59470  0.93600  Biso   1.000  N
  N9       1.0000 0.46910  0.40590  0.14990  Biso   1.000  N
  N10      1.0000 0.96910  0.90590  0.14990  Biso   1.000  N
  N11      1.0000 0.53090  0.40590  0.35010  Biso   1.000  N
  N12      1.0000 0.03090  0.90590  0.35010  Biso   1.000  N
  N13      1.0000 0.53090  0.59410  0.85010  Biso   1.000  N
  N14      1.0000 0.03090  0.09410  0.85010  Biso   1.000  N
  N15      1.0000 0.46910  0.59410  0.64990  Biso   1.000  N
  N16      1.0000 0.96910  0.09410  0.64990  Biso   1.000  N
  C1       1.0000 0.76910  0.76740  0.40320  Biso   1.000  C
  C2       1.0000 0.26910  0.26740  0.40320  Biso   1.000  C
  C3       1.0000 0.23090  0.76740  0.09680  Biso   1.000  C
  C4       1.0000 0.73090  0.26740  0.09680  Biso   1.000  C
  C5       1.0000 0.23090  0.23260  0.59680  Biso   1.000  C
  C6       1.0000 0.73090  0.73260  0.59680  Biso   1.000  C
  C7       1.0000 0.76910  0.23260  0.90320  Biso   1.000  C
  C8       1.0000 0.26910  0.73260  0.90320  Biso   1.000  C
  H1       1.0000 0.77740  0.64290  0.42220  Biso   1.000  H
  H2       1.0000 0.27740  0.14290  0.42220  Biso   1.000  H
  H3       1.0000 0.22260  0.64290  0.07780  Biso   1.000  H
  H4       1.0000 0.72260  0.14290  0.07780  Biso   1.000  H
  H5       1.0000 0.22260  0.35710  0.57780  Biso   1.000  H
  H6       1.0000 0.72260  0.85710  0.57780  Biso   1.000  H
  H7       1.0000 0.77740  0.35710  0.92220  Biso   1.000  H
  H8       1.0000 0.27740  0.85710  0.92220  Biso   1.000  H
  C9       1.0000 0.70150  0.79770  0.34260  Biso   1.000  C
  C10      1.0000 0.20150  0.29770  0.34260  Biso   1.000  C
  C11      1.0000 0.29850  0.79770  0.15740  Biso   1.000  C
  C12      1.0000 0.79850  0.29770  0.15740  Biso   1.000  C
  C13      1.0000 0.29850  0.20230  0.65740  Biso   1.000  C
  C14      1.0000 0.79850  0.70230  0.65740  Biso   1.000  C
  C15      1.0000 0.70150  0.20230  0.84260  Biso   1.000  C
  C16      1.0000 0.20150  0.70230  0.84260  Biso   1.000  C
  H9       1.0000 0.66570  0.69570  0.32140  Biso   1.000  H
  H10      1.0000 0.16570  0.19570  0.32140  Biso   1.000  H
  H11      1.0000 0.33430  0.69570  0.17860  Biso   1.000  H
  H12      1.0000 0.83430  0.19570  0.17860  Biso   1.000  H
  H13      1.0000 0.33430  0.30430  0.67860  Biso   1.000  H
  H14      1.0000 0.83430  0.80430  0.67860  Biso   1.000  H
  H15      1.0000 0.66570  0.30430  0.82140  Biso   1.000  H
  H16      1.0000 0.16570  0.80430  0.82140  Biso   1.000  H
  C17      1.0000 0.68750  0.98190  0.31370  Biso   1.000  C
  C18      1.0000 0.18750  0.48190  0.31370  Biso   1.000  C
  C19      1.0000 0.31250  0.98190  0.18630  Biso   1.000  C
  C20      1.0000 0.81250  0.48190  0.18630  Biso   1.000  C
  C21      1.0000 0.31250  0.01810  0.68630  Biso   1.000  C
  C22      1.0000 0.81250  0.51810  0.68630  Biso   1.000  C
  C23      1.0000 0.68750  0.01810  0.81370  Biso   1.000  C
  C24      1.0000 0.18750  0.51810  0.81370  Biso   1.000  C
  C25      1.0000 0.74050  0.12890  0.34910  Biso   1.000  C
  C26      1.0000 0.24050  0.62890  0.34910  Biso   1.000  C
  C27      1.0000 0.25950  0.12890  0.15090  Biso   1.000  C
  C28      1.0000 0.75950  0.62890  0.15090  Biso   1.000  C
  C29      1.0000 0.25950  0.87110  0.65090  Biso   1.000  C
  C30      1.0000 0.75950  0.37110  0.65090  Biso   1.000  C
  C31      1.0000 0.74050  0.87110  0.84910  Biso   1.000  C
  C32      1.0000 0.24050  0.37110  0.84910  Biso   1.000  C
  H17      1.0000 0.73150  0.25550  0.33260  Biso   1.000  H
  H18      1.0000 0.23150  0.75550  0.33260  Biso   1.000  H
  H19      1.0000 0.26850  0.25550  0.16740  Biso   1.000  H
  H20      1.0000 0.76850  0.75550  0.16740  Biso   1.000  H
  H21      1.0000 0.26850  0.74450  0.66740  Biso   1.000  H
  H22      1.0000 0.76850  0.24450  0.66740  Biso   1.000  H
  H23      1.0000 0.73150  0.74450  0.83260  Biso   1.000  H
  H24      1.0000 0.23150  0.24450  0.83260  Biso   1.000  H
  C33      1.0000 0.80660  0.08520  0.40900  Biso   1.000  C
  C34      1.0000 0.30660  0.58520  0.40900  Biso   1.000  C
  C35      1.0000 0.19340  0.08520  0.09100  Biso   1.000  C
  C36      1.0000 0.69340  0.58520  0.09100  Biso   1.000  C
  C37      1.0000 0.19340  0.91480  0.59100  Biso   1.000  C
  C38      1.0000 0.69340  0.41480  0.59100  Biso   1.000  C
  C39      1.0000 0.80660  0.91480  0.90900  Biso   1.000  C
  C40      1.0000 0.30660  0.41480  0.90900  Biso   1.000  C
  H25      1.0000 0.84210  0.18520  0.43220  Biso   1.000  H
  H26      1.0000 0.34210  0.68520  0.43220  Biso   1.000  H
  H27      1.0000 0.15790  0.18520  0.06780  Biso   1.000  H
  H28      1.0000 0.65790  0.68520  0.06780  Biso   1.000  H
  H29      1.0000 0.15790  0.81480  0.56780  Biso   1.000  H
  H30      1.0000 0.65790  0.31480  0.56780  Biso   1.000  H
  H31      1.0000 0.84210  0.81480  0.93220  Biso   1.000  H
  H32      1.0000 0.34210  0.31480  0.93220  Biso   1.000  H
  C41      1.0000 0.53380  0.83490  0.22000  Biso   1.000  C
  C42      1.0000 0.03380  0.33490  0.22000  Biso   1.000  C
  C43      1.0000 0.46620  0.83490  0.28000  Biso   1.000  C
  C44      1.0000 0.96620  0.33490  0.28000  Biso   1.000  C
  C45      1.0000 0.46620  0.16510  0.78000  Biso   1.000  C
  C46      1.0000 0.96620  0.66510  0.78000  Biso   1.000  C
  C47      1.0000 0.53380  0.16510  0.72000  Biso   1.000  C
  C48      1.0000 0.03380  0.66510  0.72000  Biso   1.000  C
  H33      1.0000 0.49930  0.83740  0.16910  Biso   1.000  H
  H34      1.0000 0.99930  0.33740  0.16910  Biso   1.000  H
  H35      1.0000 0.50070  0.83740  0.33090  Biso   1.000  H
  H36      1.0000 0.00070  0.33740  0.33090  Biso   1.000  H
  H37      1.0000 0.50070  0.16260  0.83090  Biso   1.000  H
  H38      1.0000 0.00070  0.66260  0.83090  Biso   1.000  H
  H39      1.0000 0.49930  0.16260  0.66910  Biso   1.000  H
  H40      1.0000 0.99930  0.66260  0.66910  Biso   1.000  H
  H41      1.0000 0.56960  0.71670  0.22440  Biso   1.000  H
  H42      1.0000 0.06960  0.21670  0.22440  Biso   1.000  H
  H43      1.0000 0.43040  0.71670  0.27560  Biso   1.000  H
  H44      1.0000 0.93040  0.21670  0.27560  Biso   1.000  H
  H45      1.0000 0.43040  0.28330  0.77560  Biso   1.000  H
  H46      1.0000 0.93040  0.78330  0.77560  Biso   1.000  H
  H47      1.0000 0.56960  0.28330  0.72440  Biso   1.000  H
  H48      1.0000 0.06960  0.78330  0.72440  Biso   1.000  H
  C49      1.0000 0.45940  0.48220  0.09310  Biso   1.000  C
  C50      1.0000 0.95940  0.98220  0.09310  Biso   1.000  C
  C51      1.0000 0.54060  0.48220  0.40690  Biso   1.000  C
  C52      1.0000 0.04060  0.98220  0.40690  Biso   1.000  C
  C53      1.0000 0.54060  0.51780  0.90690  Biso   1.000  C
  C54      1.0000 0.04060  0.01780  0.90690  Biso   1.000  C
  C55      1.0000 0.45940  0.51780  0.59310  Biso   1.000  C
  C56      1.0000 0.95940  0.01780  0.59310  Biso   1.000  C
  C57      1.0000 0.98630  0.56780  0.50130  Biso   1.000  C
  C58      1.0000 0.48630  0.06780  0.50130  Biso   1.000  C
  C59      1.0000 0.01370  0.56780  0.99870  Biso   1.000  C
  C60      1.0000 0.51370  0.06780  0.99870  Biso   1.000  C
  C61      1.0000 0.01370  0.43220  0.49870  Biso   1.000  C
  C62      1.0000 0.51370  0.93220  0.49870  Biso   1.000  C
  C63      1.0000 0.98630  0.43220  0.00130  Biso   1.000  C
  C64      1.0000 0.48630  0.93220  0.00130  Biso   1.000  C
