data_image0
_cell_length_a       12.3339
_cell_length_b       25.1322
_cell_length_c       7.2905
_cell_angle_alpha    90
_cell_angle_beta     93.907
_cell_angle_gamma    90

_symmetry_space_group_name_H-M    "P 1"
_symmetry_int_tables_number       1

loop_
  _symmetry_equiv_pos_as_xyz
  'x, y, z'

loop_
  _atom_site_label
  _atom_site_occupancy
  _atom_site_fract_x
  _atom_site_fract_y
  _atom_site_fract_z
  _atom_site_thermal_displace_type
  _atom_site_B_iso_or_equiv
  _atom_site_type_symbol
  Cu1      1.0000 0.94722  0.04335  0.06722  Biso   1.000  Cu
  Cu2      1.0000 0.05278  0.04335  0.43278  Biso   1.000  Cu
  Cu3      1.0000 0.44722  0.54334  0.06722  Biso   1.000  Cu
  Cu4      1.0000 0.55278  0.54334  0.43278  Biso   1.000  Cu
  Cu5      1.0000 0.05278  0.95666  0.93278  Biso   1.000  Cu
  Cu6      1.0000 0.94722  0.95666  0.56722  Biso   1.000  Cu
  Cu7      1.0000 0.55278  0.45665  0.93278  Biso   1.000  Cu
  Cu8      1.0000 0.44722  0.45665  0.56722  Biso   1.000  Cu
  Br1      1.0000 0.14170  0.03183  0.12860  Biso   1.000  Br
  Br2      1.0000 0.85830  0.03183  0.37140  Biso   1.000  Br
  Br3      1.0000 0.64170  0.53183  0.12860  Biso   1.000  Br
  Br4      1.0000 0.35830  0.53183  0.37140  Biso   1.000  Br
  Br5      1.0000 0.85830  0.96817  0.87140  Biso   1.000  Br
  Br6      1.0000 0.14170  0.96817  0.62860  Biso   1.000  Br
  Br7      1.0000 0.35830  0.46817  0.87140  Biso   1.000  Br
  Br8      1.0000 0.64170  0.46817  0.62860  Biso   1.000  Br
  O1       1.0000 0.50000  0.25801  0.25000  Biso   1.000  O
  O2       1.0000 0.00000  0.75801  0.25000  Biso   1.000  O
  O3       1.0000 0.50000  0.74199  0.75000  Biso   1.000  O
  O4       1.0000 0.00000  0.24199  0.75000  Biso   1.000  O
  N1       1.0000 0.77366  0.15904  0.78140  Biso   1.000  N
  N2       1.0000 0.22634  0.15904  0.71860  Biso   1.000  N
  N3       1.0000 0.27366  0.65904  0.78140  Biso   1.000  N
  N4       1.0000 0.72634  0.65904  0.71860  Biso   1.000  N
  N5       1.0000 0.22634  0.84096  0.21860  Biso   1.000  N
  N6       1.0000 0.77366  0.84096  0.28140  Biso   1.000  N
  N7       1.0000 0.72634  0.34096  0.21860  Biso   1.000  N
  N8       1.0000 0.27366  0.34096  0.28140  Biso   1.000  N
  N9       1.0000 0.79550  0.18289  0.94520  Biso   1.000  N
  N10      1.0000 0.20450  0.18289  0.55480  Biso   1.000  N
  N11      1.0000 0.29550  0.68289  0.94520  Biso   1.000  N
  N12      1.0000 0.70450  0.68289  0.55480  Biso   1.000  N
  N13      1.0000 0.20450  0.81711  0.05480  Biso   1.000  N
  N14      1.0000 0.79550  0.81711  0.44520  Biso   1.000  N
  N15      1.0000 0.70450  0.31711  0.05480  Biso   1.000  N
  N16      1.0000 0.29550  0.31711  0.44520  Biso   1.000  N
  N17      1.0000 0.85880  0.15171  0.04280  Biso   1.000  N
  N18      1.0000 0.14120  0.15171  0.45720  Biso   1.000  N
  N19      1.0000 0.35880  0.65171  0.04280  Biso   1.000  N
  N20      1.0000 0.64120  0.65171  0.45720  Biso   1.000  N
  N21      1.0000 0.14120  0.84829  0.95720  Biso   1.000  N
  N22      1.0000 0.85880  0.84829  0.54280  Biso   1.000  N
  N23      1.0000 0.64120  0.34829  0.95720  Biso   1.000  N
  N24      1.0000 0.35880  0.34829  0.54280  Biso   1.000  N
  N25      1.0000 0.87818  0.10774  0.94830  Biso   1.000  N
  N26      1.0000 0.12182  0.10774  0.55170  Biso   1.000  N
  N27      1.0000 0.37818  0.60774  0.94830  Biso   1.000  N
  N28      1.0000 0.62182  0.60774  0.55170  Biso   1.000  N
  N29      1.0000 0.12182  0.89226  0.05170  Biso   1.000  N
  N30      1.0000 0.87818  0.89226  0.44830  Biso   1.000  N
  N31      1.0000 0.62182  0.39226  0.05170  Biso   1.000  N
  N32      1.0000 0.37818  0.39226  0.44830  Biso   1.000  N
  C1       1.0000 0.56553  0.23003  0.37920  Biso   1.000  C
  C2       1.0000 0.43447  0.23003  0.12080  Biso   1.000  C
  C3       1.0000 0.06553  0.73003  0.37920  Biso   1.000  C
  C4       1.0000 0.93447  0.73003  0.12080  Biso   1.000  C
  C5       1.0000 0.43447  0.76997  0.62080  Biso   1.000  C
  C6       1.0000 0.56553  0.76997  0.87920  Biso   1.000  C
  C7       1.0000 0.93447  0.26997  0.62080  Biso   1.000  C
  C8       1.0000 0.06553  0.26997  0.87920  Biso   1.000  C
  C9       1.0000 0.62020  0.18474  0.33850  Biso   1.000  C
  C10      1.0000 0.37980  0.18474  0.16150  Biso   1.000  C
  C11      1.0000 0.12020  0.68474  0.33850  Biso   1.000  C
  C12      1.0000 0.87980  0.68474  0.16150  Biso   1.000  C
  C13      1.0000 0.37980  0.81526  0.66150  Biso   1.000  C
  C14      1.0000 0.62020  0.81526  0.83850  Biso   1.000  C
  C15      1.0000 0.87980  0.31526  0.66150  Biso   1.000  C
  C16      1.0000 0.12020  0.31526  0.83850  Biso   1.000  C
  H1       1.0000 0.61800  0.17190  0.23200  Biso   1.000  H
  H2       1.0000 0.38200  0.17190  0.26800  Biso   1.000  H
  H3       1.0000 0.11800  0.67190  0.23200  Biso   1.000  H
  H4       1.0000 0.88200  0.67190  0.26800  Biso   1.000  H
  H5       1.0000 0.38200  0.82810  0.76800  Biso   1.000  H
  H6       1.0000 0.61800  0.82810  0.73200  Biso   1.000  H
  H7       1.0000 0.88200  0.32810  0.76800  Biso   1.000  H
  H8       1.0000 0.11800  0.32810  0.73200  Biso   1.000  H
  C17      1.0000 0.68910  0.16070  0.46960  Biso   1.000  C
  C18      1.0000 0.31090  0.16070  0.03040  Biso   1.000  C
  C19      1.0000 0.18910  0.66070  0.46960  Biso   1.000  C
  C20      1.0000 0.81090  0.66070  0.03040  Biso   1.000  C
  C21      1.0000 0.31090  0.83930  0.53040  Biso   1.000  C
  C22      1.0000 0.68910  0.83930  0.96960  Biso   1.000  C
  C23      1.0000 0.81090  0.33930  0.53040  Biso   1.000  C
  C24      1.0000 0.18910  0.33930  0.96960  Biso   1.000  C
  H9       1.0000 0.72800  0.13060  0.45300  Biso   1.000  H
  H10      1.0000 0.27200  0.13060  0.04700  Biso   1.000  H
  H11      1.0000 0.22800  0.63060  0.45300  Biso   1.000  H
  H12      1.0000 0.77200  0.63060  0.04700  Biso   1.000  H
  H13      1.0000 0.27200  0.86940  0.54700  Biso   1.000  H
  H14      1.0000 0.72800  0.86940  0.95300  Biso   1.000  H
  H15      1.0000 0.77200  0.36940  0.54700  Biso   1.000  H
  H16      1.0000 0.22800  0.36940  0.95300  Biso   1.000  H
  C25      1.0000 0.70239  0.18322  0.64190  Biso   1.000  C
  C26      1.0000 0.29761  0.18322  0.85810  Biso   1.000  C
  C27      1.0000 0.20239  0.68322  0.64190  Biso   1.000  C
  C28      1.0000 0.79761  0.68322  0.85810  Biso   1.000  C
  C29      1.0000 0.29761  0.81678  0.35810  Biso   1.000  C
  C30      1.0000 0.70239  0.81678  0.14190  Biso   1.000  C
  C31      1.0000 0.79761  0.31678  0.35810  Biso   1.000  C
  C32      1.0000 0.20239  0.31678  0.14190  Biso   1.000  C
  C33      1.0000 0.64950  0.22881  0.68260  Biso   1.000  C
  C34      1.0000 0.35050  0.22881  0.81740  Biso   1.000  C
  C35      1.0000 0.14950  0.72881  0.68260  Biso   1.000  C
  C36      1.0000 0.85050  0.72881  0.81740  Biso   1.000  C
  C37      1.0000 0.35050  0.77119  0.31740  Biso   1.000  C
  C38      1.0000 0.64950  0.77119  0.18260  Biso   1.000  C
  C39      1.0000 0.85050  0.27119  0.31740  Biso   1.000  C
  C40      1.0000 0.14950  0.27119  0.18260  Biso   1.000  C
  H17      1.0000 0.66500  0.24120  0.79500  Biso   1.000  H
  H18      1.0000 0.33500  0.24120  0.70500  Biso   1.000  H
  H19      1.0000 0.16500  0.74120  0.79500  Biso   1.000  H
  H20      1.0000 0.83500  0.74120  0.70500  Biso   1.000  H
  H21      1.0000 0.33500  0.75880  0.20500  Biso   1.000  H
  H22      1.0000 0.66500  0.75880  0.29500  Biso   1.000  H
  H23      1.0000 0.83500  0.25880  0.20500  Biso   1.000  H
  H24      1.0000 0.16500  0.25880  0.29500  Biso   1.000  H
  C41      1.0000 0.58070  0.25275  0.54950  Biso   1.000  C
  C42      1.0000 0.41930  0.25275  0.95050  Biso   1.000  C
  C43      1.0000 0.08070  0.75275  0.54950  Biso   1.000  C
  C44      1.0000 0.91930  0.75275  0.95050  Biso   1.000  C
  C45      1.0000 0.41930  0.74725  0.45050  Biso   1.000  C
  C46      1.0000 0.58070  0.74725  0.04950  Biso   1.000  C
  C47      1.0000 0.91930  0.24725  0.45050  Biso   1.000  C
  C48      1.0000 0.08070  0.24725  0.04950  Biso   1.000  C
  H25      1.0000 0.55030  0.28340  0.57700  Biso   1.000  H
  H26      1.0000 0.44970  0.28340  0.92300  Biso   1.000  H
  H27      1.0000 0.05030  0.78340  0.57700  Biso   1.000  H
  H28      1.0000 0.94970  0.78340  0.92300  Biso   1.000  H
  H29      1.0000 0.44970  0.71660  0.42300  Biso   1.000  H
  H30      1.0000 0.55030  0.71660  0.07700  Biso   1.000  H
  H31      1.0000 0.94970  0.21660  0.42300  Biso   1.000  H
  H32      1.0000 0.05030  0.21660  0.07700  Biso   1.000  H
  C49      1.0000 0.82650  0.11353  0.78860  Biso   1.000  C
  C50      1.0000 0.17350  0.11353  0.71140  Biso   1.000  C
  C51      1.0000 0.32650  0.61353  0.78860  Biso   1.000  C
  C52      1.0000 0.67350  0.61353  0.71140  Biso   1.000  C
  C53      1.0000 0.17350  0.88647  0.21140  Biso   1.000  C
  C54      1.0000 0.82650  0.88647  0.28860  Biso   1.000  C
  C55      1.0000 0.67350  0.38647  0.21140  Biso   1.000  C
  C56      1.0000 0.32650  0.38647  0.28860  Biso   1.000  C
  H33      1.0000 0.82900  0.09560  0.68700  Biso   1.000  H
  H34      1.0000 0.17100  0.09560  0.81300  Biso   1.000  H
  H35      1.0000 0.32900  0.59560  0.68700  Biso   1.000  H
  H36      1.0000 0.67100  0.59560  0.81300  Biso   1.000  H
  H37      1.0000 0.17100  0.90440  0.31300  Biso   1.000  H
  H38      1.0000 0.82900  0.90440  0.18700  Biso   1.000  H
  H39      1.0000 0.67100  0.40440  0.31300  Biso   1.000  H
  H40      1.0000 0.32900  0.40440  0.18700  Biso   1.000  H
