data_image0
_cell_length_a       21.2493
_cell_length_b       13.2016
_cell_length_c       14.7117
_cell_angle_alpha    90
_cell_angle_beta     102.573
_cell_angle_gamma    90

_symmetry_space_group_name_H-M    "P 1"
_symmetry_int_tables_number       1

loop_
  _symmetry_equiv_pos_as_xyz
  'x, y, z'

loop_
  _atom_site_label
  _atom_site_occupancy
  _atom_site_fract_x
  _atom_site_fract_y
  _atom_site_fract_z
  _atom_site_thermal_displace_type
  _atom_site_B_iso_or_equiv
  _atom_site_type_symbol
  Mo1      1.0000 0.68162  0.58311  0.15435  Biso   1.000  Mo
  Mo2      1.0000 0.31838  0.58311  0.34565  Biso   1.000  Mo
  Mo3      1.0000 0.18162  0.08311  0.15435  Biso   1.000  Mo
  Mo4      1.0000 0.81838  0.08311  0.34565  Biso   1.000  Mo
  Mo5      1.0000 0.31838  0.41689  0.84565  Biso   1.000  Mo
  Mo6      1.0000 0.68162  0.41689  0.65435  Biso   1.000  Mo
  Mo7      1.0000 0.81838  0.91689  0.84565  Biso   1.000  Mo
  Mo8      1.0000 0.18162  0.91689  0.65435  Biso   1.000  Mo
  Mo9      1.0000 0.70672  0.82812  0.15609  Biso   1.000  Mo
  Mo10     1.0000 0.29328  0.82812  0.34391  Biso   1.000  Mo
  Mo11     1.0000 0.20672  0.32812  0.15609  Biso   1.000  Mo
  Mo12     1.0000 0.79328  0.32812  0.34391  Biso   1.000  Mo
  Mo13     1.0000 0.29328  0.17188  0.84391  Biso   1.000  Mo
  Mo14     1.0000 0.70672  0.17188  0.65609  Biso   1.000  Mo
  Mo15     1.0000 0.79328  0.67188  0.84391  Biso   1.000  Mo
  Mo16     1.0000 0.20672  0.67188  0.65609  Biso   1.000  Mo
  Mo17     1.0000 0.67458  0.69929  0.94275  Biso   1.000  Mo
  Mo18     1.0000 0.32542  0.69929  0.55725  Biso   1.000  Mo
  Mo19     1.0000 0.17458  0.19929  0.94275  Biso   1.000  Mo
  Mo20     1.0000 0.82542  0.19929  0.55725  Biso   1.000  Mo
  Mo21     1.0000 0.32542  0.30071  0.05725  Biso   1.000  Mo
  Mo22     1.0000 0.67458  0.30071  0.44275  Biso   1.000  Mo
  Mo23     1.0000 0.82542  0.80071  0.05725  Biso   1.000  Mo
  Mo24     1.0000 0.17458  0.80071  0.44275  Biso   1.000  Mo
  Mo25     1.0000 0.80644  0.55861  0.05723  Biso   1.000  Mo
  Mo26     1.0000 0.19356  0.55861  0.44277  Biso   1.000  Mo
  Mo27     1.0000 0.30644  0.05861  0.05723  Biso   1.000  Mo
  Mo28     1.0000 0.69356  0.05861  0.44277  Biso   1.000  Mo
  Mo29     1.0000 0.19356  0.44139  0.94277  Biso   1.000  Mo
  Mo30     1.0000 0.80644  0.44139  0.55723  Biso   1.000  Mo
  Mo31     1.0000 0.69356  0.94139  0.94277  Biso   1.000  Mo
  Mo32     1.0000 0.30644  0.94139  0.55723  Biso   1.000  Mo
  Cu1      1.0000 0.00233  0.93258  0.37338  Biso   1.000  Cu
  Cu2      1.0000 0.99767  0.93258  0.12662  Biso   1.000  Cu
  Cu3      1.0000 0.50233  0.43258  0.37338  Biso   1.000  Cu
  Cu4      1.0000 0.49767  0.43258  0.12662  Biso   1.000  Cu
  Cu5      1.0000 0.99767  0.06742  0.62662  Biso   1.000  Cu
  Cu6      1.0000 0.00233  0.06742  0.87338  Biso   1.000  Cu
  Cu7      1.0000 0.49767  0.56742  0.62662  Biso   1.000  Cu
  Cu8      1.0000 0.50233  0.56742  0.87338  Biso   1.000  Cu
  Cu9      1.0000 0.82681  0.58883  0.30909  Biso   1.000  Cu
  Cu10     1.0000 0.17319  0.58883  0.19091  Biso   1.000  Cu
  Cu11     1.0000 0.32681  0.08883  0.30909  Biso   1.000  Cu
  Cu12     1.0000 0.67319  0.08883  0.19091  Biso   1.000  Cu
  Cu13     1.0000 0.17319  0.41117  0.69091  Biso   1.000  Cu
  Cu14     1.0000 0.82681  0.41117  0.80909  Biso   1.000  Cu
  Cu15     1.0000 0.67319  0.91117  0.69091  Biso   1.000  Cu
  Cu16     1.0000 0.32681  0.91117  0.80909  Biso   1.000  Cu
  O1       1.0000 0.73636  0.58010  0.25960  Biso   1.000  O
  O2       1.0000 0.26364  0.58010  0.24040  Biso   1.000  O
  O3       1.0000 0.23636  0.08010  0.25960  Biso   1.000  O
  O4       1.0000 0.76364  0.08010  0.24040  Biso   1.000  O
  O5       1.0000 0.26364  0.41990  0.74040  Biso   1.000  O
  O6       1.0000 0.73636  0.41990  0.75960  Biso   1.000  O
  O7       1.0000 0.76364  0.91990  0.74040  Biso   1.000  O
  O8       1.0000 0.23636  0.91990  0.75960  Biso   1.000  O
  O9       1.0000 0.65115  0.71790  0.16560  Biso   1.000  O
  O10      1.0000 0.34885  0.71790  0.33440  Biso   1.000  O
  O11      1.0000 0.15115  0.21790  0.16560  Biso   1.000  O
  O12      1.0000 0.84885  0.21790  0.33440  Biso   1.000  O
  O13      1.0000 0.34885  0.28210  0.83440  Biso   1.000  O
  O14      1.0000 0.65115  0.28210  0.66560  Biso   1.000  O
  O15      1.0000 0.84885  0.78210  0.83440  Biso   1.000  O
  O16      1.0000 0.15115  0.78210  0.66560  Biso   1.000  O
  O17      1.0000 0.76246  0.89690  0.08050  Biso   1.000  O
  O18      1.0000 0.23754  0.89690  0.41950  Biso   1.000  O
  O19      1.0000 0.26246  0.39690  0.08050  Biso   1.000  O
  O20      1.0000 0.73754  0.39690  0.41950  Biso   1.000  O
  O21      1.0000 0.23754  0.10310  0.91950  Biso   1.000  O
  O22      1.0000 0.76246  0.10310  0.58050  Biso   1.000  O
  O23      1.0000 0.73754  0.60310  0.91950  Biso   1.000  O
  O24      1.0000 0.26246  0.60310  0.58050  Biso   1.000  O
  O25      1.0000 0.76230  0.81870  0.25650  Biso   1.000  O
  O26      1.0000 0.23770  0.81870  0.24350  Biso   1.000  O
  O27      1.0000 0.26230  0.31870  0.25650  Biso   1.000  O
  O28      1.0000 0.73770  0.31870  0.24350  Biso   1.000  O
  O29      1.0000 0.23770  0.18130  0.74350  Biso   1.000  O
  O30      1.0000 0.76230  0.18130  0.75650  Biso   1.000  O
  O31      1.0000 0.73770  0.68130  0.74350  Biso   1.000  O
  O32      1.0000 0.26230  0.68130  0.75650  Biso   1.000  O
  O33      1.0000 0.62337  0.70180  0.83760  Biso   1.000  O
  O34      1.0000 0.37663  0.70180  0.66240  Biso   1.000  O
  O35      1.0000 0.12337  0.20180  0.83760  Biso   1.000  O
  O36      1.0000 0.87663  0.20180  0.66240  Biso   1.000  O
  O37      1.0000 0.37663  0.29820  0.16240  Biso   1.000  O
  O38      1.0000 0.62337  0.29820  0.33760  Biso   1.000  O
  O39      1.0000 0.87663  0.79820  0.16240  Biso   1.000  O
  O40      1.0000 0.12337  0.79820  0.33760  Biso   1.000  O
  O41      1.0000 0.85820  0.56270  0.16420  Biso   1.000  O
  O42      1.0000 0.14180  0.56270  0.33580  Biso   1.000  O
  O43      1.0000 0.35820  0.06270  0.16420  Biso   1.000  O
  O44      1.0000 0.64180  0.06270  0.33580  Biso   1.000  O
  O45      1.0000 0.14180  0.43730  0.83580  Biso   1.000  O
  O46      1.0000 0.85820  0.43730  0.66420  Biso   1.000  O
  O47      1.0000 0.64180  0.93730  0.83580  Biso   1.000  O
  O48      1.0000 0.35820  0.93730  0.66420  Biso   1.000  O
  O49      1.0000 0.75187  0.70340  0.08400  Biso   1.000  O
  O50      1.0000 0.24813  0.70340  0.41600  Biso   1.000  O
  O51      1.0000 0.25187  0.20340  0.08400  Biso   1.000  O
  O52      1.0000 0.74813  0.20340  0.41600  Biso   1.000  O
  O53      1.0000 0.24813  0.29660  0.91600  Biso   1.000  O
  O54      1.0000 0.75187  0.29660  0.58400  Biso   1.000  O
  O55      1.0000 0.74813  0.79660  0.91600  Biso   1.000  O
  O56      1.0000 0.25187  0.79660  0.58400  Biso   1.000  O
  O57      1.0000 0.73133  0.50410  0.08750  Biso   1.000  O
  O58      1.0000 0.26867  0.50410  0.41250  Biso   1.000  O
  O59      1.0000 0.23133  0.00410  0.08750  Biso   1.000  O
  O60      1.0000 0.76867  0.00410  0.41250  Biso   1.000  O
  O61      1.0000 0.26867  0.49590  0.91250  Biso   1.000  O
  O62      1.0000 0.73133  0.49590  0.58750  Biso   1.000  O
  O63      1.0000 0.76867  0.99590  0.91250  Biso   1.000  O
  O64      1.0000 0.23133  0.99590  0.58750  Biso   1.000  O
  O65      1.0000 0.65343  0.82550  0.99670  Biso   1.000  O
  O66      1.0000 0.34657  0.82550  0.50330  Biso   1.000  O
  O67      1.0000 0.15343  0.32550  0.99670  Biso   1.000  O
  O68      1.0000 0.84657  0.32550  0.50330  Biso   1.000  O
  O69      1.0000 0.34657  0.17450  0.00330  Biso   1.000  O
  O70      1.0000 0.65343  0.17450  0.49670  Biso   1.000  O
  O71      1.0000 0.84657  0.67450  0.00330  Biso   1.000  O
  O72      1.0000 0.15343  0.67450  0.49670  Biso   1.000  O
  O73      1.0000 0.65968  0.92890  0.17150  Biso   1.000  O
  O74      1.0000 0.34032  0.92890  0.32850  Biso   1.000  O
  O75      1.0000 0.15968  0.42890  0.17150  Biso   1.000  O
  O76      1.0000 0.84032  0.42890  0.32850  Biso   1.000  O
  O77      1.0000 0.34032  0.07110  0.82850  Biso   1.000  O
  O78      1.0000 0.65968  0.07110  0.67150  Biso   1.000  O
  O79      1.0000 0.84032  0.57110  0.82850  Biso   1.000  O
  O80      1.0000 0.15968  0.57110  0.67150  Biso   1.000  O
  O81      1.0000 0.61981  0.50830  0.16830  Biso   1.000  O
  O82      1.0000 0.38019  0.50830  0.33170  Biso   1.000  O
  O83      1.0000 0.11981  0.00830  0.16830  Biso   1.000  O
  O84      1.0000 0.88019  0.00830  0.33170  Biso   1.000  O
  O85      1.0000 0.38019  0.49170  0.83170  Biso   1.000  O
  O86      1.0000 0.61981  0.49170  0.66830  Biso   1.000  O
  O87      1.0000 0.88019  0.99170  0.83170  Biso   1.000  O
  O88      1.0000 0.11981  0.99170  0.66830  Biso   1.000  O
  O89      1.0000 0.63561  0.61950  0.00840  Biso   1.000  O
  O90      1.0000 0.36439  0.61950  0.49160  Biso   1.000  O
  O91      1.0000 0.13561  0.11950  0.00840  Biso   1.000  O
  O92      1.0000 0.86439  0.11950  0.49160  Biso   1.000  O
  O93      1.0000 0.36439  0.38050  0.99160  Biso   1.000  O
  O94      1.0000 0.63561  0.38050  0.50840  Biso   1.000  O
  O95      1.0000 0.86439  0.88050  0.99160  Biso   1.000  O
  O96      1.0000 0.13561  0.88050  0.50840  Biso   1.000  O
  N1       1.0000 0.90240  0.66980  0.35610  Biso   1.000  N
  N2       1.0000 0.09760  0.66980  0.14390  Biso   1.000  N
  N3       1.0000 0.40240  0.16980  0.35610  Biso   1.000  N
  N4       1.0000 0.59760  0.16980  0.14390  Biso   1.000  N
  N5       1.0000 0.09760  0.33020  0.64390  Biso   1.000  N
  N6       1.0000 0.90240  0.33020  0.85610  Biso   1.000  N
  N7       1.0000 0.59760  0.83020  0.64390  Biso   1.000  N
  N8       1.0000 0.40240  0.83020  0.85610  Biso   1.000  N
  O97      1.0000 0.83190  0.45990  0.00070  Biso   1.000  O
  O98      1.0000 0.16810  0.45990  0.49930  Biso   1.000  O
  O99      1.0000 0.33190  0.95990  0.00070  Biso   1.000  O
  O100     1.0000 0.66810  0.95990  0.49930  Biso   1.000  O
  O101     1.0000 0.16810  0.54010  0.99930  Biso   1.000  O
  O102     1.0000 0.83190  0.54010  0.50070  Biso   1.000  O
  O103     1.0000 0.66810  0.04010  0.99930  Biso   1.000  O
  O104     1.0000 0.33190  0.04010  0.50070  Biso   1.000  O
  N9       1.0000 0.11270  0.18080  0.39330  Biso   1.000  N
  N10      1.0000 0.88730  0.18080  0.10670  Biso   1.000  N
  N11      1.0000 0.61270  0.68080  0.39330  Biso   1.000  N
  N12      1.0000 0.38730  0.68080  0.10670  Biso   1.000  N
  N13      1.0000 0.88730  0.81920  0.60670  Biso   1.000  N
  N14      1.0000 0.11270  0.81920  0.89330  Biso   1.000  N
  N15      1.0000 0.38730  0.31920  0.60670  Biso   1.000  N
  N16      1.0000 0.61270  0.31920  0.89330  Biso   1.000  N
  N17      1.0000 0.97000  0.80020  0.37240  Biso   1.000  N
  N18      1.0000 0.03000  0.80020  0.12760  Biso   1.000  N
  N19      1.0000 0.47000  0.30020  0.37240  Biso   1.000  N
  N20      1.0000 0.53000  0.30020  0.12760  Biso   1.000  N
  N21      1.0000 0.03000  0.19980  0.62760  Biso   1.000  N
  N22      1.0000 0.97000  0.19980  0.87240  Biso   1.000  N
  N23      1.0000 0.53000  0.69980  0.62760  Biso   1.000  N
  N24      1.0000 0.47000  0.69980  0.87240  Biso   1.000  N
  N25      1.0000 0.96370  0.63450  0.36560  Biso   1.000  N
  N26      1.0000 0.03630  0.63450  0.13440  Biso   1.000  N
  N27      1.0000 0.46370  0.13450  0.36560  Biso   1.000  N
  N28      1.0000 0.53630  0.13450  0.13440  Biso   1.000  N
  N29      1.0000 0.03630  0.36550  0.63440  Biso   1.000  N
  N30      1.0000 0.96370  0.36550  0.86560  Biso   1.000  N
  N31      1.0000 0.53630  0.86550  0.63440  Biso   1.000  N
  N32      1.0000 0.46370  0.86550  0.86560  Biso   1.000  N
  N33      1.0000 0.04130  0.06090  0.37850  Biso   1.000  N
  N34      1.0000 0.95870  0.06090  0.12150  Biso   1.000  N
  N35      1.0000 0.54130  0.56090  0.37850  Biso   1.000  N
  N36      1.0000 0.45870  0.56090  0.12150  Biso   1.000  N
  N37      1.0000 0.95870  0.93910  0.62150  Biso   1.000  N
  N38      1.0000 0.04130  0.93910  0.87850  Biso   1.000  N
  N39      1.0000 0.45870  0.43910  0.62150  Biso   1.000  N
  N40      1.0000 0.54130  0.43910  0.87850  Biso   1.000  N
  C1       1.0000 0.00190  0.71260  0.37310  Biso   1.000  C
  C2       1.0000 0.99810  0.71260  0.12690  Biso   1.000  C
  C3       1.0000 0.50190  0.21260  0.37310  Biso   1.000  C
  C4       1.0000 0.49810  0.21260  0.12690  Biso   1.000  C
  C5       1.0000 0.99810  0.28740  0.62690  Biso   1.000  C
  C6       1.0000 0.00190  0.28740  0.87310  Biso   1.000  C
  C7       1.0000 0.49810  0.78740  0.62690  Biso   1.000  C
  C8       1.0000 0.50190  0.78740  0.87310  Biso   1.000  C
  H1       1.0000 0.04620  0.70810  0.37830  Biso   1.000  H
  H2       1.0000 0.95380  0.70810  0.12170  Biso   1.000  H
  H3       1.0000 0.54620  0.20810  0.37830  Biso   1.000  H
  H4       1.0000 0.45380  0.20810  0.12170  Biso   1.000  H
  H5       1.0000 0.95380  0.29190  0.62170  Biso   1.000  H
  H6       1.0000 0.04620  0.29190  0.87830  Biso   1.000  H
  H7       1.0000 0.45380  0.79190  0.62170  Biso   1.000  H
  H8       1.0000 0.54620  0.79190  0.87830  Biso   1.000  H
  C9       1.0000 0.90820  0.76910  0.35920  Biso   1.000  C
  C10      1.0000 0.09180  0.76910  0.14080  Biso   1.000  C
  C11      1.0000 0.40820  0.26910  0.35920  Biso   1.000  C
  C12      1.0000 0.59180  0.26910  0.14080  Biso   1.000  C
  C13      1.0000 0.09180  0.23090  0.64080  Biso   1.000  C
  C14      1.0000 0.90820  0.23090  0.85920  Biso   1.000  C
  C15      1.0000 0.59180  0.73090  0.64080  Biso   1.000  C
  C16      1.0000 0.40820  0.73090  0.85920  Biso   1.000  C
  H9       1.0000 0.87330  0.81320  0.35290  Biso   1.000  H
  H10      1.0000 0.12670  0.81320  0.14710  Biso   1.000  H
  H11      1.0000 0.37330  0.31320  0.35290  Biso   1.000  H
  H12      1.0000 0.62670  0.31320  0.14710  Biso   1.000  H
  H13      1.0000 0.12670  0.18680  0.64710  Biso   1.000  H
  H14      1.0000 0.87330  0.18680  0.85290  Biso   1.000  H
  H15      1.0000 0.62670  0.68680  0.64710  Biso   1.000  H
  H16      1.0000 0.37330  0.68680  0.85290  Biso   1.000  H
  C17      1.0000 0.17480  0.23460  0.40270  Biso   1.000  C
  C18      1.0000 0.82520  0.23460  0.09730  Biso   1.000  C
  C19      1.0000 0.67480  0.73460  0.40270  Biso   1.000  C
  C20      1.0000 0.32520  0.73460  0.09730  Biso   1.000  C
  C21      1.0000 0.82520  0.76540  0.59730  Biso   1.000  C
  C22      1.0000 0.17480  0.76540  0.90270  Biso   1.000  C
  C23      1.0000 0.32520  0.26540  0.59730  Biso   1.000  C
  C24      1.0000 0.67480  0.26540  0.90270  Biso   1.000  C
  H17      1.0000 0.16630  0.30520  0.38640  Biso   1.000  H
  H18      1.0000 0.83370  0.30520  0.11360  Biso   1.000  H
  H19      1.0000 0.66630  0.80520  0.38640  Biso   1.000  H
  H20      1.0000 0.33370  0.80520  0.11360  Biso   1.000  H
  H21      1.0000 0.83370  0.69480  0.61360  Biso   1.000  H
  H22      1.0000 0.16630  0.69480  0.88640  Biso   1.000  H
  H23      1.0000 0.33370  0.19480  0.61360  Biso   1.000  H
  H24      1.0000 0.66630  0.19480  0.88640  Biso   1.000  H
  H25      1.0000 0.19810  0.20590  0.35900  Biso   1.000  H
  H26      1.0000 0.80190  0.20590  0.14100  Biso   1.000  H
  H27      1.0000 0.69810  0.70590  0.35900  Biso   1.000  H
  H28      1.0000 0.30190  0.70590  0.14100  Biso   1.000  H
  H29      1.0000 0.80190  0.79410  0.64100  Biso   1.000  H
  H30      1.0000 0.19810  0.79410  0.85900  Biso   1.000  H
  H31      1.0000 0.30190  0.29410  0.64100  Biso   1.000  H
  H32      1.0000 0.69810  0.29410  0.85900  Biso   1.000  H
  N41      1.0000 0.05660  0.22740  0.38990  Biso   1.000  N
  N42      1.0000 0.94340  0.22740  0.11010  Biso   1.000  N
  N43      1.0000 0.55660  0.72740  0.38990  Biso   1.000  N
  N44      1.0000 0.44340  0.72740  0.11010  Biso   1.000  N
  N45      1.0000 0.94340  0.77260  0.61010  Biso   1.000  N
  N46      1.0000 0.05660  0.77260  0.88990  Biso   1.000  N
  N47      1.0000 0.44340  0.27260  0.61010  Biso   1.000  N
  N48      1.0000 0.55660  0.27260  0.88990  Biso   1.000  N
  C25      1.0000 0.01580  0.15510  0.38280  Biso   1.000  C
  C26      1.0000 0.98420  0.15510  0.11720  Biso   1.000  C
  C27      1.0000 0.51580  0.65510  0.38280  Biso   1.000  C
  C28      1.0000 0.48420  0.65510  0.11720  Biso   1.000  C
  C29      1.0000 0.98420  0.84490  0.61720  Biso   1.000  C
  C30      1.0000 0.01580  0.84490  0.88280  Biso   1.000  C
  C31      1.0000 0.48420  0.34490  0.61720  Biso   1.000  C
  C32      1.0000 0.51580  0.34490  0.88280  Biso   1.000  C
  H33      1.0000 0.97230  0.16600  0.38070  Biso   1.000  H
  H34      1.0000 0.02770  0.16600  0.11930  Biso   1.000  H
  H35      1.0000 0.47230  0.66600  0.38070  Biso   1.000  H
  H36      1.0000 0.52770  0.66600  0.11930  Biso   1.000  H
  H37      1.0000 0.02770  0.83400  0.61930  Biso   1.000  H
  H38      1.0000 0.97230  0.83400  0.88070  Biso   1.000  H
  H39      1.0000 0.52770  0.33400  0.61930  Biso   1.000  H
  H40      1.0000 0.47230  0.33400  0.88070  Biso   1.000  H
  C33      1.0000 0.10300  0.08100  0.38530  Biso   1.000  C
  C34      1.0000 0.89700  0.08100  0.11470  Biso   1.000  C
  C35      1.0000 0.60300  0.58100  0.38530  Biso   1.000  C
  C36      1.0000 0.39700  0.58100  0.11470  Biso   1.000  C
  C37      1.0000 0.89700  0.91900  0.61470  Biso   1.000  C
  C38      1.0000 0.10300  0.91900  0.88530  Biso   1.000  C
  C39      1.0000 0.39700  0.41900  0.61470  Biso   1.000  C
  C40      1.0000 0.60300  0.41900  0.88530  Biso   1.000  C
  H41      1.0000 0.13490  0.03290  0.38460  Biso   1.000  H
  H42      1.0000 0.86510  0.03290  0.11540  Biso   1.000  H
  H43      1.0000 0.63490  0.53290  0.38460  Biso   1.000  H
  H44      1.0000 0.36510  0.53290  0.11540  Biso   1.000  H
  H45      1.0000 0.86510  0.96710  0.61540  Biso   1.000  H
  H46      1.0000 0.13490  0.96710  0.88460  Biso   1.000  H
  H47      1.0000 0.36510  0.46710  0.61540  Biso   1.000  H
  H48      1.0000 0.63490  0.46710  0.88460  Biso   1.000  H
  C41      1.0000 0.21650  0.22860  0.49910  Biso   1.000  C
  C42      1.0000 0.78350  0.22860  0.00090  Biso   1.000  C
  C43      1.0000 0.71650  0.72860  0.49910  Biso   1.000  C
  C44      1.0000 0.28350  0.72860  0.00090  Biso   1.000  C
  C45      1.0000 0.78350  0.77140  0.50090  Biso   1.000  C
  C46      1.0000 0.21650  0.77140  0.99910  Biso   1.000  C
  C47      1.0000 0.28350  0.27140  0.50090  Biso   1.000  C
  C48      1.0000 0.71650  0.27140  0.99910  Biso   1.000  C
  H49      1.0000 0.22020  0.15860  0.51960  Biso   1.000  H
  H50      1.0000 0.77980  0.15860  0.98040  Biso   1.000  H
  H51      1.0000 0.72020  0.65860  0.51960  Biso   1.000  H
  H52      1.0000 0.27980  0.65860  0.98040  Biso   1.000  H
  H53      1.0000 0.77980  0.84140  0.48040  Biso   1.000  H
  H54      1.0000 0.22020  0.84140  0.01960  Biso   1.000  H
  H55      1.0000 0.27980  0.34140  0.48040  Biso   1.000  H
  H56      1.0000 0.72020  0.34140  0.01960  Biso   1.000  H
  H57      1.0000 0.19660  0.26670  0.54180  Biso   1.000  H
  H58      1.0000 0.80340  0.26670  0.95820  Biso   1.000  H
  H59      1.0000 0.69660  0.76670  0.54180  Biso   1.000  H
  H60      1.0000 0.30340  0.76670  0.95820  Biso   1.000  H
  H61      1.0000 0.80340  0.73330  0.45820  Biso   1.000  H
  H62      1.0000 0.19660  0.73330  0.04180  Biso   1.000  H
  H63      1.0000 0.30340  0.23330  0.45820  Biso   1.000  H
  H64      1.0000 0.69660  0.23330  0.04180  Biso   1.000  H
  C49      1.0000 0.97800  0.47660  0.45800  Biso   1.000  C
  C50      1.0000 0.02200  0.47660  0.04200  Biso   1.000  C
  C51      1.0000 0.47800  0.97660  0.45800  Biso   1.000  C
  C52      1.0000 0.52200  0.97660  0.04200  Biso   1.000  C
  C53      1.0000 0.02200  0.52340  0.54200  Biso   1.000  C
  C54      1.0000 0.97800  0.52340  0.95800  Biso   1.000  C
  C55      1.0000 0.52200  0.02340  0.54200  Biso   1.000  C
  C56      1.0000 0.47800  0.02340  0.95800  Biso   1.000  C
  H65      1.0000 0.98920  0.40570  0.45500  Biso   1.000  H
  H66      1.0000 0.01080  0.40570  0.04500  Biso   1.000  H
  H67      1.0000 0.48920  0.90570  0.45500  Biso   1.000  H
  H68      1.0000 0.51080  0.90570  0.04500  Biso   1.000  H
  H69      1.0000 0.01080  0.59430  0.54500  Biso   1.000  H
  H70      1.0000 0.98920  0.59430  0.95500  Biso   1.000  H
  H71      1.0000 0.51080  0.09430  0.54500  Biso   1.000  H
  H72      1.0000 0.48920  0.09430  0.95500  Biso   1.000  H
  H73      1.0000 0.93400  0.47990  0.46660  Biso   1.000  H
  H74      1.0000 0.06600  0.47990  0.03340  Biso   1.000  H
  H75      1.0000 0.43400  0.97990  0.46660  Biso   1.000  H
  H76      1.0000 0.56600  0.97990  0.03340  Biso   1.000  H
  H77      1.0000 0.06600  0.52010  0.53340  Biso   1.000  H
  H78      1.0000 0.93400  0.52010  0.96660  Biso   1.000  H
  H79      1.0000 0.56600  0.02010  0.53340  Biso   1.000  H
  H80      1.0000 0.43400  0.02010  0.96660  Biso   1.000  H
  C57      1.0000 0.98040  0.52580  0.36650  Biso   1.000  C
  C58      1.0000 0.01960  0.52580  0.13350  Biso   1.000  C
  C59      1.0000 0.48040  0.02580  0.36650  Biso   1.000  C
  C60      1.0000 0.51960  0.02580  0.13350  Biso   1.000  C
  C61      1.0000 0.01960  0.47420  0.63350  Biso   1.000  C
  C62      1.0000 0.98040  0.47420  0.86650  Biso   1.000  C
  C63      1.0000 0.51960  0.97420  0.63350  Biso   1.000  C
  C64      1.0000 0.48040  0.97420  0.86650  Biso   1.000  C
  H81      1.0000 0.02340  0.51840  0.35500  Biso   1.000  H
  H82      1.0000 0.97660  0.51840  0.14500  Biso   1.000  H
  H83      1.0000 0.52340  0.01840  0.35500  Biso   1.000  H
  H84      1.0000 0.47660  0.01840  0.14500  Biso   1.000  H
  H85      1.0000 0.97660  0.48160  0.64500  Biso   1.000  H
  H86      1.0000 0.02340  0.48160  0.85500  Biso   1.000  H
  H87      1.0000 0.47660  0.98160  0.64500  Biso   1.000  H
  H88      1.0000 0.52340  0.98160  0.85500  Biso   1.000  H
  H89      1.0000 0.95060  0.49150  0.31670  Biso   1.000  H
  H90      1.0000 0.04940  0.49150  0.18330  Biso   1.000  H
  H91      1.0000 0.45060  0.99150  0.31670  Biso   1.000  H
  H92      1.0000 0.54940  0.99150  0.18330  Biso   1.000  H
  H93      1.0000 0.04940  0.50850  0.68330  Biso   1.000  H
  H94      1.0000 0.95060  0.50850  0.81670  Biso   1.000  H
  H95      1.0000 0.54940  0.00850  0.68330  Biso   1.000  H
  H96      1.0000 0.45060  0.00850  0.81670  Biso   1.000  H
