data_image0
_cell_length_a       8.0465
_cell_length_b       13.454
_cell_length_c       13.77
_cell_angle_alpha    64.097
_cell_angle_beta     79.996
_cell_angle_gamma    81.448

_symmetry_space_group_name_H-M    "P 1"
_symmetry_int_tables_number       1

loop_
  _symmetry_equiv_pos_as_xyz
  'x, y, z'

loop_
  _atom_site_label
  _atom_site_occupancy
  _atom_site_fract_x
  _atom_site_fract_y
  _atom_site_fract_z
  _atom_site_thermal_displace_type
  _atom_site_B_iso_or_equiv
  _atom_site_type_symbol
  Cu1      1.0000 0.46039  0.09369  0.62380  Biso   1.000  Cu
  Cu2      1.0000 0.53961  0.90631  0.37620  Biso   1.000  Cu
  Cu3      1.0000 0.20196  0.10617  0.48239  Biso   1.000  Cu
  Cu4      1.0000 0.79804  0.89383  0.51761  Biso   1.000  Cu
  Cu5      1.0000 0.70142  0.21425  0.33241  Biso   1.000  Cu
  Cu6      1.0000 0.29858  0.78575  0.66759  Biso   1.000  Cu
  I1       1.0000 0.36792  0.15989  0.77743  Biso   1.000  I
  I2       1.0000 0.63208  0.84011  0.22257  Biso   1.000  I
  I3       1.0000 0.73381  0.38413  0.14733  Biso   1.000  I
  I4       1.0000 0.26619  0.61587  0.85267  Biso   1.000  I
  I5       1.0000 0.93627  0.24540  0.45345  Biso   1.000  I
  I6       1.0000 0.06373  0.75460  0.54655  Biso   1.000  I
  S1       1.0000 0.45392  0.21967  0.44482  Biso   1.000  S
  S2       1.0000 0.54608  0.78033  0.55518  Biso   1.000  S
  S3       1.0000 0.23469  0.96264  0.65066  Biso   1.000  S
  S4       1.0000 0.76531  0.03736  0.34934  Biso   1.000  S
  S5       1.0000 0.69465  0.96920  0.63928  Biso   1.000  S
  S6       1.0000 0.30535  0.03080  0.36072  Biso   1.000  S
  N1       1.0000 0.49190  0.43460  0.36010  Biso   1.000  N
  N2       1.0000 0.50810  0.56540  0.63990  Biso   1.000  N
  H1       1.0000 0.57360  0.40810  0.32350  Biso   1.000  H
  H2       1.0000 0.42640  0.59190  0.67650  Biso   1.000  H
  N3       1.0000 0.97100  0.06010  0.73100  Biso   1.000  N
  N4       1.0000 0.02900  0.93990  0.26900  Biso   1.000  N
  H3       1.0000 0.99640  0.11000  0.65770  Biso   1.000  H
  H4       1.0000 0.00360  0.89000  0.34230  Biso   1.000  H
  N5       1.0000 0.55160  0.87850  0.84480  Biso   1.000  N
  N6       1.0000 0.44840  0.12150  0.15520  Biso   1.000  N
  H5       1.0000 0.48200  0.93680  0.82640  Biso   1.000  H
  H6       1.0000 0.51800  0.06320  0.17360  Biso   1.000  H
  C1       1.0000 0.40350  0.35220  0.43690  Biso   1.000  C
  C2       1.0000 0.59650  0.64780  0.56310  Biso   1.000  C
  C3       1.0000 0.27280  0.38100  0.50440  Biso   1.000  C
  C4       1.0000 0.72720  0.61900  0.49560  Biso   1.000  C
  H7       1.0000 0.20670  0.32720  0.55820  Biso   1.000  H
  H8       1.0000 0.79330  0.67280  0.44180  Biso   1.000  H
  C5       1.0000 0.24300  0.48940  0.48990  Biso   1.000  C
  C6       1.0000 0.75700  0.51060  0.51010  Biso   1.000  C
  H9       1.0000 0.15700  0.50910  0.53440  Biso   1.000  H
  H10      1.0000 0.84300  0.49090  0.46560  Biso   1.000  H
  C7       1.0000 0.34120  0.57150  0.40900  Biso   1.000  C
  C8       1.0000 0.65880  0.42850  0.59100  Biso   1.000  C
  H11      1.0000 0.32180  0.64480  0.39970  Biso   1.000  H
  H12      1.0000 0.67820  0.35520  0.60030  Biso   1.000  H
  C9       1.0000 0.46250  0.54150  0.34590  Biso   1.000  C
  C10      1.0000 0.53750  0.45850  0.65410  Biso   1.000  C
  H13      1.0000 0.52830  0.59480  0.29100  Biso   1.000  H
  H14      1.0000 0.47170  0.40520  0.70900  Biso   1.000  H
  C11      1.0000 0.08410  0.97120  0.75420  Biso   1.000  C
  C12      1.0000 0.91590  0.02880  0.24580  Biso   1.000  C
  C13      1.0000 0.07510  0.89350  0.86210  Biso   1.000  C
  C14      1.0000 0.92490  0.10650  0.13790  Biso   1.000  C
  H15      1.0000 0.15100  0.83070  0.88220  Biso   1.000  H
  H16      1.0000 0.84900  0.16930  0.11780  Biso   1.000  H
  C15      1.0000 0.95640  0.90950  0.93940  Biso   1.000  C
  C16      1.0000 0.04360  0.09050  0.06060  Biso   1.000  C
  H17      1.0000 0.95120  0.85750  0.01150  Biso   1.000  H
  H18      1.0000 0.04880  0.14250  0.98850  Biso   1.000  H
  C17      1.0000 0.84190  0.00310  0.90940  Biso   1.000  C
  C18      1.0000 0.15810  0.99690  0.09060  Biso   1.000  C
  H19      1.0000 0.75980  0.01470  0.96080  Biso   1.000  H
  H20      1.0000 0.24020  0.98530  0.03920  Biso   1.000  H
  C19      1.0000 0.85340  0.07710  0.80510  Biso   1.000  C
  C20      1.0000 0.14660  0.92290  0.19490  Biso   1.000  C
  H21      1.0000 0.77820  0.14030  0.78420  Biso   1.000  H
  H22      1.0000 0.22180  0.85970  0.21580  Biso   1.000  H
  C21      1.0000 0.67080  0.86380  0.76920  Biso   1.000  C
  C22      1.0000 0.32920  0.13620  0.23080  Biso   1.000  C
  C23      1.0000 0.77180  0.76540  0.80330  Biso   1.000  C
  C24      1.0000 0.22820  0.23460  0.19670  Biso   1.000  C
  H23      1.0000 0.85380  0.75020  0.75390  Biso   1.000  H
  H24      1.0000 0.14620  0.24980  0.24610  Biso   1.000  H
  C25      1.0000 0.75100  0.69020  0.90950  Biso   1.000  C
  C26      1.0000 0.24900  0.30980  0.09050  Biso   1.000  C
  H25      1.0000 0.82150  0.62490  0.93280  Biso   1.000  H
  H26      1.0000 0.17850  0.37510  0.06720  Biso   1.000  H
  C27      1.0000 0.62640  0.70950  0.98450  Biso   1.000  C
  C28      1.0000 0.37360  0.29050  0.01550  Biso   1.000  C
  H27      1.0000 0.61120  0.65770  0.05660  Biso   1.000  H
  H28      1.0000 0.38880  0.34230  0.94340  Biso   1.000  H
  C29      1.0000 0.52950  0.80540  0.94970  Biso   1.000  C
  C30      1.0000 0.47050  0.19460  0.05030  Biso   1.000  C
  H29      1.0000 0.44610  0.82150  0.99790  Biso   1.000  H
  H30      1.0000 0.55390  0.17850  0.00210  Biso   1.000  H
  N7       1.0000 0.20820  0.70690  0.13930  Biso   1.000  N
  N8       1.0000 0.79180  0.29310  0.86070  Biso   1.000  N
  C31      1.0000 0.15120  0.63190  0.16340  Biso   1.000  C
  C32      1.0000 0.84880  0.36810  0.83660  Biso   1.000  C
  C33      1.0000 0.09200  0.52900  0.19420  Biso   1.000  C
  C34      1.0000 0.90800  0.47100  0.80580  Biso   1.000  C
  H31      1.0000 0.17490  0.46990  0.22760  Biso   1.000  H
  H32      1.0000 0.82510  0.53010  0.77240  Biso   1.000  H
  H33      1.0000 0.06370  0.52410  0.13150  Biso   1.000  H
  H34      1.0000 0.93630  0.47590  0.86850  Biso   1.000  H
  H35      1.0000 0.99170  0.52320  0.24520  Biso   1.000  H
  H36      1.0000 0.00830  0.47680  0.75480  Biso   1.000  H
