data_image0
_cell_length_a       15.75
_cell_length_b       18.914
_cell_length_c       8.093
_cell_angle_alpha    90
_cell_angle_beta     107.76
_cell_angle_gamma    90

_symmetry_space_group_name_H-M    "P 1"
_symmetry_int_tables_number       1

loop_
  _symmetry_equiv_pos_as_xyz
  'x, y, z'

loop_
  _atom_site_label
  _atom_site_occupancy
  _atom_site_fract_x
  _atom_site_fract_y
  _atom_site_fract_z
  _atom_site_thermal_displace_type
  _atom_site_B_iso_or_equiv
  _atom_site_type_symbol
  C1       1.0000 0.25410  0.14500  0.14270  Biso   1.000  C
  C2       1.0000 0.25410  0.85500  0.64270  Biso   1.000  C
  C3       1.0000 0.75410  0.64500  0.14270  Biso   1.000  C
  C4       1.0000 0.75410  0.35500  0.64270  Biso   1.000  C
  H1       1.0000 0.22150  0.17050  0.20080  Biso   1.000  H
  H2       1.0000 0.22150  0.82950  0.70080  Biso   1.000  H
  H3       1.0000 0.72150  0.67050  0.20080  Biso   1.000  H
  H4       1.0000 0.72150  0.32950  0.70080  Biso   1.000  H
  C5       1.0000 0.33400  0.11420  0.23850  Biso   1.000  C
  C6       1.0000 0.33400  0.88580  0.73850  Biso   1.000  C
  C7       1.0000 0.83400  0.61420  0.23850  Biso   1.000  C
  C8       1.0000 0.83400  0.38580  0.73850  Biso   1.000  C
  H5       1.0000 0.35400  0.11960  0.35840  Biso   1.000  H
  H6       1.0000 0.35400  0.88040  0.85840  Biso   1.000  H
  H7       1.0000 0.85400  0.61960  0.35840  Biso   1.000  H
  H8       1.0000 0.85400  0.38040  0.85840  Biso   1.000  H
  C9       1.0000 0.38380  0.07570  0.15660  Biso   1.000  C
  C10      1.0000 0.38380  0.92430  0.65660  Biso   1.000  C
  C11      1.0000 0.88380  0.57570  0.15660  Biso   1.000  C
  C12      1.0000 0.88380  0.42430  0.65660  Biso   1.000  C
  H9       1.0000 0.43660  0.05380  0.21980  Biso   1.000  H
  H10      1.0000 0.43660  0.94620  0.71980  Biso   1.000  H
  H11      1.0000 0.93660  0.55380  0.21980  Biso   1.000  H
  H12      1.0000 0.93660  0.44620  0.71980  Biso   1.000  H
  C13      1.0000 0.35310  0.07060  0.97800  Biso   1.000  C
  C14      1.0000 0.35310  0.92940  0.47800  Biso   1.000  C
  C15      1.0000 0.85310  0.57060  0.97800  Biso   1.000  C
  C16      1.0000 0.85310  0.42940  0.47800  Biso   1.000  C
  H13      1.0000 0.38600  0.04680  0.91760  Biso   1.000  H
  H14      1.0000 0.38600  0.95320  0.41760  Biso   1.000  H
  H15      1.0000 0.88600  0.54680  0.91760  Biso   1.000  H
  H16      1.0000 0.88600  0.45320  0.41760  Biso   1.000  H
  C17      1.0000 0.27150  0.10180  0.88990  Biso   1.000  C
  C18      1.0000 0.27150  0.89820  0.38990  Biso   1.000  C
  C19      1.0000 0.77150  0.60180  0.88990  Biso   1.000  C
  C20      1.0000 0.77150  0.39820  0.38990  Biso   1.000  C
  C21      1.0000 0.23280  0.09900  0.69920  Biso   1.000  C
  C22      1.0000 0.23280  0.90100  0.19920  Biso   1.000  C
  C23      1.0000 0.73280  0.59900  0.69920  Biso   1.000  C
  C24      1.0000 0.73280  0.40100  0.19920  Biso   1.000  C
  H17      1.0000 0.26430  0.07770  0.63240  Biso   1.000  H
  H18      1.0000 0.26430  0.92230  0.13240  Biso   1.000  H
  H19      1.0000 0.76430  0.57770  0.63240  Biso   1.000  H
  H20      1.0000 0.76430  0.42230  0.13240  Biso   1.000  H
  C25      1.0000 0.11820  0.12200  0.44350  Biso   1.000  C
  C26      1.0000 0.11820  0.87800  0.94350  Biso   1.000  C
  C27      1.0000 0.61820  0.62200  0.44350  Biso   1.000  C
  C28      1.0000 0.61820  0.37800  0.94350  Biso   1.000  C
  C29      1.0000 0.12290  0.05940  0.34870  Biso   1.000  C
  C30      1.0000 0.12290  0.94060  0.84870  Biso   1.000  C
  C31      1.0000 0.62290  0.55940  0.34870  Biso   1.000  C
  C32      1.0000 0.62290  0.44060  0.84870  Biso   1.000  C
  H21      1.0000 0.15300  0.01970  0.40520  Biso   1.000  H
  H22      1.0000 0.15300  0.98030  0.90520  Biso   1.000  H
  H23      1.0000 0.65300  0.51970  0.40520  Biso   1.000  H
  H24      1.0000 0.65300  0.48030  0.90520  Biso   1.000  H
  C33      1.0000 0.08210  0.05870  0.17140  Biso   1.000  C
  C34      1.0000 0.08210  0.94130  0.67140  Biso   1.000  C
  C35      1.0000 0.58210  0.55870  0.17140  Biso   1.000  C
  C36      1.0000 0.58210  0.44130  0.67140  Biso   1.000  C
  H25      1.0000 0.08290  0.01700  0.11120  Biso   1.000  H
  H26      1.0000 0.08290  0.98300  0.61120  Biso   1.000  H
  H27      1.0000 0.58290  0.51700  0.11120  Biso   1.000  H
  H28      1.0000 0.58290  0.48300  0.61120  Biso   1.000  H
  C37      1.0000 0.04030  0.11670  0.07990  Biso   1.000  C
  C38      1.0000 0.04030  0.88330  0.57990  Biso   1.000  C
  C39      1.0000 0.54030  0.61670  0.07990  Biso   1.000  C
  C40      1.0000 0.54030  0.38330  0.57990  Biso   1.000  C
  C41      1.0000 0.03250  0.17760  0.17650  Biso   1.000  C
  C42      1.0000 0.03250  0.82240  0.67650  Biso   1.000  C
  C43      1.0000 0.53250  0.67760  0.17650  Biso   1.000  C
  C44      1.0000 0.53250  0.32240  0.67650  Biso   1.000  C
  H29      1.0000 0.00200  0.21700  0.11900  Biso   1.000  H
  H30      1.0000 0.00200  0.78300  0.61900  Biso   1.000  H
  H31      1.0000 0.50200  0.71700  0.11900  Biso   1.000  H
  H32      1.0000 0.50200  0.28300  0.61900  Biso   1.000  H
  C45      1.0000 0.06950  0.17930  0.35510  Biso   1.000  C
  C46      1.0000 0.06950  0.82070  0.85510  Biso   1.000  C
  C47      1.0000 0.56950  0.67930  0.35510  Biso   1.000  C
  C48      1.0000 0.56950  0.32070  0.85510  Biso   1.000  C
  H33      1.0000 0.06180  0.21900  0.41660  Biso   1.000  H
  H34      1.0000 0.06180  0.78100  0.91660  Biso   1.000  H
  H35      1.0000 0.56180  0.71900  0.41660  Biso   1.000  H
  H36      1.0000 0.56180  0.28100  0.91660  Biso   1.000  H
  C49      1.0000 0.00730  0.11340  0.89180  Biso   1.000  C
  C50      1.0000 0.00730  0.88660  0.39180  Biso   1.000  C
  C51      1.0000 0.50730  0.61340  0.89180  Biso   1.000  C
  C52      1.0000 0.50730  0.38660  0.39180  Biso   1.000  C
  H37      1.0000 0.01670  0.07110  0.84140  Biso   1.000  H
  H38      1.0000 0.01670  0.92890  0.34140  Biso   1.000  H
  H39      1.0000 0.51670  0.57110  0.84140  Biso   1.000  H
  H40      1.0000 0.51670  0.42890  0.34140  Biso   1.000  H
  C53      1.0000 0.96340  0.16610  0.77850  Biso   1.000  C
  C54      1.0000 0.96340  0.83390  0.27850  Biso   1.000  C
  C55      1.0000 0.46340  0.66610  0.77850  Biso   1.000  C
  C56      1.0000 0.46340  0.33390  0.27850  Biso   1.000  C
  H41      1.0000 0.96250  0.21090  0.82550  Biso   1.000  H
  H42      1.0000 0.96250  0.78910  0.32550  Biso   1.000  H
  H43      1.0000 0.46250  0.71090  0.82550  Biso   1.000  H
  H44      1.0000 0.46250  0.28910  0.32550  Biso   1.000  H
  C57      1.0000 0.91850  0.15820  0.59280  Biso   1.000  C
  C58      1.0000 0.91850  0.84180  0.09280  Biso   1.000  C
  C59      1.0000 0.41850  0.65820  0.59280  Biso   1.000  C
  C60      1.0000 0.41850  0.34180  0.09280  Biso   1.000  C
  C61      1.0000 0.90880  0.09400  0.50170  Biso   1.000  C
  C62      1.0000 0.90880  0.90600  0.00170  Biso   1.000  C
  C63      1.0000 0.40880  0.59400  0.50170  Biso   1.000  C
  C64      1.0000 0.40880  0.40600  0.00170  Biso   1.000  C
  H45      1.0000 0.93080  0.05300  0.56310  Biso   1.000  H
  H46      1.0000 0.93080  0.94700  0.06310  Biso   1.000  H
  H47      1.0000 0.43080  0.55300  0.56310  Biso   1.000  H
  H48      1.0000 0.43080  0.44700  0.06310  Biso   1.000  H
  C65      1.0000 0.86810  0.08920  0.32590  Biso   1.000  C
  C66      1.0000 0.86810  0.91080  0.82590  Biso   1.000  C
  C67      1.0000 0.36810  0.58920  0.32590  Biso   1.000  C
  C68      1.0000 0.36810  0.41080  0.82590  Biso   1.000  C
  H49      1.0000 0.86220  0.04510  0.27240  Biso   1.000  H
  H50      1.0000 0.86220  0.95490  0.77240  Biso   1.000  H
  H51      1.0000 0.36220  0.54510  0.27240  Biso   1.000  H
  H52      1.0000 0.36220  0.45490  0.77240  Biso   1.000  H
  C69      1.0000 0.83480  0.15030  0.22430  Biso   1.000  C
  C70      1.0000 0.83480  0.84970  0.72430  Biso   1.000  C
  C71      1.0000 0.33480  0.65030  0.22430  Biso   1.000  C
  C72      1.0000 0.33480  0.34970  0.72430  Biso   1.000  C
  C73      1.0000 0.84420  0.21550  0.31430  Biso   1.000  C
  C74      1.0000 0.84420  0.78450  0.81430  Biso   1.000  C
  C75      1.0000 0.34420  0.71550  0.31430  Biso   1.000  C
  C76      1.0000 0.34420  0.28450  0.81430  Biso   1.000  C
  H53      1.0000 0.82230  0.25660  0.25320  Biso   1.000  H
  H54      1.0000 0.82230  0.74340  0.75320  Biso   1.000  H
  H55      1.0000 0.32230  0.75660  0.25320  Biso   1.000  H
  H56      1.0000 0.32230  0.24340  0.75320  Biso   1.000  H
  C77      1.0000 0.88520  0.21900  0.49130  Biso   1.000  C
  C78      1.0000 0.88520  0.78100  0.99130  Biso   1.000  C
  C79      1.0000 0.38520  0.71900  0.49130  Biso   1.000  C
  C80      1.0000 0.38520  0.28100  0.99130  Biso   1.000  C
  H57      1.0000 0.89120  0.26280  0.54580  Biso   1.000  H
  H58      1.0000 0.89120  0.73720  0.04580  Biso   1.000  H
  H59      1.0000 0.39120  0.76280  0.54580  Biso   1.000  H
  H60      1.0000 0.39120  0.23720  0.04580  Biso   1.000  H
  C81      1.0000 0.78190  0.07920  0.96000  Biso   1.000  C
  C82      1.0000 0.78190  0.92080  0.46000  Biso   1.000  C
  C83      1.0000 0.28190  0.57920  0.96000  Biso   1.000  C
  C84      1.0000 0.28190  0.42080  0.46000  Biso   1.000  C
  H61      1.0000 0.75770  0.04540  0.02190  Biso   1.000  H
  H62      1.0000 0.75770  0.95460  0.52190  Biso   1.000  H
  H63      1.0000 0.25770  0.54540  0.02190  Biso   1.000  H
  H64      1.0000 0.25770  0.45460  0.52190  Biso   1.000  H
  H65      1.0000 0.83870  0.06290  0.95470  Biso   1.000  H
  H66      1.0000 0.83870  0.93710  0.45470  Biso   1.000  H
  H67      1.0000 0.33870  0.56290  0.95470  Biso   1.000  H
  H68      1.0000 0.33870  0.43710  0.45470  Biso   1.000  H
  H69      1.0000 0.74200  0.08470  0.84440  Biso   1.000  H
  H70      1.0000 0.74200  0.91530  0.34440  Biso   1.000  H
  H71      1.0000 0.24200  0.58470  0.84440  Biso   1.000  H
  H72      1.0000 0.24200  0.41530  0.34440  Biso   1.000  H
  C85      1.0000 0.76520  0.21010  0.94740  Biso   1.000  C
  C86      1.0000 0.76520  0.78990  0.44740  Biso   1.000  C
  C87      1.0000 0.26520  0.71010  0.94740  Biso   1.000  C
  C88      1.0000 0.26520  0.28990  0.44740  Biso   1.000  C
  H73      1.0000 0.72150  0.23450  0.98680  Biso   1.000  H
  H74      1.0000 0.72150  0.76550  0.48680  Biso   1.000  H
  H75      1.0000 0.22150  0.73450  0.98680  Biso   1.000  H
  H76      1.0000 0.22150  0.26550  0.48680  Biso   1.000  H
  H77      1.0000 0.73980  0.19780  0.82730  Biso   1.000  H
  H78      1.0000 0.73980  0.80220  0.32730  Biso   1.000  H
  H79      1.0000 0.23980  0.69780  0.82730  Biso   1.000  H
  H80      1.0000 0.23980  0.30220  0.32730  Biso   1.000  H
  H81      1.0000 0.81590  0.24030  0.96060  Biso   1.000  H
  H82      1.0000 0.81590  0.75970  0.46060  Biso   1.000  H
  H83      1.0000 0.31590  0.74030  0.96060  Biso   1.000  H
  H84      1.0000 0.31590  0.25970  0.46060  Biso   1.000  H
  C89      1.0000 0.11810  0.33630  0.78560  Biso   1.000  C
  C90      1.0000 0.11810  0.66370  0.28560  Biso   1.000  C
  C91      1.0000 0.61810  0.83630  0.78560  Biso   1.000  C
  C92      1.0000 0.61810  0.16370  0.28560  Biso   1.000  C
  C93      1.0000 0.12780  0.41420  0.78300  Biso   1.000  C
  C94      1.0000 0.12780  0.58580  0.28300  Biso   1.000  C
  C95      1.0000 0.62780  0.91420  0.78300  Biso   1.000  C
  C96      1.0000 0.62780  0.08580  0.28300  Biso   1.000  C
  H85      1.0000 0.18990  0.42630  0.81670  Biso   1.000  H
  H86      1.0000 0.18990  0.57370  0.31670  Biso   1.000  H
  H87      1.0000 0.68990  0.92630  0.81670  Biso   1.000  H
  H88      1.0000 0.68990  0.07370  0.31670  Biso   1.000  H
  H89      1.0000 0.10070  0.43520  0.86270  Biso   1.000  H
  H90      1.0000 0.10070  0.56480  0.36270  Biso   1.000  H
  H91      1.0000 0.60070  0.93520  0.86270  Biso   1.000  H
  H92      1.0000 0.60070  0.06480  0.36270  Biso   1.000  H
  H93      1.0000 0.09890  0.43160  0.66810  Biso   1.000  H
  H94      1.0000 0.09890  0.56840  0.16810  Biso   1.000  H
  H95      1.0000 0.59890  0.93160  0.66810  Biso   1.000  H
  H96      1.0000 0.59890  0.06840  0.16810  Biso   1.000  H
  Cu1      1.0000 0.10233  0.17521  0.81279  Biso   1.000  Cu
  Cu2      1.0000 0.10233  0.82479  0.31279  Biso   1.000  Cu
  Cu3      1.0000 0.60233  0.67521  0.81279  Biso   1.000  Cu
  Cu4      1.0000 0.60233  0.32479  0.31279  Biso   1.000  Cu
  N1       1.0000 0.22270  0.13940  0.97150  Biso   1.000  N
  N2       1.0000 0.22270  0.86060  0.47150  Biso   1.000  N
  N3       1.0000 0.72270  0.63940  0.97150  Biso   1.000  N
  N4       1.0000 0.72270  0.36060  0.47150  Biso   1.000  N
  N5       1.0000 0.15600  0.12590  0.62590  Biso   1.000  N
  N6       1.0000 0.15600  0.87410  0.12590  Biso   1.000  N
  N7       1.0000 0.65600  0.62590  0.62590  Biso   1.000  N
  N8       1.0000 0.65600  0.37410  0.12590  Biso   1.000  N
  N9       1.0000 0.79290  0.14660  0.04880  Biso   1.000  N
  N10      1.0000 0.79290  0.85340  0.54880  Biso   1.000  N
  N11      1.0000 0.29290  0.64660  0.04880  Biso   1.000  N
  N12      1.0000 0.29290  0.35340  0.54880  Biso   1.000  N
  N13      1.0000 0.11000  0.27770  0.78480  Biso   1.000  N
  N14      1.0000 0.11000  0.72230  0.28480  Biso   1.000  N
  N15      1.0000 0.61000  0.77770  0.78480  Biso   1.000  N
  N16      1.0000 0.61000  0.22230  0.28480  Biso   1.000  N
  B1       1.0000 0.51260  0.10860  0.69020  Biso   1.000  B
  B2       1.0000 0.51260  0.89140  0.19020  Biso   1.000  B
  B3       1.0000 0.01260  0.60860  0.69020  Biso   1.000  B
  B4       1.0000 0.01260  0.39140  0.19020  Biso   1.000  B
  F1       1.0000 0.50900  0.05200  0.58100  Biso   1.000  F
  F2       1.0000 0.50900  0.94800  0.08100  Biso   1.000  F
  F3       1.0000 0.00900  0.55200  0.58100  Biso   1.000  F
  F4       1.0000 0.00900  0.44800  0.08100  Biso   1.000  F
  F5       1.0000 0.42740  0.13080  0.66190  Biso   1.000  F
  F6       1.0000 0.42740  0.86920  0.16190  Biso   1.000  F
  F7       1.0000 0.92740  0.63080  0.66190  Biso   1.000  F
  F8       1.0000 0.92740  0.36920  0.16190  Biso   1.000  F
  F9       1.0000 0.56250  0.15260  0.63620  Biso   1.000  F
  F10      1.0000 0.56250  0.84740  0.13620  Biso   1.000  F
  F11      1.0000 0.06250  0.65260  0.63620  Biso   1.000  F
  F12      1.0000 0.06250  0.34740  0.13620  Biso   1.000  F
  F13      1.0000 0.54490  0.08970  0.85140  Biso   1.000  F
  F14      1.0000 0.54490  0.91030  0.35140  Biso   1.000  F
  F15      1.0000 0.04490  0.58970  0.85140  Biso   1.000  F
  F16      1.0000 0.04490  0.41030  0.35140  Biso   1.000  F
