data_image0
_cell_length_a       4.225
_cell_length_b       10.792
_cell_length_c       21.907
_cell_angle_alpha    90
_cell_angle_beta     92.67
_cell_angle_gamma    90

_symmetry_space_group_name_H-M    "P 1"
_symmetry_int_tables_number       1

loop_
  _symmetry_equiv_pos_as_xyz
  'x, y, z'

loop_
  _atom_site_label
  _atom_site_occupancy
  _atom_site_fract_x
  _atom_site_fract_y
  _atom_site_fract_z
  _atom_site_thermal_displace_type
  _atom_site_B_iso_or_equiv
  _atom_site_type_symbol
  I1       1.0000 0.47000  0.80140  0.99450  Biso   1.000  I
  I2       1.0000 0.53000  0.30140  0.50550  Biso   1.000  I
  I3       1.0000 0.53000  0.19860  0.00550  Biso   1.000  I
  I4       1.0000 0.47000  0.69860  0.49450  Biso   1.000  I
  Cu1      1.0000 0.48250  0.99270  0.07060  Biso   1.000  Cu
  Cu2      1.0000 0.51750  0.49270  0.42940  Biso   1.000  Cu
  Cu3      1.0000 0.51750  0.00730  0.92940  Biso   1.000  Cu
  Cu4      1.0000 0.48250  0.50730  0.57060  Biso   1.000  Cu
  I5       1.0000 0.99530  0.97710  0.14270  Biso   1.000  I
  I6       1.0000 0.00470  0.47710  0.35730  Biso   1.000  I
  I7       1.0000 0.00470  0.02290  0.85730  Biso   1.000  I
  I8       1.0000 0.99530  0.52290  0.64270  Biso   1.000  I
  Cu5      1.0000 0.94780  0.81100  0.91340  Biso   1.000  Cu
  Cu6      1.0000 0.05220  0.31100  0.58660  Biso   1.000  Cu
  Cu7      1.0000 0.05220  0.18900  0.08660  Biso   1.000  Cu
  Cu8      1.0000 0.94780  0.68900  0.41340  Biso   1.000  Cu
  N1       1.0000 0.90600  0.64000  0.87800  Biso   1.000  N
  N2       1.0000 0.09400  0.14000  0.62200  Biso   1.000  N
  N3       1.0000 0.09400  0.36000  0.12200  Biso   1.000  N
  N4       1.0000 0.90600  0.86000  0.37800  Biso   1.000  N
  C1       1.0000 0.73500  0.61600  0.82400  Biso   1.000  C
  C2       1.0000 0.26500  0.11600  0.67600  Biso   1.000  C
  C3       1.0000 0.26500  0.38400  0.17600  Biso   1.000  C
  C4       1.0000 0.73500  0.88400  0.32400  Biso   1.000  C
  C5       1.0000 0.66100  0.48800  0.81000  Biso   1.000  C
  C6       1.0000 0.33900  0.98800  0.69000  Biso   1.000  C
  C7       1.0000 0.33900  0.51200  0.19000  Biso   1.000  C
  C8       1.0000 0.66100  0.01200  0.31000  Biso   1.000  C
  C9       1.0000 0.79000  0.39800  0.84600  Biso   1.000  C
  C10      1.0000 0.21000  0.89800  0.65400  Biso   1.000  C
  C11      1.0000 0.21000  0.60200  0.15400  Biso   1.000  C
  C12      1.0000 0.79000  0.10200  0.34600  Biso   1.000  C
  C13      1.0000 0.96500  0.42600  0.89700  Biso   1.000  C
  C14      1.0000 0.03500  0.92600  0.60300  Biso   1.000  C
  C15      1.0000 0.03500  0.57400  0.10300  Biso   1.000  C
  C16      1.0000 0.96500  0.07400  0.39700  Biso   1.000  C
  C17      1.0000 0.01600  0.54900  0.91200  Biso   1.000  C
  C18      1.0000 0.98400  0.04900  0.58800  Biso   1.000  C
  C19      1.0000 0.98400  0.45100  0.08800  Biso   1.000  C
  C20      1.0000 0.01600  0.95100  0.41200  Biso   1.000  C
  C21      1.0000 0.59100  0.72100  0.78800  Biso   1.000  C
  C22      1.0000 0.40900  0.22100  0.71200  Biso   1.000  C
  C23      1.0000 0.40900  0.27900  0.21200  Biso   1.000  C
  C24      1.0000 0.59100  0.77900  0.28800  Biso   1.000  C
