data_image0
_cell_length_a       12.8325
_cell_length_b       26.6088
_cell_length_c       7.2481
_cell_angle_alpha    90
_cell_angle_beta     90
_cell_angle_gamma    90

_symmetry_space_group_name_H-M    "P 1"
_symmetry_int_tables_number       1

loop_
  _symmetry_equiv_pos_as_xyz
  'x, y, z'

loop_
  _atom_site_label
  _atom_site_occupancy
  _atom_site_fract_x
  _atom_site_fract_y
  _atom_site_fract_z
  _atom_site_thermal_displace_type
  _atom_site_B_iso_or_equiv
  _atom_site_type_symbol
  Cu1      1.0000 0.35627  0.24006  0.95210  Biso   1.000  Cu
  Cu2      1.0000 0.64373  0.75994  0.95210  Biso   1.000  Cu
  Cu3      1.0000 0.60627  0.00994  0.20210  Biso   1.000  Cu
  Cu4      1.0000 0.89373  0.49006  0.20210  Biso   1.000  Cu
  Cu5      1.0000 0.35627  0.74006  0.45210  Biso   1.000  Cu
  Cu6      1.0000 0.64373  0.25994  0.45210  Biso   1.000  Cu
  Cu7      1.0000 0.60627  0.50994  0.70210  Biso   1.000  Cu
  Cu8      1.0000 0.89373  0.99006  0.70210  Biso   1.000  Cu
  Cu9      1.0000 0.85627  0.24006  0.45210  Biso   1.000  Cu
  Cu10     1.0000 0.14373  0.75994  0.45210  Biso   1.000  Cu
  Cu11     1.0000 0.10627  0.00994  0.70210  Biso   1.000  Cu
  Cu12     1.0000 0.39373  0.49006  0.70210  Biso   1.000  Cu
  Cu13     1.0000 0.85627  0.74006  0.95210  Biso   1.000  Cu
  Cu14     1.0000 0.14373  0.25994  0.95210  Biso   1.000  Cu
  Cu15     1.0000 0.10627  0.50994  0.20210  Biso   1.000  Cu
  Cu16     1.0000 0.39373  0.99006  0.20210  Biso   1.000  Cu
  N1       1.0000 0.33860  0.18070  0.81390  Biso   1.000  N
  N2       1.0000 0.66140  0.81930  0.81390  Biso   1.000  N
  N3       1.0000 0.58860  0.06930  0.06390  Biso   1.000  N
  N4       1.0000 0.91140  0.43070  0.06390  Biso   1.000  N
  N5       1.0000 0.33860  0.68070  0.31390  Biso   1.000  N
  N6       1.0000 0.66140  0.31930  0.31390  Biso   1.000  N
  N7       1.0000 0.58860  0.56930  0.56390  Biso   1.000  N
  N8       1.0000 0.91140  0.93070  0.56390  Biso   1.000  N
  N9       1.0000 0.83860  0.18070  0.31390  Biso   1.000  N
  N10      1.0000 0.16140  0.81930  0.31390  Biso   1.000  N
  N11      1.0000 0.08860  0.06930  0.56390  Biso   1.000  N
  N12      1.0000 0.41140  0.43070  0.56390  Biso   1.000  N
  N13      1.0000 0.83860  0.68070  0.81390  Biso   1.000  N
  N14      1.0000 0.16140  0.31930  0.81390  Biso   1.000  N
  N15      1.0000 0.08860  0.56930  0.06390  Biso   1.000  N
  N16      1.0000 0.41140  0.93070  0.06390  Biso   1.000  N
  C1       1.0000 0.32040  0.13650  0.89340  Biso   1.000  C
  C2       1.0000 0.67960  0.86350  0.89340  Biso   1.000  C
  C3       1.0000 0.57040  0.11350  0.14340  Biso   1.000  C
  C4       1.0000 0.92960  0.38650  0.14340  Biso   1.000  C
  C5       1.0000 0.32040  0.63650  0.39340  Biso   1.000  C
  C6       1.0000 0.67960  0.36350  0.39340  Biso   1.000  C
  C7       1.0000 0.57040  0.61350  0.64340  Biso   1.000  C
  C8       1.0000 0.92960  0.88650  0.64340  Biso   1.000  C
  C9       1.0000 0.82040  0.13650  0.39340  Biso   1.000  C
  C10      1.0000 0.17960  0.86350  0.39340  Biso   1.000  C
  C11      1.0000 0.07040  0.11350  0.64340  Biso   1.000  C
  C12      1.0000 0.42960  0.38650  0.64340  Biso   1.000  C
  C13      1.0000 0.82040  0.63650  0.89340  Biso   1.000  C
  C14      1.0000 0.17960  0.36350  0.89340  Biso   1.000  C
  C15      1.0000 0.07040  0.61350  0.14340  Biso   1.000  C
  C16      1.0000 0.42960  0.88650  0.14340  Biso   1.000  C
  H1       1.0000 0.30730  0.13590  0.01950  Biso   1.000  H
  H2       1.0000 0.69270  0.86410  0.01950  Biso   1.000  H
  H3       1.0000 0.55730  0.11410  0.26950  Biso   1.000  H
  H4       1.0000 0.94270  0.38590  0.26950  Biso   1.000  H
  H5       1.0000 0.30730  0.63590  0.51950  Biso   1.000  H
  H6       1.0000 0.69270  0.36410  0.51950  Biso   1.000  H
  H7       1.0000 0.55730  0.61410  0.76950  Biso   1.000  H
  H8       1.0000 0.94270  0.88590  0.76950  Biso   1.000  H
  H9       1.0000 0.80730  0.13590  0.51950  Biso   1.000  H
  H10      1.0000 0.19270  0.86410  0.51950  Biso   1.000  H
  H11      1.0000 0.05730  0.11410  0.76950  Biso   1.000  H
  H12      1.0000 0.44270  0.38590  0.76950  Biso   1.000  H
  H13      1.0000 0.80730  0.63590  0.01950  Biso   1.000  H
  H14      1.0000 0.19270  0.36410  0.01950  Biso   1.000  H
  H15      1.0000 0.05730  0.61410  0.26950  Biso   1.000  H
  H16      1.0000 0.44270  0.88590  0.26950  Biso   1.000  H
  C17      1.0000 0.35430  0.18160  0.63200  Biso   1.000  C
  C18      1.0000 0.64570  0.81840  0.63200  Biso   1.000  C
  C19      1.0000 0.60430  0.06840  0.88200  Biso   1.000  C
  C20      1.0000 0.89570  0.43160  0.88200  Biso   1.000  C
  C21      1.0000 0.35430  0.68160  0.13200  Biso   1.000  C
  C22      1.0000 0.64570  0.31840  0.13200  Biso   1.000  C
  C23      1.0000 0.60430  0.56840  0.38200  Biso   1.000  C
  C24      1.0000 0.89570  0.93160  0.38200  Biso   1.000  C
  C25      1.0000 0.85430  0.18160  0.13200  Biso   1.000  C
  C26      1.0000 0.14570  0.81840  0.13200  Biso   1.000  C
  C27      1.0000 0.10430  0.06840  0.38200  Biso   1.000  C
  C28      1.0000 0.39570  0.43160  0.38200  Biso   1.000  C
  C29      1.0000 0.85430  0.68160  0.63200  Biso   1.000  C
  C30      1.0000 0.14570  0.31840  0.63200  Biso   1.000  C
  C31      1.0000 0.10430  0.56840  0.88200  Biso   1.000  C
  C32      1.0000 0.39570  0.93160  0.88200  Biso   1.000  C
  H17      1.0000 0.36360  0.21230  0.57340  Biso   1.000  H
  H18      1.0000 0.63640  0.78770  0.57340  Biso   1.000  H
  H19      1.0000 0.61360  0.03770  0.82340  Biso   1.000  H
  H20      1.0000 0.88640  0.46230  0.82340  Biso   1.000  H
  H21      1.0000 0.36360  0.71230  0.07340  Biso   1.000  H
  H22      1.0000 0.63640  0.28770  0.07340  Biso   1.000  H
  H23      1.0000 0.61360  0.53770  0.32340  Biso   1.000  H
  H24      1.0000 0.88640  0.96230  0.32340  Biso   1.000  H
  H25      1.0000 0.86360  0.21230  0.07340  Biso   1.000  H
  H26      1.0000 0.13640  0.78770  0.07340  Biso   1.000  H
  H27      1.0000 0.11360  0.03770  0.32340  Biso   1.000  H
  H28      1.0000 0.38640  0.46230  0.32340  Biso   1.000  H
  H29      1.0000 0.86360  0.71230  0.57340  Biso   1.000  H
  H30      1.0000 0.13640  0.28770  0.57340  Biso   1.000  H
  H31      1.0000 0.11360  0.53770  0.82340  Biso   1.000  H
  H32      1.0000 0.38640  0.96230  0.82340  Biso   1.000  H
  C33      1.0000 0.35700  0.13820  0.52860  Biso   1.000  C
  C34      1.0000 0.64300  0.86180  0.52860  Biso   1.000  C
  C35      1.0000 0.60700  0.11180  0.77860  Biso   1.000  C
  C36      1.0000 0.89300  0.38820  0.77860  Biso   1.000  C
  C37      1.0000 0.35700  0.63820  0.02860  Biso   1.000  C
  C38      1.0000 0.64300  0.36180  0.02860  Biso   1.000  C
  C39      1.0000 0.60700  0.61180  0.27860  Biso   1.000  C
  C40      1.0000 0.89300  0.88820  0.27860  Biso   1.000  C
  C41      1.0000 0.85700  0.13820  0.02860  Biso   1.000  C
  C42      1.0000 0.14300  0.86180  0.02860  Biso   1.000  C
  C43      1.0000 0.10700  0.11180  0.27860  Biso   1.000  C
  C44      1.0000 0.39300  0.38820  0.27860  Biso   1.000  C
  C45      1.0000 0.85700  0.63820  0.52860  Biso   1.000  C
  C46      1.0000 0.14300  0.36180  0.52860  Biso   1.000  C
  C47      1.0000 0.10700  0.61180  0.77860  Biso   1.000  C
  C48      1.0000 0.39300  0.88820  0.77860  Biso   1.000  C
  H33      1.0000 0.37050  0.13990  0.40260  Biso   1.000  H
  H34      1.0000 0.62950  0.86010  0.40260  Biso   1.000  H
  H35      1.0000 0.62050  0.11010  0.65260  Biso   1.000  H
  H36      1.0000 0.87950  0.38990  0.65260  Biso   1.000  H
  H37      1.0000 0.37050  0.63990  0.90260  Biso   1.000  H
  H38      1.0000 0.62950  0.36010  0.90260  Biso   1.000  H
  H39      1.0000 0.62050  0.61010  0.15260  Biso   1.000  H
  H40      1.0000 0.87950  0.88990  0.15260  Biso   1.000  H
  H41      1.0000 0.87050  0.13990  0.90260  Biso   1.000  H
  H42      1.0000 0.12950  0.86010  0.90260  Biso   1.000  H
  H43      1.0000 0.12050  0.11010  0.15260  Biso   1.000  H
  H44      1.0000 0.37950  0.38990  0.15260  Biso   1.000  H
  H45      1.0000 0.87050  0.63990  0.40260  Biso   1.000  H
  H46      1.0000 0.12950  0.36010  0.40260  Biso   1.000  H
  H47      1.0000 0.12050  0.61010  0.65260  Biso   1.000  H
  H48      1.0000 0.37950  0.88990  0.65260  Biso   1.000  H
  C49      1.0000 0.33960  0.09220  0.61170  Biso   1.000  C
  C50      1.0000 0.66040  0.90780  0.61170  Biso   1.000  C
  C51      1.0000 0.58960  0.15780  0.86170  Biso   1.000  C
  C52      1.0000 0.91040  0.34220  0.86170  Biso   1.000  C
  C53      1.0000 0.33960  0.59220  0.11170  Biso   1.000  C
  C54      1.0000 0.66040  0.40780  0.11170  Biso   1.000  C
  C55      1.0000 0.58960  0.65780  0.36170  Biso   1.000  C
  C56      1.0000 0.91040  0.84220  0.36170  Biso   1.000  C
  C57      1.0000 0.83960  0.09220  0.11170  Biso   1.000  C
  C58      1.0000 0.16040  0.90780  0.11170  Biso   1.000  C
  C59      1.0000 0.08960  0.15780  0.36170  Biso   1.000  C
  C60      1.0000 0.41040  0.34220  0.36170  Biso   1.000  C
  C61      1.0000 0.83960  0.59220  0.61170  Biso   1.000  C
  C62      1.0000 0.16040  0.40780  0.61170  Biso   1.000  C
  C63      1.0000 0.08960  0.65780  0.86170  Biso   1.000  C
  C64      1.0000 0.41040  0.84220  0.86170  Biso   1.000  C
  C65      1.0000 0.32010  0.09190  0.79910  Biso   1.000  C
  C66      1.0000 0.67990  0.90810  0.79910  Biso   1.000  C
  C67      1.0000 0.57010  0.15810  0.04910  Biso   1.000  C
  C68      1.0000 0.92990  0.34190  0.04910  Biso   1.000  C
  C69      1.0000 0.32010  0.59190  0.29910  Biso   1.000  C
  C70      1.0000 0.67990  0.40810  0.29910  Biso   1.000  C
  C71      1.0000 0.57010  0.65810  0.54910  Biso   1.000  C
  C72      1.0000 0.92990  0.84190  0.54910  Biso   1.000  C
  C73      1.0000 0.82010  0.09190  0.29910  Biso   1.000  C
  C74      1.0000 0.17990  0.90810  0.29910  Biso   1.000  C
  C75      1.0000 0.07010  0.15810  0.54910  Biso   1.000  C
  C76      1.0000 0.42990  0.34190  0.54910  Biso   1.000  C
  C77      1.0000 0.82010  0.59190  0.79910  Biso   1.000  C
  C78      1.0000 0.17990  0.40810  0.79910  Biso   1.000  C
  C79      1.0000 0.07010  0.65810  0.04910  Biso   1.000  C
  C80      1.0000 0.42990  0.84190  0.04910  Biso   1.000  C
  H49      1.0000 0.30700  0.06190  0.86040  Biso   1.000  H
  H50      1.0000 0.69300  0.93810  0.86040  Biso   1.000  H
  H51      1.0000 0.55700  0.18810  0.11040  Biso   1.000  H
  H52      1.0000 0.94300  0.31190  0.11040  Biso   1.000  H
  H53      1.0000 0.30700  0.56190  0.36040  Biso   1.000  H
  H54      1.0000 0.69300  0.43810  0.36040  Biso   1.000  H
  H55      1.0000 0.55700  0.68810  0.61040  Biso   1.000  H
  H56      1.0000 0.94300  0.81190  0.61040  Biso   1.000  H
  H57      1.0000 0.80700  0.06190  0.36040  Biso   1.000  H
  H58      1.0000 0.19300  0.93810  0.36040  Biso   1.000  H
  H59      1.0000 0.05700  0.18810  0.61040  Biso   1.000  H
  H60      1.0000 0.44300  0.31190  0.61040  Biso   1.000  H
  H61      1.0000 0.80700  0.56190  0.86040  Biso   1.000  H
  H62      1.0000 0.19300  0.43810  0.86040  Biso   1.000  H
  H63      1.0000 0.05700  0.68810  0.11040  Biso   1.000  H
  H64      1.0000 0.44300  0.81190  0.11040  Biso   1.000  H
  C81      1.0000 0.34550  0.04410  0.50030  Biso   1.000  C
  C82      1.0000 0.65450  0.95590  0.50030  Biso   1.000  C
  C83      1.0000 0.59550  0.20590  0.75030  Biso   1.000  C
  C84      1.0000 0.90450  0.29410  0.75030  Biso   1.000  C
  C85      1.0000 0.34550  0.54410  0.00030  Biso   1.000  C
  C86      1.0000 0.65450  0.45590  0.00030  Biso   1.000  C
  C87      1.0000 0.59550  0.70590  0.25030  Biso   1.000  C
  C88      1.0000 0.90450  0.79410  0.25030  Biso   1.000  C
  C89      1.0000 0.84550  0.04410  0.00030  Biso   1.000  C
  C90      1.0000 0.15450  0.95590  0.00030  Biso   1.000  C
  C91      1.0000 0.09550  0.20590  0.25030  Biso   1.000  C
  C92      1.0000 0.40450  0.29410  0.25030  Biso   1.000  C
  C93      1.0000 0.84550  0.54410  0.50030  Biso   1.000  C
  C94      1.0000 0.15450  0.45590  0.50030  Biso   1.000  C
  C95      1.0000 0.09550  0.70590  0.75030  Biso   1.000  C
  C96      1.0000 0.40450  0.79410  0.75030  Biso   1.000  C
  O1       1.0000 0.31070  0.00540  0.56610  Biso   1.000  O
  O2       1.0000 0.68930  0.99460  0.56610  Biso   1.000  O
  O3       1.0000 0.56070  0.24460  0.81610  Biso   1.000  O
  O4       1.0000 0.93930  0.25540  0.81610  Biso   1.000  O
  O5       1.0000 0.31070  0.50540  0.06610  Biso   1.000  O
  O6       1.0000 0.68930  0.49460  0.06610  Biso   1.000  O
  O7       1.0000 0.56070  0.74460  0.31610  Biso   1.000  O
  O8       1.0000 0.93930  0.75540  0.31610  Biso   1.000  O
  O9       1.0000 0.81070  0.00540  0.06610  Biso   1.000  O
  O10      1.0000 0.18930  0.99460  0.06610  Biso   1.000  O
  O11      1.0000 0.06070  0.24460  0.31610  Biso   1.000  O
  O12      1.0000 0.43930  0.25540  0.31610  Biso   1.000  O
  O13      1.0000 0.81070  0.50540  0.56610  Biso   1.000  O
  O14      1.0000 0.18930  0.49460  0.56610  Biso   1.000  O
  O15      1.0000 0.06070  0.74460  0.81610  Biso   1.000  O
  O16      1.0000 0.43930  0.75540  0.81610  Biso   1.000  O
  O17      1.0000 0.38160  0.04970  0.33780  Biso   1.000  O
  O18      1.0000 0.61840  0.95030  0.33780  Biso   1.000  O
  O19      1.0000 0.63160  0.20030  0.58780  Biso   1.000  O
  O20      1.0000 0.86840  0.29970  0.58780  Biso   1.000  O
  O21      1.0000 0.38160  0.54970  0.83780  Biso   1.000  O
  O22      1.0000 0.61840  0.45030  0.83780  Biso   1.000  O
  O23      1.0000 0.63160  0.70030  0.08780  Biso   1.000  O
  O24      1.0000 0.86840  0.79970  0.08780  Biso   1.000  O
  O25      1.0000 0.88160  0.04970  0.83780  Biso   1.000  O
  O26      1.0000 0.11840  0.95030  0.83780  Biso   1.000  O
  O27      1.0000 0.13160  0.20030  0.08780  Biso   1.000  O
  O28      1.0000 0.36840  0.29970  0.08780  Biso   1.000  O
  O29      1.0000 0.88160  0.54970  0.33780  Biso   1.000  O
  O30      1.0000 0.11840  0.45030  0.33780  Biso   1.000  O
  O31      1.0000 0.13160  0.70030  0.58780  Biso   1.000  O
  O32      1.0000 0.36840  0.79970  0.58780  Biso   1.000  O
