data_image0
_cell_length_a       13.169
_cell_length_b       11.393
_cell_length_c       9.0686
_cell_angle_alpha    90
_cell_angle_beta     128.63
_cell_angle_gamma    90

_symmetry_space_group_name_H-M    "P 1"
_symmetry_int_tables_number       1

loop_
  _symmetry_equiv_pos_as_xyz
  'x, y, z'

loop_
  _atom_site_label
  _atom_site_occupancy
  _atom_site_fract_x
  _atom_site_fract_y
  _atom_site_fract_z
  _atom_site_thermal_displace_type
  _atom_site_B_iso_or_equiv
  _atom_site_type_symbol
  Cu1      1.0000 0.21556  0.00000  0.32682  Biso   1.000  Cu
  Cu2      1.0000 0.71556  0.50000  0.32682  Biso   1.000  Cu
  Cu3      1.0000 0.78444  0.00000  0.67318  Biso   1.000  Cu
  Cu4      1.0000 0.28444  0.50000  0.67318  Biso   1.000  Cu
  Na1      1.0000 0.50000  0.00000  0.00000  Biso   1.000  Na
  Na2      1.0000 0.00000  0.50000  0.00000  Biso   1.000  Na
  N1       1.0000 0.32758  0.11649  0.28960  Biso   1.000  N
  N2       1.0000 0.82758  0.61649  0.28960  Biso   1.000  N
  N3       1.0000 0.32758  0.88351  0.28960  Biso   1.000  N
  N4       1.0000 0.82758  0.38351  0.28960  Biso   1.000  N
  N5       1.0000 0.67242  0.88351  0.71040  Biso   1.000  N
  N6       1.0000 0.17242  0.38351  0.71040  Biso   1.000  N
  N7       1.0000 0.67242  0.11649  0.71040  Biso   1.000  N
  N8       1.0000 0.17242  0.61649  0.71040  Biso   1.000  N
  C1       1.0000 0.38410  0.06550  0.22430  Biso   1.000  C
  C2       1.0000 0.88410  0.56550  0.22430  Biso   1.000  C
  C3       1.0000 0.38410  0.93450  0.22430  Biso   1.000  C
  C4       1.0000 0.88410  0.43450  0.22430  Biso   1.000  C
  C5       1.0000 0.61590  0.93450  0.77570  Biso   1.000  C
  C6       1.0000 0.11590  0.43450  0.77570  Biso   1.000  C
  C7       1.0000 0.61590  0.06550  0.77570  Biso   1.000  C
  C8       1.0000 0.11590  0.56550  0.77570  Biso   1.000  C
  N9       1.0000 0.44080  0.12118  0.16400  Biso   1.000  N
  N10      1.0000 0.94080  0.62118  0.16400  Biso   1.000  N
  N11      1.0000 0.44080  0.87882  0.16400  Biso   1.000  N
  N12      1.0000 0.94080  0.37882  0.16400  Biso   1.000  N
  N13      1.0000 0.55920  0.87882  0.83600  Biso   1.000  N
  N14      1.0000 0.05920  0.37882  0.83600  Biso   1.000  N
  N15      1.0000 0.55920  0.12118  0.83600  Biso   1.000  N
  N16      1.0000 0.05920  0.62118  0.83600  Biso   1.000  N
  C9       1.0000 0.44400  0.23830  0.17590  Biso   1.000  C
  C10      1.0000 0.94400  0.73830  0.17590  Biso   1.000  C
  C11      1.0000 0.44400  0.76170  0.17590  Biso   1.000  C
  C12      1.0000 0.94400  0.26170  0.17590  Biso   1.000  C
  C13      1.0000 0.55600  0.76170  0.82410  Biso   1.000  C
  C14      1.0000 0.05600  0.26170  0.82410  Biso   1.000  C
  C15      1.0000 0.55600  0.23830  0.82410  Biso   1.000  C
  C16      1.0000 0.05600  0.73830  0.82410  Biso   1.000  C
  H1       1.0000 0.48430  0.28040  0.13740  Biso   1.000  H
  H2       1.0000 0.98430  0.78040  0.13740  Biso   1.000  H
  H3       1.0000 0.48430  0.71960  0.13740  Biso   1.000  H
  H4       1.0000 0.98430  0.21960  0.13740  Biso   1.000  H
  H5       1.0000 0.51570  0.71960  0.86260  Biso   1.000  H
  H6       1.0000 0.01570  0.21960  0.86260  Biso   1.000  H
  H7       1.0000 0.51570  0.28040  0.86260  Biso   1.000  H
  H8       1.0000 0.01570  0.78040  0.86260  Biso   1.000  H
  C17      1.0000 0.33150  0.23350  0.29800  Biso   1.000  C
  C18      1.0000 0.83150  0.73350  0.29800  Biso   1.000  C
  C19      1.0000 0.33150  0.76650  0.29800  Biso   1.000  C
  C20      1.0000 0.83150  0.26650  0.29800  Biso   1.000  C
  C21      1.0000 0.66850  0.76650  0.70200  Biso   1.000  C
  C22      1.0000 0.16850  0.26650  0.70200  Biso   1.000  C
  C23      1.0000 0.66850  0.23350  0.70200  Biso   1.000  C
  C24      1.0000 0.16850  0.73350  0.70200  Biso   1.000  C
  H9       1.0000 0.29320  0.27210  0.34250  Biso   1.000  H
  H10      1.0000 0.79320  0.77210  0.34250  Biso   1.000  H
  H11      1.0000 0.29320  0.72790  0.34250  Biso   1.000  H
  H12      1.0000 0.79320  0.22790  0.34250  Biso   1.000  H
  H13      1.0000 0.70680  0.72790  0.65750  Biso   1.000  H
  H14      1.0000 0.20680  0.22790  0.65750  Biso   1.000  H
  H15      1.0000 0.70680  0.27210  0.65750  Biso   1.000  H
  H16      1.0000 0.20680  0.77210  0.65750  Biso   1.000  H
  C25      1.0000 0.39030  0.29850  0.24290  Biso   1.000  C
  C26      1.0000 0.89030  0.79850  0.24290  Biso   1.000  C
  C27      1.0000 0.39030  0.70150  0.24290  Biso   1.000  C
  C28      1.0000 0.89030  0.20150  0.24290  Biso   1.000  C
  C29      1.0000 0.60970  0.70150  0.75710  Biso   1.000  C
  C30      1.0000 0.10970  0.20150  0.75710  Biso   1.000  C
  C31      1.0000 0.60970  0.29850  0.75710  Biso   1.000  C
  C32      1.0000 0.10970  0.79850  0.75710  Biso   1.000  C
  H17      1.0000 0.39350  0.38000  0.25060  Biso   1.000  H
  H18      1.0000 0.89350  0.88000  0.25060  Biso   1.000  H
  H19      1.0000 0.39350  0.62000  0.25060  Biso   1.000  H
  H20      1.0000 0.89350  0.12000  0.25060  Biso   1.000  H
  H21      1.0000 0.60650  0.62000  0.74940  Biso   1.000  H
  H22      1.0000 0.10650  0.12000  0.74940  Biso   1.000  H
  H23      1.0000 0.60650  0.38000  0.74940  Biso   1.000  H
  H24      1.0000 0.10650  0.88000  0.74940  Biso   1.000  H
  C33      1.0000 0.24750  0.00000  0.56100  Biso   1.000  C
  C34      1.0000 0.74750  0.50000  0.56100  Biso   1.000  C
  C35      1.0000 0.75250  0.00000  0.43900  Biso   1.000  C
  C36      1.0000 0.25250  0.50000  0.43900  Biso   1.000  C
  N17      1.0000 0.26750  0.00000  0.70370  Biso   1.000  N
  N18      1.0000 0.76750  0.50000  0.70370  Biso   1.000  N
  N19      1.0000 0.73250  0.00000  0.29630  Biso   1.000  N
  N20      1.0000 0.23250  0.50000  0.29630  Biso   1.000  N
  C37      1.0000 0.04910  0.00000  0.07470  Biso   1.000  C
  C38      1.0000 0.54910  0.50000  0.07470  Biso   1.000  C
  C39      1.0000 0.95090  0.00000  0.92530  Biso   1.000  C
  C40      1.0000 0.45090  0.50000  0.92530  Biso   1.000  C
