data_image0
_cell_length_a       8.793
_cell_length_b       17.24
_cell_length_c       8.115
_cell_angle_alpha    90
_cell_angle_beta     107.42
_cell_angle_gamma    90

_symmetry_space_group_name_H-M    "P 1"
_symmetry_int_tables_number       1

loop_
  _symmetry_equiv_pos_as_xyz
  'x, y, z'

loop_
  _atom_site_label
  _atom_site_occupancy
  _atom_site_fract_x
  _atom_site_fract_y
  _atom_site_fract_z
  _atom_site_thermal_displace_type
  _atom_site_B_iso_or_equiv
  _atom_site_type_symbol
  Cu1      1.0000 0.22380  0.16912  0.85942  Biso   1.000  Cu
  Cu2      1.0000 0.22380  0.33088  0.35942  Biso   1.000  Cu
  Cu3      1.0000 0.77620  0.83088  0.14058  Biso   1.000  Cu
  Cu4      1.0000 0.77620  0.66912  0.64058  Biso   1.000  Cu
  K1       1.0000 0.71613  0.19472  0.84037  Biso   1.000  K
  K2       1.0000 0.71613  0.30528  0.34037  Biso   1.000  K
  K3       1.0000 0.28387  0.80528  0.15963  Biso   1.000  K
  K4       1.0000 0.28387  0.69472  0.65963  Biso   1.000  K
  C1       1.0000 0.02420  0.18610  0.68230  Biso   1.000  C
  C2       1.0000 0.02420  0.31390  0.18230  Biso   1.000  C
  C3       1.0000 0.97580  0.81390  0.31770  Biso   1.000  C
  C4       1.0000 0.97580  0.68610  0.81770  Biso   1.000  C
  C5       1.0000 0.38990  0.24430  0.94960  Biso   1.000  C
  C6       1.0000 0.38990  0.25570  0.44960  Biso   1.000  C
  C7       1.0000 0.61010  0.75570  0.05040  Biso   1.000  C
  C8       1.0000 0.61010  0.74430  0.55040  Biso   1.000  C
  N1       1.0000 0.48710  0.28930  0.00610  Biso   1.000  N
  N2       1.0000 0.48710  0.21070  0.50610  Biso   1.000  N
  N3       1.0000 0.51290  0.71070  0.99390  Biso   1.000  N
  N4       1.0000 0.51290  0.78930  0.49390  Biso   1.000  N
  N5       1.0000 0.30780  0.05489  0.81720  Biso   1.000  N
  N6       1.0000 0.30780  0.44511  0.31720  Biso   1.000  N
  N7       1.0000 0.69220  0.94511  0.18280  Biso   1.000  N
  N8       1.0000 0.69220  0.55489  0.68280  Biso   1.000  N
  C9       1.0000 0.28710  0.99820  0.92080  Biso   1.000  C
  C10      1.0000 0.28710  0.50180  0.42080  Biso   1.000  C
  C11      1.0000 0.71290  0.00180  0.07920  Biso   1.000  C
  C12      1.0000 0.71290  0.49820  0.57920  Biso   1.000  C
  N9       1.0000 0.32590  0.92364  0.91370  Biso   1.000  N
  N10      1.0000 0.32590  0.57636  0.41370  Biso   1.000  N
  N11      1.0000 0.67410  0.07636  0.08630  Biso   1.000  N
  N12      1.0000 0.67410  0.42364  0.58630  Biso   1.000  N
  C13      1.0000 0.39020  0.90500  0.78970  Biso   1.000  C
  C14      1.0000 0.39020  0.59500  0.28970  Biso   1.000  C
  C15      1.0000 0.60980  0.09500  0.21030  Biso   1.000  C
  C16      1.0000 0.60980  0.40500  0.71030  Biso   1.000  C
  H1       1.0000 0.42030  0.85380  0.78100  Biso   1.000  H
  H2       1.0000 0.42030  0.64620  0.28100  Biso   1.000  H
  H3       1.0000 0.57970  0.14620  0.21900  Biso   1.000  H
  H4       1.0000 0.57970  0.35380  0.71900  Biso   1.000  H
  C17      1.0000 0.41400  0.95860  0.67390  Biso   1.000  C
  C18      1.0000 0.41400  0.54140  0.17390  Biso   1.000  C
  C19      1.0000 0.58600  0.04140  0.32610  Biso   1.000  C
  C20      1.0000 0.58600  0.45860  0.82610  Biso   1.000  C
  H5       1.0000 0.45600  0.94430  0.58590  Biso   1.000  H
  H6       1.0000 0.45600  0.55570  0.08590  Biso   1.000  H
  H7       1.0000 0.54400  0.05570  0.41410  Biso   1.000  H
  H8       1.0000 0.54400  0.44430  0.91410  Biso   1.000  H
  C21      1.0000 0.37250  0.03440  0.69420  Biso   1.000  C
  C22      1.0000 0.37250  0.46560  0.19420  Biso   1.000  C
  C23      1.0000 0.62750  0.96560  0.30580  Biso   1.000  C
  C24      1.0000 0.62750  0.53440  0.80580  Biso   1.000  C
  H9       1.0000 0.39010  0.07230  0.62030  Biso   1.000  H
  H10      1.0000 0.39010  0.42770  0.12030  Biso   1.000  H
  H11      1.0000 0.60990  0.92770  0.37970  Biso   1.000  H
  H12      1.0000 0.60990  0.57230  0.87970  Biso   1.000  H
  N13      1.0000 0.18520  0.09848  0.06260  Biso   1.000  N
  N14      1.0000 0.18520  0.40152  0.56260  Biso   1.000  N
  N15      1.0000 0.81480  0.90152  0.93740  Biso   1.000  N
  N16      1.0000 0.81480  0.59848  0.43740  Biso   1.000  N
  C25      1.0000 0.21560  0.02250  0.05770  Biso   1.000  C
  C26      1.0000 0.21560  0.47750  0.55770  Biso   1.000  C
  C27      1.0000 0.78440  0.97750  0.94230  Biso   1.000  C
  C28      1.0000 0.78440  0.52250  0.44230  Biso   1.000  C
  N17      1.0000 0.18910  0.96833  0.16330  Biso   1.000  N
  N18      1.0000 0.18910  0.53167  0.66330  Biso   1.000  N
  N19      1.0000 0.81090  0.03167  0.83670  Biso   1.000  N
  N20      1.0000 0.81090  0.46833  0.33670  Biso   1.000  N
  C29      1.0000 0.12580  0.99360  0.28510  Biso   1.000  C
  C30      1.0000 0.12580  0.50640  0.78510  Biso   1.000  C
  C31      1.0000 0.87420  0.00640  0.71490  Biso   1.000  C
  C32      1.0000 0.87420  0.49360  0.21490  Biso   1.000  C
  H13      1.0000 0.10320  0.95790  0.36030  Biso   1.000  H
  H14      1.0000 0.10320  0.54210  0.86030  Biso   1.000  H
  H15      1.0000 0.89680  0.04210  0.63970  Biso   1.000  H
  H16      1.0000 0.89680  0.45790  0.13970  Biso   1.000  H
  C33      1.0000 0.09330  0.07120  0.30190  Biso   1.000  C
  C34      1.0000 0.09330  0.42880  0.80190  Biso   1.000  C
  C35      1.0000 0.90670  0.92880  0.69810  Biso   1.000  C
  C36      1.0000 0.90670  0.57120  0.19810  Biso   1.000  C
  H17      1.0000 0.05020  0.08810  0.38720  Biso   1.000  H
  H18      1.0000 0.05020  0.41190  0.88720  Biso   1.000  H
  H19      1.0000 0.94980  0.91190  0.61280  Biso   1.000  H
  H20      1.0000 0.94980  0.58810  0.11280  Biso   1.000  H
  C37      1.0000 0.12670  0.12200  0.18850  Biso   1.000  C
  C38      1.0000 0.12670  0.37800  0.68850  Biso   1.000  C
  C39      1.0000 0.87330  0.87800  0.81150  Biso   1.000  C
  C40      1.0000 0.87330  0.62200  0.31150  Biso   1.000  C
  H21      1.0000 0.10820  0.17460  0.19910  Biso   1.000  H
  H22      1.0000 0.10820  0.32540  0.69910  Biso   1.000  H
  H23      1.0000 0.89180  0.82540  0.80090  Biso   1.000  H
  H24      1.0000 0.89180  0.67460  0.30090  Biso   1.000  H
  N21      1.0000 0.90580  0.19890  0.57950  Biso   1.000  N
  N22      1.0000 0.90580  0.30110  0.07950  Biso   1.000  N
  N23      1.0000 0.09420  0.80110  0.42050  Biso   1.000  N
  N24      1.0000 0.09420  0.69890  0.92050  Biso   1.000  N
