data_image0
_cell_length_a       7.3783
_cell_length_b       11.053
_cell_length_c       12.253
_cell_angle_alpha    112.81
_cell_angle_beta     95.05
_cell_angle_gamma    91.4

_symmetry_space_group_name_H-M    "P 1"
_symmetry_int_tables_number       1

loop_
  _symmetry_equiv_pos_as_xyz
  'x, y, z'

loop_
  _atom_site_label
  _atom_site_occupancy
  _atom_site_fract_x
  _atom_site_fract_y
  _atom_site_fract_z
  _atom_site_thermal_displace_type
  _atom_site_B_iso_or_equiv
  _atom_site_type_symbol
  C1       1.0000 0.66610  0.39040  0.90890  Biso   1.000  C
  C2       1.0000 0.33390  0.60960  0.09110  Biso   1.000  C
  H1       1.0000 0.60850  0.32090  0.84300  Biso   1.000  H
  H2       1.0000 0.39150  0.67910  0.15700  Biso   1.000  H
  C3       1.0000 0.84140  0.46600  0.09890  Biso   1.000  C
  C4       1.0000 0.15860  0.53400  0.90110  Biso   1.000  C
  H3       1.0000 0.90050  0.45050  0.16210  Biso   1.000  H
  H4       1.0000 0.09950  0.54950  0.83790  Biso   1.000  H
  C5       1.0000 0.66260  0.40690  0.40870  Biso   1.000  C
  C6       1.0000 0.33740  0.59310  0.59130  Biso   1.000  C
  H5       1.0000 0.61810  0.31990  0.36790  Biso   1.000  H
  H6       1.0000 0.38190  0.68010  0.63210  Biso   1.000  H
  C7       1.0000 0.70670  0.61820  0.41700  Biso   1.000  C
  C8       1.0000 0.29330  0.38180  0.58300  Biso   1.000  C
  H7       1.0000 0.69380  0.67810  0.38110  Biso   1.000  H
  H8       1.0000 0.30620  0.32190  0.61890  Biso   1.000  H
  C9       1.0000 0.79820  0.66090  0.52980  Biso   1.000  C
  C10      1.0000 0.20180  0.33910  0.47020  Biso   1.000  C
  H9       1.0000 0.84110  0.74840  0.56960  Biso   1.000  H
  H10      1.0000 0.15890  0.25160  0.43040  Biso   1.000  H
  C11      1.0000 0.82460  0.57440  0.58140  Biso   1.000  C
  C12      1.0000 0.17540  0.42560  0.41860  Biso   1.000  C
  H11      1.0000 0.88850  0.60090  0.65660  Biso   1.000  H
  H12      1.0000 0.11150  0.39910  0.34340  Biso   1.000  H
  C13      1.0000 0.75440  0.44310  0.52050  Biso   1.000  C
  C14      1.0000 0.24560  0.55690  0.47950  Biso   1.000  C
  C15      1.0000 0.25670  0.38640  0.99110  Biso   1.000  C
  C16      1.0000 0.74330  0.61360  0.00890  Biso   1.000  C
  H13      1.0000 0.26380  0.30130  0.98820  Biso   1.000  H
  H14      1.0000 0.73620  0.69870  0.01180  Biso   1.000  H
  C17      1.0000 0.83780  0.59640  0.10230  Biso   1.000  C
  C18      1.0000 0.16220  0.40360  0.89770  Biso   1.000  C
  H15      1.0000 0.89770  0.66720  0.16590  Biso   1.000  H
  H16      1.0000 0.10230  0.33280  0.83410  Biso   1.000  H
  C19      1.0000 0.78100  0.34770  0.57840  Biso   1.000  C
  C20      1.0000 0.21900  0.65230  0.42160  Biso   1.000  C
  O1       1.0000 0.09220  0.85270  0.72910  Biso   1.000  O
  O2       1.0000 0.90780  0.14730  0.27090  Biso   1.000  O
  O3       1.0000 0.07670  0.10750  0.85720  Biso   1.000  O
  O4       1.0000 0.92330  0.89250  0.14280  Biso   1.000  O
  O5       1.0000 0.41180  0.09190  0.27020  Biso   1.000  O
  O6       1.0000 0.58820  0.90810  0.72980  Biso   1.000  O
  O7       1.0000 0.44020  0.23530  0.14010  Biso   1.000  O
  O8       1.0000 0.55980  0.76470  0.85990  Biso   1.000  O
  O9       1.0000 0.87510  0.37350  0.67200  Biso   1.000  O
  O10      1.0000 0.12490  0.62650  0.32800  Biso   1.000  O
  O11      1.0000 0.68860  0.23470  0.51990  Biso   1.000  O
  O12      1.0000 0.31140  0.76530  0.48010  Biso   1.000  O
  O13      1.0000 0.77500  0.05880  0.61570  Biso   1.000  O
  O14      1.0000 0.22500  0.94120  0.38430  Biso   1.000  O
  O15      1.0000 0.73500  0.89660  0.35700  Biso   1.000  O
  O16      1.0000 0.26500  0.10340  0.64300  Biso   1.000  O
  C21      1.0000 0.75670  0.22670  0.99650  Biso   1.000  C
  C22      1.0000 0.24330  0.77330  0.00350  Biso   1.000  C
  C23      1.0000 0.75750  0.36450  0.00220  Biso   1.000  C
  C24      1.0000 0.24250  0.63550  0.99780  Biso   1.000  C
  N1       1.0000 0.63440  0.49330  0.35570  Biso   1.000  N
  N2       1.0000 0.36560  0.50670  0.64430  Biso   1.000  N
  N3       1.0000 0.33990  0.48620  0.08700  Biso   1.000  N
  N4       1.0000 0.66010  0.51380  0.91300  Biso   1.000  N
  O17      1.0000 0.36810  0.99120  0.92350  Biso   1.000  O
  O18      1.0000 0.63190  0.00880  0.07650  Biso   1.000  O
  O19      1.0000 0.13550  0.06030  0.07720  Biso   1.000  O
  O20      1.0000 0.86450  0.93970  0.92280  Biso   1.000  O
  O21      1.0000 0.85450  0.21120  0.08020  Biso   1.000  O
  O22      1.0000 0.14550  0.78880  0.91980  Biso   1.000  O
  O23      1.0000 0.65860  0.14010  0.91360  Biso   1.000  O
  O24      1.0000 0.34140  0.85990  0.08640  Biso   1.000  O
  Cu1      1.0000 0.48518  0.45306  0.20970  Biso   1.000  Cu
  Cu2      1.0000 0.51482  0.54694  0.79030  Biso   1.000  Cu
  Mo1      1.0000 0.39692  0.07499  0.12615  Biso   1.000  Mo
  Mo2      1.0000 0.60308  0.92501  0.87385  Biso   1.000  Mo
  Mo3      1.0000 0.10375  0.96110  0.87199  Biso   1.000  Mo
  Mo4      1.0000 0.89625  0.03890  0.12801  Biso   1.000  Mo
