data_image0
_cell_length_a       3.6325
_cell_length_b       10.2841
_cell_length_c       10.4812
_cell_angle_alpha    90
_cell_angle_beta     97.379
_cell_angle_gamma    90

_symmetry_space_group_name_H-M    "P 1"
_symmetry_int_tables_number       1

loop_
  _symmetry_equiv_pos_as_xyz
  'x, y, z'

loop_
  _atom_site_label
  _atom_site_occupancy
  _atom_site_fract_x
  _atom_site_fract_y
  _atom_site_fract_z
  _atom_site_thermal_displace_type
  _atom_site_B_iso_or_equiv
  _atom_site_type_symbol
  Cu1      1.0000 0.13990  0.38592  0.39304  Biso   1.000  Cu
  Cu2      1.0000 0.86010  0.88592  0.10696  Biso   1.000  Cu
  Cu3      1.0000 0.86010  0.61408  0.60696  Biso   1.000  Cu
  Cu4      1.0000 0.13990  0.11408  0.89304  Biso   1.000  Cu
  N1       1.0000 0.16400  0.35250  0.57810  Biso   1.000  N
  N2       1.0000 0.83600  0.85250  0.92190  Biso   1.000  N
  N3       1.0000 0.83600  0.64750  0.42190  Biso   1.000  N
  N4       1.0000 0.16400  0.14750  0.07810  Biso   1.000  N
  N5       1.0000 0.02800  0.43870  0.66320  Biso   1.000  N
  N6       1.0000 0.97200  0.93870  0.83680  Biso   1.000  N
  N7       1.0000 0.97200  0.56130  0.33680  Biso   1.000  N
  N8       1.0000 0.02800  0.06130  0.16320  Biso   1.000  N
  N9       1.0000 0.18100  0.25440  0.76940  Biso   1.000  N
  N10      1.0000 0.81900  0.75440  0.73060  Biso   1.000  N
  N11      1.0000 0.81900  0.74560  0.23060  Biso   1.000  N
  N12      1.0000 0.18100  0.24560  0.26940  Biso   1.000  N
  N13      1.0000 0.39200  0.13430  0.59490  Biso   1.000  N
  N14      1.0000 0.60800  0.63430  0.90510  Biso   1.000  N
  N15      1.0000 0.60800  0.86570  0.40510  Biso   1.000  N
  N16      1.0000 0.39200  0.36570  0.09490  Biso   1.000  N
  H1       1.0000 0.55000  0.15200  0.54000  Biso   1.000  H
  H2       1.0000 0.45000  0.65200  0.96000  Biso   1.000  H
  H3       1.0000 0.45000  0.84800  0.46000  Biso   1.000  H
  H4       1.0000 0.55000  0.34800  0.04000  Biso   1.000  H
  H5       1.0000 0.54000  0.09900  0.66000  Biso   1.000  H
  H6       1.0000 0.46000  0.59900  0.84000  Biso   1.000  H
  H7       1.0000 0.46000  0.90100  0.34000  Biso   1.000  H
  H8       1.0000 0.54000  0.40100  0.16000  Biso   1.000  H
  C1       1.0000 0.25700  0.24670  0.64560  Biso   1.000  C
  C2       1.0000 0.74300  0.74670  0.85440  Biso   1.000  C
  C3       1.0000 0.74300  0.75330  0.35440  Biso   1.000  C
  C4       1.0000 0.25700  0.25330  0.14560  Biso   1.000  C
  C5       1.0000 0.04800  0.37560  0.77380  Biso   1.000  C
  C6       1.0000 0.95200  0.87560  0.72620  Biso   1.000  C
  C7       1.0000 0.95200  0.62440  0.22620  Biso   1.000  C
  C8       1.0000 0.04800  0.12440  0.27380  Biso   1.000  C
  H9       1.0000 0.91000  0.41100  0.84000  Biso   1.000  H
  H10      1.0000 0.09000  0.91100  0.66000  Biso   1.000  H
  H11      1.0000 0.09000  0.58900  0.16000  Biso   1.000  H
  H12      1.0000 0.91000  0.08900  0.34000  Biso   1.000  H
