data_image0
_cell_length_a       8.4608
_cell_length_b       10.3198
_cell_length_c       10.5728
_cell_angle_alpha    90
_cell_angle_beta     118.944
_cell_angle_gamma    90

_symmetry_space_group_name_H-M    "P 1"
_symmetry_int_tables_number       1

loop_
  _symmetry_equiv_pos_as_xyz
  'x, y, z'

loop_
  _atom_site_label
  _atom_site_occupancy
  _atom_site_fract_x
  _atom_site_fract_y
  _atom_site_fract_z
  _atom_site_thermal_displace_type
  _atom_site_B_iso_or_equiv
  _atom_site_type_symbol
  Cu1      1.0000 0.30203  0.61691  0.98759  Biso   1.000  Cu
  Cu2      1.0000 0.69797  0.11691  0.51241  Biso   1.000  Cu
  Cu3      1.0000 0.69797  0.38309  0.01241  Biso   1.000  Cu
  Cu4      1.0000 0.30203  0.88309  0.48759  Biso   1.000  Cu
  Cu5      1.0000 0.16193  0.38474  0.16136  Biso   1.000  Cu
  Cu6      1.0000 0.83807  0.88474  0.33864  Biso   1.000  Cu
  Cu7      1.0000 0.83807  0.61526  0.83864  Biso   1.000  Cu
  Cu8      1.0000 0.16193  0.11526  0.66136  Biso   1.000  Cu
  N1       1.0000 0.32020  0.64710  0.17910  Biso   1.000  N
  N2       1.0000 0.67980  0.14710  0.32090  Biso   1.000  N
  N3       1.0000 0.67980  0.35290  0.82090  Biso   1.000  N
  N4       1.0000 0.32020  0.85290  0.67910  Biso   1.000  N
  N5       1.0000 0.25810  0.55790  0.24620  Biso   1.000  N
  N6       1.0000 0.74190  0.05790  0.25380  Biso   1.000  N
  N7       1.0000 0.74190  0.44210  0.75380  Biso   1.000  N
  N8       1.0000 0.25810  0.94210  0.74620  Biso   1.000  N
  N9       1.0000 0.33310  0.74160  0.37540  Biso   1.000  N
  N10      1.0000 0.66690  0.24160  0.12460  Biso   1.000  N
  N11      1.0000 0.66690  0.25840  0.62460  Biso   1.000  N
  N12      1.0000 0.33310  0.75840  0.87540  Biso   1.000  N
  N13      1.0000 0.41690  0.86690  0.22530  Biso   1.000  N
  N14      1.0000 0.58310  0.36690  0.27470  Biso   1.000  N
  N15      1.0000 0.58310  0.13310  0.77470  Biso   1.000  N
  N16      1.0000 0.41690  0.63310  0.72530  Biso   1.000  N
  N17      1.0000 0.16040  0.35190  0.97770  Biso   1.000  N
  N18      1.0000 0.83960  0.85190  0.52230  Biso   1.000  N
  N19      1.0000 0.83960  0.64810  0.02230  Biso   1.000  N
  N20      1.0000 0.16040  0.14810  0.47770  Biso   1.000  N
  N21      1.0000 0.23230  0.43680  0.91470  Biso   1.000  N
  N22      1.0000 0.76770  0.93680  0.58530  Biso   1.000  N
  N23      1.0000 0.76770  0.56320  0.08530  Biso   1.000  N
  N24      1.0000 0.23230  0.06320  0.41470  Biso   1.000  N
  N25      1.0000 0.15600  0.25270  0.78750  Biso   1.000  N
  N26      1.0000 0.84400  0.75270  0.71250  Biso   1.000  N
  N27      1.0000 0.84400  0.74730  0.21250  Biso   1.000  N
  N28      1.0000 0.15600  0.24730  0.28750  Biso   1.000  N
  N29      1.0000 0.04900  0.13470  0.92700  Biso   1.000  N
  N30      1.0000 0.95100  0.63470  0.57300  Biso   1.000  N
  N31      1.0000 0.95100  0.86530  0.07300  Biso   1.000  N
  N32      1.0000 0.04900  0.36530  0.42700  Biso   1.000  N
  C1       1.0000 0.36210  0.75320  0.26130  Biso   1.000  C
  C2       1.0000 0.63790  0.25320  0.23870  Biso   1.000  C
  C3       1.0000 0.63790  0.24680  0.73870  Biso   1.000  C
  C4       1.0000 0.36210  0.74680  0.76130  Biso   1.000  C
  C5       1.0000 0.26860  0.61820  0.36020  Biso   1.000  C
  C6       1.0000 0.73140  0.11820  0.13980  Biso   1.000  C
  C7       1.0000 0.73140  0.38180  0.63980  Biso   1.000  C
  C8       1.0000 0.26860  0.88180  0.86020  Biso   1.000  C
  C9       1.0000 0.11710  0.24520  0.89720  Biso   1.000  C
  C10      1.0000 0.88290  0.74520  0.60280  Biso   1.000  C
  C11      1.0000 0.88290  0.75480  0.10280  Biso   1.000  C
  C12      1.0000 0.11710  0.25480  0.39720  Biso   1.000  C
  C13      1.0000 0.22590  0.37410  0.80350  Biso   1.000  C
  C14      1.0000 0.77410  0.87410  0.69650  Biso   1.000  C
  C15      1.0000 0.77410  0.62590  0.19650  Biso   1.000  C
  C16      1.0000 0.22590  0.12590  0.30350  Biso   1.000  C
  H1       1.0000 0.26500  0.41300  0.73500  Biso   1.000  H
  H2       1.0000 0.73500  0.91300  0.76500  Biso   1.000  H
  H3       1.0000 0.73500  0.58700  0.26500  Biso   1.000  H
  H4       1.0000 0.26500  0.08700  0.23500  Biso   1.000  H
  H5       1.0000 0.46900  0.85000  0.17600  Biso   1.000  H
  H6       1.0000 0.53100  0.35000  0.32400  Biso   1.000  H
  H7       1.0000 0.53100  0.15000  0.82400  Biso   1.000  H
  H8       1.0000 0.46900  0.65000  0.67600  Biso   1.000  H
  H9       1.0000 0.47500  0.90800  0.29000  Biso   1.000  H
  H10      1.0000 0.52500  0.40800  0.21000  Biso   1.000  H
  H11      1.0000 0.52500  0.09200  0.71000  Biso   1.000  H
  H12      1.0000 0.47500  0.59200  0.79000  Biso   1.000  H
  H13      1.0000 0.22800  0.57700  0.43000  Biso   1.000  H
  H14      1.0000 0.77200  0.07700  0.07000  Biso   1.000  H
  H15      1.0000 0.77200  0.42300  0.57000  Biso   1.000  H
  H16      1.0000 0.22800  0.92300  0.93000  Biso   1.000  H
  H17      1.0000 0.97700  0.09600  0.84100  Biso   1.000  H
  H18      1.0000 0.02300  0.59600  0.65900  Biso   1.000  H
  H19      1.0000 0.02300  0.90400  0.15900  Biso   1.000  H
  H20      1.0000 0.97700  0.40400  0.34100  Biso   1.000  H
  H21      1.0000 0.98800  0.15100  0.96600  Biso   1.000  H
  H22      1.0000 0.01200  0.65100  0.53400  Biso   1.000  H
  H23      1.0000 0.01200  0.84900  0.03400  Biso   1.000  H
  H24      1.0000 0.98800  0.34900  0.46600  Biso   1.000  H
