data_image0
_cell_length_a       10.3115
_cell_length_b       10.4977
_cell_length_c       14.7439
_cell_angle_alpha    90
_cell_angle_beta     90
_cell_angle_gamma    90

_symmetry_space_group_name_H-M    "P 1"
_symmetry_int_tables_number       1

loop_
  _symmetry_equiv_pos_as_xyz
  'x, y, z'

loop_
  _atom_site_label
  _atom_site_occupancy
  _atom_site_fract_x
  _atom_site_fract_y
  _atom_site_fract_z
  _atom_site_thermal_displace_type
  _atom_site_B_iso_or_equiv
  _atom_site_type_symbol
  Cu1      1.0000 0.38493  0.36740  0.84947  Biso   1.000  Cu
  Cu2      1.0000 0.11507  0.63260  0.34947  Biso   1.000  Cu
  Cu3      1.0000 0.61507  0.86740  0.65053  Biso   1.000  Cu
  Cu4      1.0000 0.88493  0.13260  0.15053  Biso   1.000  Cu
  Cu5      1.0000 0.61507  0.63260  0.15053  Biso   1.000  Cu
  Cu6      1.0000 0.88493  0.36740  0.65053  Biso   1.000  Cu
  Cu7      1.0000 0.38493  0.13260  0.34947  Biso   1.000  Cu
  Cu8      1.0000 0.11507  0.86740  0.84947  Biso   1.000  Cu
  Cu9      1.0000 0.61412  0.59701  0.91845  Biso   1.000  Cu
  Cu10     1.0000 0.88588  0.40299  0.41845  Biso   1.000  Cu
  Cu11     1.0000 0.38588  0.09701  0.58155  Biso   1.000  Cu
  Cu12     1.0000 0.11412  0.90299  0.08155  Biso   1.000  Cu
  Cu13     1.0000 0.38588  0.40299  0.08155  Biso   1.000  Cu
  Cu14     1.0000 0.11412  0.59701  0.58155  Biso   1.000  Cu
  Cu15     1.0000 0.61412  0.90299  0.41845  Biso   1.000  Cu
  Cu16     1.0000 0.88588  0.09701  0.91845  Biso   1.000  Cu
  N1       1.0000 0.35230  0.55110  0.84040  Biso   1.000  N
  N2       1.0000 0.14770  0.44890  0.34040  Biso   1.000  N
  N3       1.0000 0.64770  0.05110  0.65960  Biso   1.000  N
  N4       1.0000 0.85230  0.94890  0.15960  Biso   1.000  N
  N5       1.0000 0.64770  0.44890  0.15960  Biso   1.000  N
  N6       1.0000 0.85230  0.55110  0.65960  Biso   1.000  N
  N7       1.0000 0.35230  0.94890  0.34040  Biso   1.000  N
  N8       1.0000 0.14770  0.05110  0.84040  Biso   1.000  N
  N9       1.0000 0.43990  0.64370  0.87110  Biso   1.000  N
  N10      1.0000 0.06010  0.35630  0.37110  Biso   1.000  N
  N11      1.0000 0.56010  0.14370  0.62890  Biso   1.000  N
  N12      1.0000 0.93990  0.85630  0.12890  Biso   1.000  N
  N13      1.0000 0.56010  0.35630  0.12890  Biso   1.000  N
  N14      1.0000 0.93990  0.64370  0.62890  Biso   1.000  N
  N15      1.0000 0.43990  0.85630  0.37110  Biso   1.000  N
  N16      1.0000 0.06010  0.14370  0.87110  Biso   1.000  N
  N17      1.0000 0.25410  0.74160  0.83610  Biso   1.000  N
  N18      1.0000 0.24590  0.25840  0.33610  Biso   1.000  N
  N19      1.0000 0.74590  0.24160  0.66390  Biso   1.000  N
  N20      1.0000 0.75410  0.75840  0.16390  Biso   1.000  N
  N21      1.0000 0.74590  0.25840  0.16390  Biso   1.000  N
  N22      1.0000 0.75410  0.74160  0.66390  Biso   1.000  N
  N23      1.0000 0.25410  0.75840  0.33610  Biso   1.000  N
  N24      1.0000 0.24590  0.24160  0.83610  Biso   1.000  N
  N25      1.0000 0.13320  0.55850  0.79360  Biso   1.000  N
  N26      1.0000 0.36680  0.44150  0.29360  Biso   1.000  N
  N27      1.0000 0.86680  0.05850  0.70640  Biso   1.000  N
  N28      1.0000 0.63320  0.94150  0.20640  Biso   1.000  N
  N29      1.0000 0.86680  0.44150  0.20640  Biso   1.000  N
  N30      1.0000 0.63320  0.55850  0.70640  Biso   1.000  N
  N31      1.0000 0.13320  0.94150  0.29360  Biso   1.000  N
  N32      1.0000 0.36680  0.05850  0.79360  Biso   1.000  N
  H1       1.0000 0.14600  0.48800  0.77000  Biso   1.000  H
  H2       1.0000 0.35400  0.51200  0.27000  Biso   1.000  H
  H3       1.0000 0.85400  0.98800  0.73000  Biso   1.000  H
  H4       1.0000 0.64600  0.01200  0.23000  Biso   1.000  H
  H5       1.0000 0.85400  0.51200  0.23000  Biso   1.000  H
  H6       1.0000 0.64600  0.48800  0.73000  Biso   1.000  H
  H7       1.0000 0.14600  0.01200  0.27000  Biso   1.000  H
  H8       1.0000 0.35400  0.98800  0.77000  Biso   1.000  H
  H9       1.0000 0.09000  0.60000  0.76800  Biso   1.000  H
  H10      1.0000 0.41000  0.40000  0.26800  Biso   1.000  H
  H11      1.0000 0.91000  0.10000  0.73200  Biso   1.000  H
  H12      1.0000 0.59000  0.90000  0.23200  Biso   1.000  H
  H13      1.0000 0.91000  0.40000  0.23200  Biso   1.000  H
  H14      1.0000 0.59000  0.60000  0.73200  Biso   1.000  H
  H15      1.0000 0.09000  0.90000  0.26800  Biso   1.000  H
  H16      1.0000 0.41000  0.10000  0.76800  Biso   1.000  H
  N33      1.0000 0.64980  0.41410  0.91800  Biso   1.000  N
  N34      1.0000 0.85020  0.58590  0.41800  Biso   1.000  N
  N35      1.0000 0.35020  0.91410  0.58200  Biso   1.000  N
  N36      1.0000 0.14980  0.08590  0.08200  Biso   1.000  N
  N37      1.0000 0.35020  0.58590  0.08200  Biso   1.000  N
  N38      1.0000 0.14980  0.41410  0.58200  Biso   1.000  N
  N39      1.0000 0.64980  0.08590  0.41800  Biso   1.000  N
  N40      1.0000 0.85020  0.91410  0.91800  Biso   1.000  N
  N41      1.0000 0.56440  0.32240  0.88310  Biso   1.000  N
  N42      1.0000 0.93560  0.67760  0.38310  Biso   1.000  N
  N43      1.0000 0.43560  0.82240  0.61690  Biso   1.000  N
  N44      1.0000 0.06440  0.17760  0.11690  Biso   1.000  N
  N45      1.0000 0.43560  0.67760  0.11690  Biso   1.000  N
  N46      1.0000 0.06440  0.32240  0.61690  Biso   1.000  N
  N47      1.0000 0.56440  0.17760  0.38310  Biso   1.000  N
  N48      1.0000 0.93560  0.82240  0.88310  Biso   1.000  N
  N49      1.0000 0.74900  0.22490  0.92180  Biso   1.000  N
  N50      1.0000 0.75100  0.77510  0.42180  Biso   1.000  N
  N51      1.0000 0.25100  0.72490  0.57820  Biso   1.000  N
  N52      1.0000 0.24900  0.27510  0.07820  Biso   1.000  N
  N53      1.0000 0.25100  0.77510  0.07820  Biso   1.000  N
  N54      1.0000 0.24900  0.22490  0.57820  Biso   1.000  N
  N55      1.0000 0.74900  0.27510  0.42180  Biso   1.000  N
  N56      1.0000 0.75100  0.72490  0.92180  Biso   1.000  N
  N57      1.0000 0.86640  0.40720  0.97380  Biso   1.000  N
  N58      1.0000 0.63360  0.59280  0.47380  Biso   1.000  N
  N59      1.0000 0.13360  0.90720  0.52620  Biso   1.000  N
  N60      1.0000 0.36640  0.09280  0.02620  Biso   1.000  N
  N61      1.0000 0.13360  0.59280  0.02620  Biso   1.000  N
  N62      1.0000 0.36640  0.40720  0.52620  Biso   1.000  N
  N63      1.0000 0.86640  0.09280  0.47380  Biso   1.000  N
  N64      1.0000 0.63360  0.90720  0.97380  Biso   1.000  N
  H17      1.0000 0.85200  0.47600  0.99700  Biso   1.000  H
  H18      1.0000 0.64800  0.52400  0.49700  Biso   1.000  H
  H19      1.0000 0.14800  0.97600  0.50300  Biso   1.000  H
  H20      1.0000 0.35200  0.02400  0.00300  Biso   1.000  H
  H21      1.0000 0.14800  0.52400  0.00300  Biso   1.000  H
  H22      1.0000 0.35200  0.47600  0.50300  Biso   1.000  H
  H23      1.0000 0.85200  0.02400  0.49700  Biso   1.000  H
  H24      1.0000 0.64800  0.97600  0.99700  Biso   1.000  H
  H25      1.0000 0.91200  0.36000  0.00700  Biso   1.000  H
  H26      1.0000 0.58800  0.64000  0.50700  Biso   1.000  H
  H27      1.0000 0.08800  0.86000  0.49300  Biso   1.000  H
  H28      1.0000 0.41200  0.14000  0.99300  Biso   1.000  H
  H29      1.0000 0.08800  0.64000  0.99300  Biso   1.000  H
  H30      1.0000 0.41200  0.36000  0.49300  Biso   1.000  H
  H31      1.0000 0.91200  0.14000  0.50700  Biso   1.000  H
  H32      1.0000 0.58800  0.86000  0.00700  Biso   1.000  H
  C1       1.0000 0.24580  0.61560  0.81980  Biso   1.000  C
  C2       1.0000 0.25420  0.38440  0.31980  Biso   1.000  C
  C3       1.0000 0.75420  0.11560  0.68020  Biso   1.000  C
  C4       1.0000 0.74580  0.88440  0.18020  Biso   1.000  C
  C5       1.0000 0.75420  0.38440  0.18020  Biso   1.000  C
  C6       1.0000 0.74580  0.61560  0.68020  Biso   1.000  C
  C7       1.0000 0.24580  0.88440  0.31980  Biso   1.000  C
  C8       1.0000 0.25420  0.11560  0.81980  Biso   1.000  C
  C9       1.0000 0.37830  0.75290  0.86690  Biso   1.000  C
  C10      1.0000 0.12170  0.24710  0.36690  Biso   1.000  C
  C11      1.0000 0.62170  0.25290  0.63310  Biso   1.000  C
  C12      1.0000 0.87830  0.74710  0.13310  Biso   1.000  C
  C13      1.0000 0.62170  0.24710  0.13310  Biso   1.000  C
  C14      1.0000 0.87830  0.75290  0.63310  Biso   1.000  C
  C15      1.0000 0.37830  0.74710  0.36690  Biso   1.000  C
  C16      1.0000 0.12170  0.25290  0.86690  Biso   1.000  C
  H33      1.0000 0.42000  0.83200  0.88400  Biso   1.000  H
  H34      1.0000 0.08000  0.16800  0.38400  Biso   1.000  H
  H35      1.0000 0.58000  0.33200  0.61600  Biso   1.000  H
  H36      1.0000 0.92000  0.66800  0.11600  Biso   1.000  H
  H37      1.0000 0.58000  0.16800  0.11600  Biso   1.000  H
  H38      1.0000 0.92000  0.83200  0.61600  Biso   1.000  H
  H39      1.0000 0.42000  0.66800  0.38400  Biso   1.000  H
  H40      1.0000 0.08000  0.33200  0.88400  Biso   1.000  H
  C17      1.0000 0.75650  0.35040  0.93990  Biso   1.000  C
  C18      1.0000 0.74350  0.64960  0.43990  Biso   1.000  C
  C19      1.0000 0.24350  0.85040  0.56010  Biso   1.000  C
  C20      1.0000 0.25650  0.14960  0.06010  Biso   1.000  C
  C21      1.0000 0.24350  0.64960  0.06010  Biso   1.000  C
  C22      1.0000 0.25650  0.35040  0.56010  Biso   1.000  C
  C23      1.0000 0.75650  0.14960  0.43990  Biso   1.000  C
  C24      1.0000 0.74350  0.85040  0.93990  Biso   1.000  C
  C25      1.0000 0.62850  0.21310  0.88680  Biso   1.000  C
  C26      1.0000 0.87150  0.78690  0.38680  Biso   1.000  C
  C27      1.0000 0.37150  0.71310  0.61320  Biso   1.000  C
  C28      1.0000 0.12850  0.28690  0.11320  Biso   1.000  C
  C29      1.0000 0.37150  0.78690  0.11320  Biso   1.000  C
  C30      1.0000 0.12850  0.21310  0.61320  Biso   1.000  C
  C31      1.0000 0.62850  0.28690  0.38680  Biso   1.000  C
  C32      1.0000 0.87150  0.71310  0.88680  Biso   1.000  C
  H41      1.0000 0.59300  0.13300  0.87100  Biso   1.000  H
  H42      1.0000 0.90700  0.86700  0.37100  Biso   1.000  H
  H43      1.0000 0.40700  0.63300  0.62900  Biso   1.000  H
  H44      1.0000 0.09300  0.36700  0.12900  Biso   1.000  H
  H45      1.0000 0.40700  0.86700  0.12900  Biso   1.000  H
  H46      1.0000 0.09300  0.13300  0.62900  Biso   1.000  H
  H47      1.0000 0.59300  0.36700  0.37100  Biso   1.000  H
  H48      1.0000 0.90700  0.63300  0.87100  Biso   1.000  H
