data_image0
_cell_length_a       10.628
_cell_length_b       35.255
_cell_length_c       15.059
_cell_angle_alpha    90
_cell_angle_beta     110.5
_cell_angle_gamma    90

_symmetry_space_group_name_H-M    "P 1"
_symmetry_int_tables_number       1

loop_
  _symmetry_equiv_pos_as_xyz
  'x, y, z'

loop_
  _atom_site_label
  _atom_site_occupancy
  _atom_site_fract_x
  _atom_site_fract_y
  _atom_site_fract_z
  _atom_site_thermal_displace_type
  _atom_site_B_iso_or_equiv
  _atom_site_type_symbol
  Cu1      1.0000 0.64892  0.28759  0.31561  Biso   1.000  Cu
  Cu2      1.0000 0.35108  0.28759  0.18439  Biso   1.000  Cu
  Cu3      1.0000 0.14892  0.78759  0.31561  Biso   1.000  Cu
  Cu4      1.0000 0.85108  0.78759  0.18439  Biso   1.000  Cu
  Cu5      1.0000 0.35108  0.71241  0.68439  Biso   1.000  Cu
  Cu6      1.0000 0.64892  0.71241  0.81561  Biso   1.000  Cu
  Cu7      1.0000 0.85108  0.21241  0.68439  Biso   1.000  Cu
  Cu8      1.0000 0.14892  0.21241  0.81561  Biso   1.000  Cu
  Cu9      1.0000 0.48785  0.46386  0.35322  Biso   1.000  Cu
  Cu10     1.0000 0.51215  0.46386  0.14678  Biso   1.000  Cu
  Cu11     1.0000 0.98785  0.96386  0.35322  Biso   1.000  Cu
  Cu12     1.0000 0.01215  0.96386  0.14678  Biso   1.000  Cu
  Cu13     1.0000 0.51215  0.53614  0.64678  Biso   1.000  Cu
  Cu14     1.0000 0.48785  0.53614  0.85322  Biso   1.000  Cu
  Cu15     1.0000 0.01215  0.03614  0.64678  Biso   1.000  Cu
  Cu16     1.0000 0.98785  0.03614  0.85322  Biso   1.000  Cu
  S1       1.0000 0.50000  0.37578  0.25000  Biso   1.000  S
  S2       1.0000 0.00000  0.87578  0.25000  Biso   1.000  S
  S3       1.0000 0.50000  0.62422  0.75000  Biso   1.000  S
  S4       1.0000 0.00000  0.12422  0.75000  Biso   1.000  S
  O1       1.0000 0.61840  0.35150  0.26780  Biso   1.000  O
  O2       1.0000 0.38160  0.35150  0.23220  Biso   1.000  O
  O3       1.0000 0.11840  0.85150  0.26780  Biso   1.000  O
  O4       1.0000 0.88160  0.85150  0.23220  Biso   1.000  O
  O5       1.0000 0.38160  0.64850  0.73220  Biso   1.000  O
  O6       1.0000 0.61840  0.64850  0.76780  Biso   1.000  O
  O7       1.0000 0.88160  0.14850  0.73220  Biso   1.000  O
  O8       1.0000 0.11840  0.14850  0.76780  Biso   1.000  O
  O9       1.0000 0.51540  0.39990  0.33290  Biso   1.000  O
  O10      1.0000 0.48460  0.39990  0.16710  Biso   1.000  O
  O11      1.0000 0.01540  0.89990  0.33290  Biso   1.000  O
  O12      1.0000 0.98460  0.89990  0.16710  Biso   1.000  O
  O13      1.0000 0.48460  0.60010  0.66710  Biso   1.000  O
  O14      1.0000 0.51540  0.60010  0.83290  Biso   1.000  O
  O15      1.0000 0.98460  0.10010  0.66710  Biso   1.000  O
  O16      1.0000 0.01540  0.10010  0.83290  Biso   1.000  O
  N1       1.0000 0.24920  0.22876  0.73670  Biso   1.000  N
  N2       1.0000 0.75080  0.22876  0.76330  Biso   1.000  N
  N3       1.0000 0.74920  0.72876  0.73670  Biso   1.000  N
  N4       1.0000 0.25080  0.72876  0.76330  Biso   1.000  N
  N5       1.0000 0.75080  0.77124  0.26330  Biso   1.000  N
  N6       1.0000 0.24920  0.77124  0.23670  Biso   1.000  N
  N7       1.0000 0.25080  0.27124  0.26330  Biso   1.000  N
  N8       1.0000 0.74920  0.27124  0.23670  Biso   1.000  N
  N9       1.0000 0.57510  0.27856  0.41400  Biso   1.000  N
  N10      1.0000 0.42490  0.27856  0.08600  Biso   1.000  N
  N11      1.0000 0.07510  0.77856  0.41400  Biso   1.000  N
  N12      1.0000 0.92490  0.77856  0.08600  Biso   1.000  N
  N13      1.0000 0.42490  0.72144  0.58600  Biso   1.000  N
  N14      1.0000 0.57510  0.72144  0.91400  Biso   1.000  N
  N15      1.0000 0.92490  0.22144  0.58600  Biso   1.000  N
  N16      1.0000 0.07510  0.22144  0.91400  Biso   1.000  N
  N17      1.0000 0.30930  0.52314  0.77180  Biso   1.000  N
  N18      1.0000 0.69070  0.52314  0.72820  Biso   1.000  N
  N19      1.0000 0.80930  0.02314  0.77180  Biso   1.000  N
  N20      1.0000 0.19070  0.02314  0.72820  Biso   1.000  N
  N21      1.0000 0.69070  0.47686  0.22820  Biso   1.000  N
  N22      1.0000 0.30930  0.47686  0.27180  Biso   1.000  N
  N23      1.0000 0.19070  0.97686  0.22820  Biso   1.000  N
  N24      1.0000 0.80930  0.97686  0.27180  Biso   1.000  N
  N25      1.0000 0.65810  0.47447  0.45160  Biso   1.000  N
  N26      1.0000 0.34190  0.47447  0.04840  Biso   1.000  N
  N27      1.0000 0.15810  0.97447  0.45160  Biso   1.000  N
  N28      1.0000 0.84190  0.97447  0.04840  Biso   1.000  N
  N29      1.0000 0.34190  0.52553  0.54840  Biso   1.000  N
  N30      1.0000 0.65810  0.52553  0.95160  Biso   1.000  N
  N31      1.0000 0.84190  0.02553  0.54840  Biso   1.000  N
  N32      1.0000 0.15810  0.02553  0.95160  Biso   1.000  N
  C1       1.0000 0.30260  0.20262  0.69560  Biso   1.000  C
  C2       1.0000 0.69740  0.20262  0.80440  Biso   1.000  C
  C3       1.0000 0.80260  0.70262  0.69560  Biso   1.000  C
  C4       1.0000 0.19740  0.70262  0.80440  Biso   1.000  C
  C5       1.0000 0.69740  0.79738  0.30440  Biso   1.000  C
  C6       1.0000 0.30260  0.79738  0.19560  Biso   1.000  C
  C7       1.0000 0.19740  0.29738  0.30440  Biso   1.000  C
  C8       1.0000 0.80260  0.29738  0.19560  Biso   1.000  C
  H1       1.0000 0.29460  0.17700  0.70760  Biso   1.000  H
  H2       1.0000 0.70540  0.17700  0.79240  Biso   1.000  H
  H3       1.0000 0.79460  0.67700  0.70760  Biso   1.000  H
  H4       1.0000 0.20540  0.67700  0.79240  Biso   1.000  H
  H5       1.0000 0.70540  0.82300  0.29240  Biso   1.000  H
  H6       1.0000 0.29460  0.82300  0.20760  Biso   1.000  H
  H7       1.0000 0.20540  0.32300  0.29240  Biso   1.000  H
  H8       1.0000 0.79460  0.32300  0.20760  Biso   1.000  H
  C9       1.0000 0.37000  0.21346  0.63510  Biso   1.000  C
  C10      1.0000 0.63000  0.21346  0.86490  Biso   1.000  C
  C11      1.0000 0.87000  0.71346  0.63510  Biso   1.000  C
  C12      1.0000 0.13000  0.71346  0.86490  Biso   1.000  C
  C13      1.0000 0.63000  0.78654  0.36490  Biso   1.000  C
  C14      1.0000 0.37000  0.78654  0.13510  Biso   1.000  C
  C15      1.0000 0.13000  0.28654  0.36490  Biso   1.000  C
  C16      1.0000 0.87000  0.28654  0.13510  Biso   1.000  C
  H9       1.0000 0.40290  0.19460  0.60590  Biso   1.000  H
  H10      1.0000 0.59710  0.19460  0.89410  Biso   1.000  H
  H11      1.0000 0.90290  0.69460  0.60590  Biso   1.000  H
  H12      1.0000 0.09710  0.69460  0.89410  Biso   1.000  H
  H13      1.0000 0.59710  0.80540  0.39410  Biso   1.000  H
  H14      1.0000 0.40290  0.80540  0.10590  Biso   1.000  H
  H15      1.0000 0.09710  0.30540  0.39410  Biso   1.000  H
  H16      1.0000 0.90290  0.30540  0.10590  Biso   1.000  H
  C17      1.0000 0.38940  0.24958  0.61700  Biso   1.000  C
  C18      1.0000 0.61060  0.24958  0.88300  Biso   1.000  C
  C19      1.0000 0.88940  0.74958  0.61700  Biso   1.000  C
  C20      1.0000 0.11060  0.74958  0.88300  Biso   1.000  C
  C21      1.0000 0.61060  0.75042  0.38300  Biso   1.000  C
  C22      1.0000 0.38940  0.75042  0.11700  Biso   1.000  C
  C23      1.0000 0.11060  0.25042  0.38300  Biso   1.000  C
  C24      1.0000 0.88940  0.25042  0.11700  Biso   1.000  C
  C25      1.0000 0.34080  0.27689  0.66410  Biso   1.000  C
  C26      1.0000 0.65920  0.27689  0.83590  Biso   1.000  C
  C27      1.0000 0.84080  0.77689  0.66410  Biso   1.000  C
  C28      1.0000 0.15920  0.77689  0.83590  Biso   1.000  C
  C29      1.0000 0.65920  0.72311  0.33590  Biso   1.000  C
  C30      1.0000 0.34080  0.72311  0.16410  Biso   1.000  C
  C31      1.0000 0.15920  0.22311  0.33590  Biso   1.000  C
  C32      1.0000 0.84080  0.22311  0.16410  Biso   1.000  C
  H17      1.0000 0.35520  0.30260  0.65720  Biso   1.000  H
  H18      1.0000 0.64480  0.30260  0.84280  Biso   1.000  H
  H19      1.0000 0.85520  0.80260  0.65720  Biso   1.000  H
  H20      1.0000 0.14480  0.80260  0.84280  Biso   1.000  H
  H21      1.0000 0.64480  0.69740  0.34280  Biso   1.000  H
  H22      1.0000 0.35520  0.69740  0.15720  Biso   1.000  H
  H23      1.0000 0.14480  0.19740  0.34280  Biso   1.000  H
  H24      1.0000 0.85520  0.19740  0.15720  Biso   1.000  H
  C33      1.0000 0.27090  0.26494  0.72120  Biso   1.000  C
  C34      1.0000 0.72910  0.26494  0.77880  Biso   1.000  C
  C35      1.0000 0.77090  0.76494  0.72120  Biso   1.000  C
  C36      1.0000 0.22910  0.76494  0.77880  Biso   1.000  C
  C37      1.0000 0.72910  0.73506  0.27880  Biso   1.000  C
  C38      1.0000 0.27090  0.73506  0.22120  Biso   1.000  C
  C39      1.0000 0.22910  0.23506  0.27880  Biso   1.000  C
  C40      1.0000 0.77090  0.23506  0.22120  Biso   1.000  C
  H25      1.0000 0.23690  0.28340  0.75080  Biso   1.000  H
  H26      1.0000 0.76310  0.28340  0.74920  Biso   1.000  H
  H27      1.0000 0.73690  0.78340  0.75080  Biso   1.000  H
  H28      1.0000 0.26310  0.78340  0.74920  Biso   1.000  H
  H29      1.0000 0.76310  0.71660  0.24920  Biso   1.000  H
  H30      1.0000 0.23690  0.71660  0.25080  Biso   1.000  H
  H31      1.0000 0.26310  0.21660  0.24920  Biso   1.000  H
  H32      1.0000 0.73690  0.21660  0.25080  Biso   1.000  H
  C41      1.0000 0.56340  0.24269  0.43780  Biso   1.000  C
  C42      1.0000 0.43660  0.24269  0.06220  Biso   1.000  C
  C43      1.0000 0.06340  0.74269  0.43780  Biso   1.000  C
  C44      1.0000 0.93660  0.74269  0.06220  Biso   1.000  C
  C45      1.0000 0.43660  0.75731  0.56220  Biso   1.000  C
  C46      1.0000 0.56340  0.75731  0.93780  Biso   1.000  C
  C47      1.0000 0.93660  0.25731  0.56220  Biso   1.000  C
  C48      1.0000 0.06340  0.25731  0.93780  Biso   1.000  C
  H33      1.0000 0.59650  0.22360  0.40950  Biso   1.000  H
  H34      1.0000 0.40350  0.22360  0.09050  Biso   1.000  H
  H35      1.0000 0.09650  0.72360  0.40950  Biso   1.000  H
  H36      1.0000 0.90350  0.72360  0.09050  Biso   1.000  H
  H37      1.0000 0.40350  0.77640  0.59050  Biso   1.000  H
  H38      1.0000 0.59650  0.77640  0.90950  Biso   1.000  H
  H39      1.0000 0.90350  0.27640  0.59050  Biso   1.000  H
  H40      1.0000 0.09650  0.27640  0.90950  Biso   1.000  H
  C49      1.0000 0.50530  0.23285  0.50160  Biso   1.000  C
  C50      1.0000 0.49470  0.23285  0.99840  Biso   1.000  C
  C51      1.0000 0.00530  0.73285  0.50160  Biso   1.000  C
  C52      1.0000 0.99470  0.73285  0.99840  Biso   1.000  C
  C53      1.0000 0.49470  0.76715  0.49840  Biso   1.000  C
  C54      1.0000 0.50530  0.76715  0.00160  Biso   1.000  C
  C55      1.0000 0.99470  0.26715  0.49840  Biso   1.000  C
  C56      1.0000 0.00530  0.26715  0.00160  Biso   1.000  C
  H41      1.0000 0.49590  0.20730  0.51370  Biso   1.000  H
  H42      1.0000 0.50410  0.20730  0.98630  Biso   1.000  H
  H43      1.0000 0.99590  0.70730  0.51370  Biso   1.000  H
  H44      1.0000 0.00410  0.70730  0.98630  Biso   1.000  H
  H45      1.0000 0.50410  0.79270  0.48630  Biso   1.000  H
  H46      1.0000 0.49590  0.79270  0.01370  Biso   1.000  H
  H47      1.0000 0.00410  0.29270  0.48630  Biso   1.000  H
  H48      1.0000 0.99590  0.29270  0.01370  Biso   1.000  H
  C57      1.0000 0.45930  0.26053  0.54930  Biso   1.000  C
  C58      1.0000 0.54070  0.26053  0.95070  Biso   1.000  C
  C59      1.0000 0.95930  0.76053  0.54930  Biso   1.000  C
  C60      1.0000 0.04070  0.76053  0.95070  Biso   1.000  C
  C61      1.0000 0.54070  0.73947  0.45070  Biso   1.000  C
  C62      1.0000 0.45930  0.73947  0.04930  Biso   1.000  C
  C63      1.0000 0.04070  0.23947  0.45070  Biso   1.000  C
  C64      1.0000 0.95930  0.23947  0.04930  Biso   1.000  C
  C65      1.0000 0.47500  0.29701  0.52560  Biso   1.000  C
  C66      1.0000 0.52500  0.29701  0.97440  Biso   1.000  C
  C67      1.0000 0.97500  0.79701  0.52560  Biso   1.000  C
  C68      1.0000 0.02500  0.79701  0.97440  Biso   1.000  C
  C69      1.0000 0.52500  0.70299  0.47440  Biso   1.000  C
  C70      1.0000 0.47500  0.70299  0.02560  Biso   1.000  C
  C71      1.0000 0.02500  0.20299  0.47440  Biso   1.000  C
  C72      1.0000 0.97500  0.20299  0.02560  Biso   1.000  C
  H49      1.0000 0.44450  0.31680  0.55370  Biso   1.000  H
  H50      1.0000 0.55550  0.31680  0.94630  Biso   1.000  H
  H51      1.0000 0.94450  0.81680  0.55370  Biso   1.000  H
  H52      1.0000 0.05550  0.81680  0.94630  Biso   1.000  H
  H53      1.0000 0.55550  0.68320  0.44630  Biso   1.000  H
  H54      1.0000 0.44450  0.68320  0.05370  Biso   1.000  H
  H55      1.0000 0.05550  0.18320  0.44630  Biso   1.000  H
  H56      1.0000 0.94450  0.18320  0.05370  Biso   1.000  H
  C73      1.0000 0.53550  0.30502  0.46040  Biso   1.000  C
  C74      1.0000 0.46450  0.30502  0.03960  Biso   1.000  C
  C75      1.0000 0.03550  0.80502  0.46040  Biso   1.000  C
  C76      1.0000 0.96450  0.80502  0.03960  Biso   1.000  C
  C77      1.0000 0.46450  0.69498  0.53960  Biso   1.000  C
  C78      1.0000 0.53550  0.69498  0.96040  Biso   1.000  C
  C79      1.0000 0.96450  0.19498  0.53960  Biso   1.000  C
  C80      1.0000 0.03550  0.19498  0.96040  Biso   1.000  C
  H57      1.0000 0.54910  0.33030  0.44850  Biso   1.000  H
  H58      1.0000 0.45090  0.33030  0.05150  Biso   1.000  H
  H59      1.0000 0.04910  0.83030  0.44850  Biso   1.000  H
  H60      1.0000 0.95090  0.83030  0.05150  Biso   1.000  H
  H61      1.0000 0.45090  0.66970  0.55150  Biso   1.000  H
  H62      1.0000 0.54910  0.66970  0.94850  Biso   1.000  H
  H63      1.0000 0.95090  0.16970  0.55150  Biso   1.000  H
  H64      1.0000 0.04910  0.16970  0.94850  Biso   1.000  H
  C81      1.0000 0.26870  0.48691  0.75740  Biso   1.000  C
  C82      1.0000 0.73130  0.48691  0.74260  Biso   1.000  C
  C83      1.0000 0.76870  0.98691  0.75740  Biso   1.000  C
  C84      1.0000 0.23130  0.98691  0.74260  Biso   1.000  C
  C85      1.0000 0.73130  0.51309  0.24260  Biso   1.000  C
  C86      1.0000 0.26870  0.51309  0.25740  Biso   1.000  C
  C87      1.0000 0.23130  0.01309  0.24260  Biso   1.000  C
  C88      1.0000 0.76870  0.01309  0.25740  Biso   1.000  C
  H65      1.0000 0.33000  0.46820  0.78810  Biso   1.000  H
  H66      1.0000 0.67000  0.46820  0.71190  Biso   1.000  H
  H67      1.0000 0.83000  0.96820  0.78810  Biso   1.000  H
  H68      1.0000 0.17000  0.96820  0.71190  Biso   1.000  H
  H69      1.0000 0.67000  0.53180  0.21190  Biso   1.000  H
  H70      1.0000 0.33000  0.53180  0.28810  Biso   1.000  H
  H71      1.0000 0.17000  0.03180  0.21190  Biso   1.000  H
  H72      1.0000 0.83000  0.03180  0.28810  Biso   1.000  H
  C89      1.0000 0.14250  0.47567  0.70040  Biso   1.000  C
  C90      1.0000 0.85750  0.47567  0.79960  Biso   1.000  C
  C91      1.0000 0.64250  0.97567  0.70040  Biso   1.000  C
  C92      1.0000 0.35750  0.97567  0.79960  Biso   1.000  C
  C93      1.0000 0.85750  0.52433  0.29960  Biso   1.000  C
  C94      1.0000 0.14250  0.52433  0.20040  Biso   1.000  C
  C95      1.0000 0.35750  0.02433  0.29960  Biso   1.000  C
  C96      1.0000 0.64250  0.02433  0.20040  Biso   1.000  C
  H73      1.0000 0.11920  0.45010  0.69470  Biso   1.000  H
  H74      1.0000 0.88080  0.45010  0.80530  Biso   1.000  H
  H75      1.0000 0.61920  0.95010  0.69470  Biso   1.000  H
  H76      1.0000 0.38080  0.95010  0.80530  Biso   1.000  H
  H77      1.0000 0.88080  0.54990  0.30530  Biso   1.000  H
  H78      1.0000 0.11920  0.54990  0.19470  Biso   1.000  H
  H79      1.0000 0.38080  0.04990  0.30530  Biso   1.000  H
  H80      1.0000 0.61920  0.04990  0.19470  Biso   1.000  H
  C97      1.0000 0.04940  0.50324  0.65080  Biso   1.000  C
  C98      1.0000 0.95060  0.50324  0.84920  Biso   1.000  C
  C99      1.0000 0.54940  0.00324  0.65080  Biso   1.000  C
  C100     1.0000 0.45060  0.00324  0.84920  Biso   1.000  C
  C101     1.0000 0.95060  0.49676  0.34920  Biso   1.000  C
  C102     1.0000 0.04940  0.49676  0.15080  Biso   1.000  C
  C103     1.0000 0.45060  0.99676  0.34920  Biso   1.000  C
  C104     1.0000 0.54940  0.99676  0.15080  Biso   1.000  C
  C105     1.0000 0.08920  0.54077  0.66840  Biso   1.000  C
  C106     1.0000 0.91080  0.54077  0.83160  Biso   1.000  C
  C107     1.0000 0.58920  0.04077  0.66840  Biso   1.000  C
  C108     1.0000 0.41080  0.04077  0.83160  Biso   1.000  C
  C109     1.0000 0.91080  0.45923  0.33160  Biso   1.000  C
  C110     1.0000 0.08920  0.45923  0.16840  Biso   1.000  C
  C111     1.0000 0.41080  0.95923  0.33160  Biso   1.000  C
  C112     1.0000 0.58920  0.95923  0.16840  Biso   1.000  C
  H81      1.0000 0.02840  0.56000  0.64010  Biso   1.000  H
  H82      1.0000 0.97160  0.56000  0.85990  Biso   1.000  H
  H83      1.0000 0.52840  0.06000  0.64010  Biso   1.000  H
  H84      1.0000 0.47160  0.06000  0.85990  Biso   1.000  H
  H85      1.0000 0.97160  0.44000  0.35990  Biso   1.000  H
  H86      1.0000 0.02840  0.44000  0.14010  Biso   1.000  H
  H87      1.0000 0.47160  0.94000  0.35990  Biso   1.000  H
  H88      1.0000 0.52840  0.94000  0.14010  Biso   1.000  H
  C113     1.0000 0.21710  0.55016  0.72710  Biso   1.000  C
  C114     1.0000 0.78290  0.55016  0.77290  Biso   1.000  C
  C115     1.0000 0.71710  0.05016  0.72710  Biso   1.000  C
  C116     1.0000 0.28290  0.05016  0.77290  Biso   1.000  C
  C117     1.0000 0.78290  0.44984  0.27290  Biso   1.000  C
  C118     1.0000 0.21710  0.44984  0.22710  Biso   1.000  C
  C119     1.0000 0.28290  0.94984  0.27290  Biso   1.000  C
  C120     1.0000 0.71710  0.94984  0.22710  Biso   1.000  C
  H89      1.0000 0.24130  0.57560  0.73640  Biso   1.000  H
  H90      1.0000 0.75870  0.57560  0.76360  Biso   1.000  H
  H91      1.0000 0.74130  0.07560  0.73640  Biso   1.000  H
  H92      1.0000 0.25870  0.07560  0.76360  Biso   1.000  H
  H93      1.0000 0.75870  0.42440  0.26360  Biso   1.000  H
  H94      1.0000 0.24130  0.42440  0.23640  Biso   1.000  H
  H95      1.0000 0.25870  0.92440  0.26360  Biso   1.000  H
  H96      1.0000 0.74130  0.92440  0.23640  Biso   1.000  H
  C121     1.0000 0.74330  0.44831  0.49870  Biso   1.000  C
  C122     1.0000 0.25670  0.44831  0.00130  Biso   1.000  C
  C123     1.0000 0.24330  0.94831  0.49870  Biso   1.000  C
  C124     1.0000 0.75670  0.94831  0.00130  Biso   1.000  C
  C125     1.0000 0.25670  0.55169  0.50130  Biso   1.000  C
  C126     1.0000 0.74330  0.55169  0.99870  Biso   1.000  C
  C127     1.0000 0.75670  0.05169  0.50130  Biso   1.000  C
  C128     1.0000 0.24330  0.05169  0.99870  Biso   1.000  C
  H97      1.0000 0.71820  0.42300  0.48740  Biso   1.000  H
  H98      1.0000 0.28180  0.42300  0.01260  Biso   1.000  H
  H99      1.0000 0.21820  0.92300  0.48740  Biso   1.000  H
  H100     1.0000 0.78180  0.92300  0.01260  Biso   1.000  H
  H101     1.0000 0.28180  0.57700  0.51260  Biso   1.000  H
  H102     1.0000 0.71820  0.57700  0.98740  Biso   1.000  H
  H103     1.0000 0.78180  0.07700  0.51260  Biso   1.000  H
  H104     1.0000 0.21820  0.07700  0.98740  Biso   1.000  H
  C129     1.0000 0.86900  0.45661  0.56440  Biso   1.000  C
  C130     1.0000 0.13100  0.45661  0.93560  Biso   1.000  C
  C131     1.0000 0.36900  0.95661  0.56440  Biso   1.000  C
  C132     1.0000 0.63100  0.95661  0.93560  Biso   1.000  C
  C133     1.0000 0.13100  0.54339  0.43560  Biso   1.000  C
  C134     1.0000 0.86900  0.54339  0.06440  Biso   1.000  C
  C135     1.0000 0.63100  0.04339  0.43560  Biso   1.000  C
  C136     1.0000 0.36900  0.04339  0.06440  Biso   1.000  C
  H105     1.0000 0.92520  0.43690  0.59570  Biso   1.000  H
  H106     1.0000 0.07480  0.43690  0.90430  Biso   1.000  H
  H107     1.0000 0.42520  0.93690  0.59570  Biso   1.000  H
  H108     1.0000 0.57480  0.93690  0.90430  Biso   1.000  H
  H109     1.0000 0.07480  0.56310  0.40430  Biso   1.000  H
  H110     1.0000 0.92520  0.56310  0.09570  Biso   1.000  H
  H111     1.0000 0.57480  0.06310  0.40430  Biso   1.000  H
  H112     1.0000 0.42520  0.06310  0.09570  Biso   1.000  H
  C137     1.0000 0.91180  0.49320  0.58390  Biso   1.000  C
  C138     1.0000 0.08820  0.49320  0.91610  Biso   1.000  C
  C139     1.0000 0.41180  0.99320  0.58390  Biso   1.000  C
  C140     1.0000 0.58820  0.99320  0.91610  Biso   1.000  C
  C141     1.0000 0.08820  0.50680  0.41610  Biso   1.000  C
  C142     1.0000 0.91180  0.50680  0.08390  Biso   1.000  C
  C143     1.0000 0.58820  0.00680  0.41610  Biso   1.000  C
  C144     1.0000 0.41180  0.00680  0.08390  Biso   1.000  C
  C145     1.0000 0.82340  0.52038  0.53370  Biso   1.000  C
  C146     1.0000 0.17660  0.52038  0.96630  Biso   1.000  C
  C147     1.0000 0.32340  0.02038  0.53370  Biso   1.000  C
  C148     1.0000 0.67660  0.02038  0.96630  Biso   1.000  C
  C149     1.0000 0.17660  0.47962  0.46630  Biso   1.000  C
  C150     1.0000 0.82340  0.47962  0.03370  Biso   1.000  C
  C151     1.0000 0.67660  0.97962  0.46630  Biso   1.000  C
  C152     1.0000 0.32340  0.97962  0.03370  Biso   1.000  C
  H113     1.0000 0.84810  0.54580  0.54230  Biso   1.000  H
  H114     1.0000 0.15190  0.54580  0.95770  Biso   1.000  H
  H115     1.0000 0.34810  0.04580  0.54230  Biso   1.000  H
  H116     1.0000 0.65190  0.04580  0.95770  Biso   1.000  H
  H117     1.0000 0.15190  0.45420  0.45770  Biso   1.000  H
  H118     1.0000 0.84810  0.45420  0.04230  Biso   1.000  H
  H119     1.0000 0.65190  0.95420  0.45770  Biso   1.000  H
  H120     1.0000 0.34810  0.95420  0.04230  Biso   1.000  H
  C153     1.0000 0.69820  0.51070  0.47050  Biso   1.000  C
  C154     1.0000 0.30180  0.51070  0.02950  Biso   1.000  C
  C155     1.0000 0.19820  0.01070  0.47050  Biso   1.000  C
  C156     1.0000 0.80180  0.01070  0.02950  Biso   1.000  C
  C157     1.0000 0.30180  0.48930  0.52950  Biso   1.000  C
  C158     1.0000 0.69820  0.48930  0.97050  Biso   1.000  C
  C159     1.0000 0.80180  0.98930  0.52950  Biso   1.000  C
  C160     1.0000 0.19820  0.98930  0.97050  Biso   1.000  C
  H121     1.0000 0.63930  0.53000  0.43990  Biso   1.000  H
  H122     1.0000 0.36070  0.53000  0.06010  Biso   1.000  H
  H123     1.0000 0.13930  0.03000  0.43990  Biso   1.000  H
  H124     1.0000 0.86070  0.03000  0.06010  Biso   1.000  H
  H125     1.0000 0.36070  0.47000  0.56010  Biso   1.000  H
  H126     1.0000 0.63930  0.47000  0.93990  Biso   1.000  H
  H127     1.0000 0.86070  0.97000  0.56010  Biso   1.000  H
  H128     1.0000 0.13930  0.97000  0.93990  Biso   1.000  H
  S5       1.0000 0.59160  0.14730  0.30233  Biso   1.000  S
  S6       1.0000 0.40840  0.14730  0.19767  Biso   1.000  S
  S7       1.0000 0.09160  0.64730  0.30233  Biso   1.000  S
  S8       1.0000 0.90840  0.64730  0.19767  Biso   1.000  S
  S9       1.0000 0.40840  0.85270  0.69767  Biso   1.000  S
  S10      1.0000 0.59160  0.85270  0.80233  Biso   1.000  S
  S11      1.0000 0.90840  0.35270  0.69767  Biso   1.000  S
  S12      1.0000 0.09160  0.35270  0.80233  Biso   1.000  S
  O17      1.0000 0.72590  0.15620  0.34200  Biso   1.000  O
  O18      1.0000 0.27410  0.15620  0.15800  Biso   1.000  O
  O19      1.0000 0.22590  0.65620  0.34200  Biso   1.000  O
  O20      1.0000 0.77410  0.65620  0.15800  Biso   1.000  O
  O21      1.0000 0.27410  0.84380  0.65800  Biso   1.000  O
  O22      1.0000 0.72590  0.84380  0.84200  Biso   1.000  O
  O23      1.0000 0.77410  0.34380  0.65800  Biso   1.000  O
  O24      1.0000 0.22590  0.34380  0.84200  Biso   1.000  O
  O25      1.0000 0.56500  0.11240  0.24590  Biso   1.000  O
  O26      1.0000 0.43500  0.11240  0.25410  Biso   1.000  O
  O27      1.0000 0.06500  0.61240  0.24590  Biso   1.000  O
  O28      1.0000 0.93500  0.61240  0.25410  Biso   1.000  O
  O29      1.0000 0.43500  0.88760  0.75410  Biso   1.000  O
  O30      1.0000 0.56500  0.88760  0.74590  Biso   1.000  O
  O31      1.0000 0.93500  0.38760  0.75410  Biso   1.000  O
  O32      1.0000 0.06500  0.38760  0.74590  Biso   1.000  O
  O33      1.0000 0.50000  0.18044  0.25000  Biso   1.000  O
  O34      1.0000 0.00000  0.68044  0.25000  Biso   1.000  O
  O35      1.0000 0.50000  0.81956  0.75000  Biso   1.000  O
  O36      1.0000 0.00000  0.31956  0.75000  Biso   1.000  O
  O37      1.0000 0.38230  0.11770  0.61330  Biso   1.000  O
  O38      1.0000 0.61770  0.11770  0.88670  Biso   1.000  O
  O39      1.0000 0.88230  0.61770  0.61330  Biso   1.000  O
  O40      1.0000 0.11770  0.61770  0.88670  Biso   1.000  O
  O41      1.0000 0.61770  0.88230  0.38670  Biso   1.000  O
  O42      1.0000 0.38230  0.88230  0.11330  Biso   1.000  O
  O43      1.0000 0.11770  0.38230  0.38670  Biso   1.000  O
  O44      1.0000 0.88230  0.38230  0.11330  Biso   1.000  O
  C161     1.0000 0.53030  0.13962  0.39630  Biso   1.000  C
  C162     1.0000 0.46970  0.13962  0.10370  Biso   1.000  C
  C163     1.0000 0.03030  0.63962  0.39630  Biso   1.000  C
  C164     1.0000 0.96970  0.63962  0.10370  Biso   1.000  C
  C165     1.0000 0.46970  0.86038  0.60370  Biso   1.000  C
  C166     1.0000 0.53030  0.86038  0.89630  Biso   1.000  C
  C167     1.0000 0.96970  0.36038  0.60370  Biso   1.000  C
  C168     1.0000 0.03030  0.36038  0.89630  Biso   1.000  C
  C169     1.0000 0.61660  0.13943  0.49020  Biso   1.000  C
  C170     1.0000 0.38340  0.13943  0.00980  Biso   1.000  C
  C171     1.0000 0.11660  0.63943  0.49020  Biso   1.000  C
  C172     1.0000 0.88340  0.63943  0.00980  Biso   1.000  C
  C173     1.0000 0.38340  0.86057  0.50980  Biso   1.000  C
  C174     1.0000 0.61660  0.86057  0.99020  Biso   1.000  C
  C175     1.0000 0.88340  0.36057  0.50980  Biso   1.000  C
  C176     1.0000 0.11660  0.36057  0.99020  Biso   1.000  C
  H129     1.0000 0.70770  0.14420  0.50470  Biso   1.000  H
  H130     1.0000 0.29230  0.14420  0.99530  Biso   1.000  H
  H131     1.0000 0.20770  0.64420  0.50470  Biso   1.000  H
  H132     1.0000 0.79230  0.64420  0.99530  Biso   1.000  H
  H133     1.0000 0.29230  0.85580  0.49530  Biso   1.000  H
  H134     1.0000 0.70770  0.85580  0.00470  Biso   1.000  H
  H135     1.0000 0.79230  0.35580  0.49530  Biso   1.000  H
  H136     1.0000 0.20770  0.35580  0.00470  Biso   1.000  H
  C177     1.0000 0.56680  0.13205  0.56230  Biso   1.000  C
  C178     1.0000 0.43320  0.13205  0.93770  Biso   1.000  C
  C179     1.0000 0.06680  0.63205  0.56230  Biso   1.000  C
  C180     1.0000 0.93320  0.63205  0.93770  Biso   1.000  C
  C181     1.0000 0.43320  0.86795  0.43770  Biso   1.000  C
  C182     1.0000 0.56680  0.86795  0.06230  Biso   1.000  C
  C183     1.0000 0.93320  0.36795  0.43770  Biso   1.000  C
  C184     1.0000 0.06680  0.36795  0.06230  Biso   1.000  C
  H137     1.0000 0.62450  0.13190  0.62510  Biso   1.000  H
  H138     1.0000 0.37550  0.13190  0.87490  Biso   1.000  H
  H139     1.0000 0.12450  0.63190  0.62510  Biso   1.000  H
  H140     1.0000 0.87550  0.63190  0.87490  Biso   1.000  H
  H141     1.0000 0.37550  0.86810  0.37490  Biso   1.000  H
  H142     1.0000 0.62450  0.86810  0.12510  Biso   1.000  H
  H143     1.0000 0.87550  0.36810  0.37490  Biso   1.000  H
  H144     1.0000 0.12450  0.36810  0.12510  Biso   1.000  H
  C185     1.0000 0.43070  0.12485  0.54060  Biso   1.000  C
  C186     1.0000 0.56930  0.12485  0.95940  Biso   1.000  C
  C187     1.0000 0.93070  0.62485  0.54060  Biso   1.000  C
  C188     1.0000 0.06930  0.62485  0.95940  Biso   1.000  C
  C189     1.0000 0.56930  0.87515  0.45940  Biso   1.000  C
  C190     1.0000 0.43070  0.87515  0.04060  Biso   1.000  C
  C191     1.0000 0.06930  0.37515  0.45940  Biso   1.000  C
  C192     1.0000 0.93070  0.37515  0.04060  Biso   1.000  C
  C193     1.0000 0.34440  0.12500  0.44670  Biso   1.000  C
  C194     1.0000 0.65560  0.12500  0.05330  Biso   1.000  C
  C195     1.0000 0.84440  0.62500  0.44670  Biso   1.000  C
  C196     1.0000 0.15560  0.62500  0.05330  Biso   1.000  C
  C197     1.0000 0.65560  0.87500  0.55330  Biso   1.000  C
  C198     1.0000 0.34440  0.87500  0.94670  Biso   1.000  C
  C199     1.0000 0.15560  0.37500  0.55330  Biso   1.000  C
  C200     1.0000 0.84440  0.37500  0.94670  Biso   1.000  C
  H145     1.0000 0.25330  0.12020  0.43210  Biso   1.000  H
  H146     1.0000 0.74670  0.12020  0.06790  Biso   1.000  H
  H147     1.0000 0.75330  0.62020  0.43210  Biso   1.000  H
  H148     1.0000 0.24670  0.62020  0.06790  Biso   1.000  H
  H149     1.0000 0.74670  0.87980  0.56790  Biso   1.000  H
  H150     1.0000 0.25330  0.87980  0.93210  Biso   1.000  H
  H151     1.0000 0.24670  0.37980  0.56790  Biso   1.000  H
  H152     1.0000 0.75330  0.37980  0.93210  Biso   1.000  H
  C201     1.0000 0.39420  0.13242  0.37450  Biso   1.000  C
  C202     1.0000 0.60580  0.13242  0.12550  Biso   1.000  C
  C203     1.0000 0.89420  0.63242  0.37450  Biso   1.000  C
  C204     1.0000 0.10580  0.63242  0.12550  Biso   1.000  C
  C205     1.0000 0.60580  0.86758  0.62550  Biso   1.000  C
  C206     1.0000 0.39420  0.86758  0.87450  Biso   1.000  C
  C207     1.0000 0.10580  0.36758  0.62550  Biso   1.000  C
  C208     1.0000 0.89420  0.36758  0.87450  Biso   1.000  C
  H153     1.0000 0.33650  0.13250  0.31170  Biso   1.000  H
  H154     1.0000 0.66350  0.13250  0.18830  Biso   1.000  H
  H155     1.0000 0.83650  0.63250  0.31170  Biso   1.000  H
  H156     1.0000 0.16350  0.63250  0.18830  Biso   1.000  H
  H157     1.0000 0.66350  0.86750  0.68830  Biso   1.000  H
  H158     1.0000 0.33650  0.86750  0.81170  Biso   1.000  H
  H159     1.0000 0.16350  0.36750  0.68830  Biso   1.000  H
  H160     1.0000 0.83650  0.36750  0.81170  Biso   1.000  H
  O45      1.0000 0.00000  0.07590  0.25000  Biso   1.000  O
  O46      1.0000 0.50000  0.57590  0.25000  Biso   1.000  O
  O47      1.0000 0.00000  0.92410  0.75000  Biso   1.000  O
  O48      1.0000 0.50000  0.42410  0.75000  Biso   1.000  O
  C209     1.0000 0.11580  0.11260  0.40100  Biso   1.000  C
  C210     1.0000 0.88420  0.11260  0.09900  Biso   1.000  C
  C211     1.0000 0.61580  0.61260  0.40100  Biso   1.000  C
  C212     1.0000 0.38420  0.61260  0.09900  Biso   1.000  C
  C213     1.0000 0.88420  0.88740  0.59900  Biso   1.000  C
  C214     1.0000 0.11580  0.88740  0.90100  Biso   1.000  C
  C215     1.0000 0.38420  0.38740  0.59900  Biso   1.000  C
  C216     1.0000 0.61580  0.38740  0.90100  Biso   1.000  C
  C217     1.0000 0.12390  0.11049  0.49500  Biso   1.000  C
  C218     1.0000 0.87610  0.11049  0.00500  Biso   1.000  C
  C219     1.0000 0.62390  0.61049  0.49500  Biso   1.000  C
  C220     1.0000 0.37610  0.61049  0.00500  Biso   1.000  C
  C221     1.0000 0.87610  0.88951  0.50500  Biso   1.000  C
  C222     1.0000 0.12390  0.88951  0.99500  Biso   1.000  C
  C223     1.0000 0.37610  0.38951  0.50500  Biso   1.000  C
  C224     1.0000 0.62390  0.38951  0.99500  Biso   1.000  C
  C225     1.0000 0.24660  0.11589  0.56760  Biso   1.000  C
  C226     1.0000 0.75340  0.11589  0.93240  Biso   1.000  C
  C227     1.0000 0.74660  0.61589  0.56760  Biso   1.000  C
  C228     1.0000 0.25340  0.61589  0.93240  Biso   1.000  C
  C229     1.0000 0.75340  0.88411  0.43240  Biso   1.000  C
  C230     1.0000 0.24660  0.88411  0.06760  Biso   1.000  C
  C231     1.0000 0.25340  0.38411  0.43240  Biso   1.000  C
  C232     1.0000 0.74660  0.38411  0.06760  Biso   1.000  C
  C233     1.0000 0.36110  0.12340  0.54610  Biso   1.000  C
  C234     1.0000 0.63890  0.12340  0.95390  Biso   1.000  C
  C235     1.0000 0.86110  0.62340  0.54610  Biso   1.000  C
  C236     1.0000 0.13890  0.62340  0.95390  Biso   1.000  C
  C237     1.0000 0.63890  0.87660  0.45390  Biso   1.000  C
  C238     1.0000 0.36110  0.87660  0.04610  Biso   1.000  C
  C239     1.0000 0.13890  0.37660  0.45390  Biso   1.000  C
  C240     1.0000 0.86110  0.37660  0.04610  Biso   1.000  C
  C241     1.0000 0.35300  0.12550  0.45210  Biso   1.000  C
  C242     1.0000 0.64700  0.12550  0.04790  Biso   1.000  C
  C243     1.0000 0.85300  0.62550  0.45210  Biso   1.000  C
  C244     1.0000 0.14700  0.62550  0.04790  Biso   1.000  C
  C245     1.0000 0.64700  0.87450  0.54790  Biso   1.000  C
  C246     1.0000 0.35300  0.87450  0.95210  Biso   1.000  C
  C247     1.0000 0.14700  0.37450  0.54790  Biso   1.000  C
  C248     1.0000 0.85300  0.37450  0.95210  Biso   1.000  C
  C249     1.0000 0.23030  0.12011  0.37950  Biso   1.000  C
  C250     1.0000 0.76970  0.12011  0.12050  Biso   1.000  C
  C251     1.0000 0.73030  0.62011  0.37950  Biso   1.000  C
  C252     1.0000 0.26970  0.62011  0.12050  Biso   1.000  C
  C253     1.0000 0.76970  0.87989  0.62050  Biso   1.000  C
  C254     1.0000 0.23030  0.87989  0.87950  Biso   1.000  C
  C255     1.0000 0.26970  0.37989  0.62050  Biso   1.000  C
  C256     1.0000 0.73030  0.37989  0.87950  Biso   1.000  C
  H161     1.0000 0.04730  0.10550  0.50940  Biso   1.000  H
  H162     1.0000 0.95270  0.10550  0.99060  Biso   1.000  H
  H163     1.0000 0.54730  0.60550  0.50940  Biso   1.000  H
  H164     1.0000 0.45270  0.60550  0.99060  Biso   1.000  H
  H165     1.0000 0.95270  0.89450  0.49060  Biso   1.000  H
  H166     1.0000 0.04730  0.89450  0.00940  Biso   1.000  H
  H167     1.0000 0.45270  0.39450  0.49060  Biso   1.000  H
  H168     1.0000 0.54730  0.39450  0.00940  Biso   1.000  H
  H169     1.0000 0.25210  0.11450  0.63050  Biso   1.000  H
  H170     1.0000 0.74790  0.11450  0.86950  Biso   1.000  H
  H171     1.0000 0.75210  0.61450  0.63050  Biso   1.000  H
  H172     1.0000 0.24790  0.61450  0.86950  Biso   1.000  H
  H173     1.0000 0.74790  0.88550  0.36950  Biso   1.000  H
  H174     1.0000 0.25210  0.88550  0.13050  Biso   1.000  H
  H175     1.0000 0.24790  0.38550  0.36950  Biso   1.000  H
  H176     1.0000 0.75210  0.38550  0.13050  Biso   1.000  H
  H177     1.0000 0.42960  0.13050  0.43770  Biso   1.000  H
  H178     1.0000 0.57040  0.13050  0.06230  Biso   1.000  H
  H179     1.0000 0.92960  0.63050  0.43770  Biso   1.000  H
  H180     1.0000 0.07040  0.63050  0.06230  Biso   1.000  H
  H181     1.0000 0.57040  0.86950  0.56230  Biso   1.000  H
  H182     1.0000 0.42960  0.86950  0.93770  Biso   1.000  H
  H183     1.0000 0.07040  0.36950  0.56230  Biso   1.000  H
  H184     1.0000 0.92960  0.36950  0.93770  Biso   1.000  H
  H185     1.0000 0.22490  0.12150  0.31660  Biso   1.000  H
  H186     1.0000 0.77510  0.12150  0.18340  Biso   1.000  H
  H187     1.0000 0.72490  0.62150  0.31660  Biso   1.000  H
  H188     1.0000 0.27510  0.62150  0.18340  Biso   1.000  H
  H189     1.0000 0.77510  0.87850  0.68340  Biso   1.000  H
  H190     1.0000 0.22490  0.87850  0.81660  Biso   1.000  H
  H191     1.0000 0.27510  0.37850  0.68340  Biso   1.000  H
  H192     1.0000 0.72490  0.37850  0.81660  Biso   1.000  H
  O49      1.0000 0.87500  0.09880  0.35760  Biso   1.000  O
  O50      1.0000 0.12500  0.09880  0.14240  Biso   1.000  O
  O51      1.0000 0.37500  0.59880  0.35760  Biso   1.000  O
  O52      1.0000 0.62500  0.59880  0.14240  Biso   1.000  O
  O53      1.0000 0.12500  0.90120  0.64240  Biso   1.000  O
  O54      1.0000 0.87500  0.90120  0.85760  Biso   1.000  O
  O55      1.0000 0.62500  0.40120  0.64240  Biso   1.000  O
  O56      1.0000 0.37500  0.40120  0.85760  Biso   1.000  O
  O57      1.0000 0.93830  0.14140  0.25500  Biso   1.000  O
  O58      1.0000 0.06170  0.14140  0.24500  Biso   1.000  O
  O59      1.0000 0.43830  0.64140  0.25500  Biso   1.000  O
  O60      1.0000 0.56170  0.64140  0.24500  Biso   1.000  O
  O61      1.0000 0.06170  0.85860  0.74500  Biso   1.000  O
  O62      1.0000 0.93830  0.85860  0.75500  Biso   1.000  O
  O63      1.0000 0.56170  0.35860  0.74500  Biso   1.000  O
  O64      1.0000 0.43830  0.35860  0.75500  Biso   1.000  O
  O65      1.0000 0.47500  0.12750  0.62050  Biso   1.000  O
  O66      1.0000 0.52500  0.12750  0.87950  Biso   1.000  O
  O67      1.0000 0.97500  0.62750  0.62050  Biso   1.000  O
  O68      1.0000 0.02500  0.62750  0.87950  Biso   1.000  O
  O69      1.0000 0.52500  0.87250  0.37950  Biso   1.000  O
  O70      1.0000 0.47500  0.87250  0.12050  Biso   1.000  O
  O71      1.0000 0.02500  0.37250  0.37950  Biso   1.000  O
  O72      1.0000 0.97500  0.37250  0.12050  Biso   1.000  O
  S13      1.0000 0.96220  0.10669  0.30660  Biso   1.000  S
  S14      1.0000 0.03780  0.10669  0.19340  Biso   1.000  S
  S15      1.0000 0.46220  0.60669  0.30660  Biso   1.000  S
  S16      1.0000 0.53780  0.60669  0.19340  Biso   1.000  S
  S17      1.0000 0.03780  0.89331  0.69340  Biso   1.000  S
  S18      1.0000 0.96220  0.89331  0.80660  Biso   1.000  S
  S19      1.0000 0.53780  0.39331  0.69340  Biso   1.000  S
  S20      1.0000 0.46220  0.39331  0.80660  Biso   1.000  S
