data_image0
_cell_length_a       3.8311
_cell_length_b       19.2717
_cell_length_c       12.8018
_cell_angle_alpha    90
_cell_angle_beta     94.004
_cell_angle_gamma    90

_symmetry_space_group_name_H-M    "P 1"
_symmetry_int_tables_number       1

loop_
  _symmetry_equiv_pos_as_xyz
  'x, y, z'

loop_
  _atom_site_label
  _atom_site_occupancy
  _atom_site_fract_x
  _atom_site_fract_y
  _atom_site_fract_z
  _atom_site_thermal_displace_type
  _atom_site_B_iso_or_equiv
  _atom_site_type_symbol
  Cu1      1.0000 0.40810  0.57150  0.97715  Biso   1.000  Cu
  Cu2      1.0000 0.59190  0.07150  0.52285  Biso   1.000  Cu
  Cu3      1.0000 0.59190  0.42850  0.02285  Biso   1.000  Cu
  Cu4      1.0000 0.40810  0.92850  0.47715  Biso   1.000  Cu
  S1       1.0000 0.08930  0.41076  0.92553  Biso   1.000  S
  S2       1.0000 0.91070  0.91076  0.57447  Biso   1.000  S
  S3       1.0000 0.91070  0.58924  0.07447  Biso   1.000  S
  S4       1.0000 0.08930  0.08924  0.42553  Biso   1.000  S
  N1       1.0000 0.44850  0.66150  0.87440  Biso   1.000  N
  N2       1.0000 0.55150  0.16150  0.62560  Biso   1.000  N
  N3       1.0000 0.55150  0.33850  0.12560  Biso   1.000  N
  N4       1.0000 0.44850  0.83850  0.37440  Biso   1.000  N
  N5       1.0000 0.19170  0.53380  0.83760  Biso   1.000  N
  N6       1.0000 0.80830  0.03380  0.66240  Biso   1.000  N
  N7       1.0000 0.80830  0.46620  0.16240  Biso   1.000  N
  N8       1.0000 0.19170  0.96620  0.33760  Biso   1.000  N
  C1       1.0000 0.59800  0.72220  0.89180  Biso   1.000  C
  C2       1.0000 0.40200  0.22220  0.60820  Biso   1.000  C
  C3       1.0000 0.40200  0.27780  0.10820  Biso   1.000  C
  C4       1.0000 0.59800  0.77780  0.39180  Biso   1.000  C
  H1       1.0000 0.69970  0.73150  0.96020  Biso   1.000  H
  H2       1.0000 0.30030  0.23150  0.53980  Biso   1.000  H
  H3       1.0000 0.30030  0.26850  0.03980  Biso   1.000  H
  H4       1.0000 0.69970  0.76850  0.46020  Biso   1.000  H
  C5       1.0000 0.61700  0.77430  0.81570  Biso   1.000  C
  C6       1.0000 0.38300  0.27430  0.68430  Biso   1.000  C
  C7       1.0000 0.38300  0.22570  0.18430  Biso   1.000  C
  C8       1.0000 0.61700  0.72570  0.31570  Biso   1.000  C
  H5       1.0000 0.72370  0.81770  0.83240  Biso   1.000  H
  H6       1.0000 0.27630  0.31770  0.66760  Biso   1.000  H
  H7       1.0000 0.27630  0.18230  0.16760  Biso   1.000  H
  H8       1.0000 0.72370  0.68230  0.33240  Biso   1.000  H
  C9       1.0000 0.47500  0.76060  0.71570  Biso   1.000  C
  C10      1.0000 0.52500  0.26060  0.78430  Biso   1.000  C
  C11      1.0000 0.52500  0.23940  0.28430  Biso   1.000  C
  C12      1.0000 0.47500  0.73940  0.21570  Biso   1.000  C
  H9       1.0000 0.48230  0.79470  0.66240  Biso   1.000  H
  H10      1.0000 0.51770  0.29470  0.83760  Biso   1.000  H
  H11      1.0000 0.51770  0.20530  0.33760  Biso   1.000  H
  H12      1.0000 0.48230  0.70530  0.16240  Biso   1.000  H
  C13      1.0000 0.32020  0.69570  0.69370  Biso   1.000  C
  C14      1.0000 0.67980  0.19570  0.80630  Biso   1.000  C
  C15      1.0000 0.67980  0.30430  0.30630  Biso   1.000  C
  C16      1.0000 0.32020  0.80430  0.19370  Biso   1.000  C
  C17      1.0000 0.31570  0.64770  0.77560  Biso   1.000  C
  C18      1.0000 0.68430  0.14770  0.72440  Biso   1.000  C
  C19      1.0000 0.68430  0.35230  0.22440  Biso   1.000  C
  C20      1.0000 0.31570  0.85230  0.27560  Biso   1.000  C
  C21      1.0000 0.16300  0.67680  0.59300  Biso   1.000  C
  C22      1.0000 0.83700  0.17680  0.90700  Biso   1.000  C
  C23      1.0000 0.83700  0.32320  0.40700  Biso   1.000  C
  C24      1.0000 0.16300  0.82320  0.09300  Biso   1.000  C
  H13      1.0000 0.17410  0.70840  0.53630  Biso   1.000  H
  H14      1.0000 0.82590  0.20840  0.96370  Biso   1.000  H
  H15      1.0000 0.82590  0.29160  0.46370  Biso   1.000  H
  H16      1.0000 0.17410  0.79160  0.03630  Biso   1.000  H
  C25      1.0000 0.00070  0.61520  0.57640  Biso   1.000  C
  C26      1.0000 0.99930  0.11520  0.92360  Biso   1.000  C
  C27      1.0000 0.99930  0.38480  0.42360  Biso   1.000  C
  C28      1.0000 0.00070  0.88480  0.07640  Biso   1.000  C
  H17      1.0000 0.88480  0.60560  0.51000  Biso   1.000  H
  H18      1.0000 0.11520  0.10560  0.99000  Biso   1.000  H
  H19      1.0000 0.11520  0.39440  0.49000  Biso   1.000  H
  H20      1.0000 0.88480  0.89440  0.01000  Biso   1.000  H
  C29      1.0000 0.00050  0.56420  0.65780  Biso   1.000  C
  C30      1.0000 0.99950  0.06420  0.84220  Biso   1.000  C
  C31      1.0000 0.99950  0.43580  0.34220  Biso   1.000  C
  C32      1.0000 0.00050  0.93580  0.15780  Biso   1.000  C
  C33      1.0000 0.16250  0.57950  0.75740  Biso   1.000  C
  C34      1.0000 0.83750  0.07950  0.74260  Biso   1.000  C
  C35      1.0000 0.83750  0.42050  0.24260  Biso   1.000  C
  C36      1.0000 0.16250  0.92050  0.25740  Biso   1.000  C
  C37      1.0000 0.84080  0.49810  0.64690  Biso   1.000  C
  C38      1.0000 0.15920  0.99810  0.85310  Biso   1.000  C
  C39      1.0000 0.15920  0.50190  0.35310  Biso   1.000  C
  C40      1.0000 0.84080  0.00190  0.14690  Biso   1.000  C
  H21      1.0000 0.71770  0.48560  0.58260  Biso   1.000  H
  H22      1.0000 0.28230  0.98560  0.91740  Biso   1.000  H
  H23      1.0000 0.28230  0.51440  0.41740  Biso   1.000  H
  H24      1.0000 0.71770  0.01440  0.08260  Biso   1.000  H
  C41      1.0000 0.86300  0.45270  0.72790  Biso   1.000  C
  C42      1.0000 0.13700  0.95270  0.77210  Biso   1.000  C
  C43      1.0000 0.13700  0.54730  0.27210  Biso   1.000  C
  C44      1.0000 0.86300  0.04730  0.22790  Biso   1.000  C
  H25      1.0000 0.75440  0.40850  0.72000  Biso   1.000  H
  H26      1.0000 0.24560  0.90850  0.78000  Biso   1.000  H
  H27      1.0000 0.24560  0.59150  0.28000  Biso   1.000  H
  H28      1.0000 0.75440  0.09150  0.22000  Biso   1.000  H
  C45      1.0000 0.04700  0.47030  0.82450  Biso   1.000  C
  C46      1.0000 0.95300  0.97030  0.67550  Biso   1.000  C
  C47      1.0000 0.95300  0.52970  0.17550  Biso   1.000  C
  C48      1.0000 0.04700  0.02970  0.32450  Biso   1.000  C
