data_image0
_cell_length_a       5.7707
_cell_length_b       9.3046
_cell_length_c       10.2559
_cell_angle_alpha    68.583
_cell_angle_beta     83.646
_cell_angle_gamma    89.653

_symmetry_space_group_name_H-M    "P 1"
_symmetry_int_tables_number       1

loop_
  _symmetry_equiv_pos_as_xyz
  'x, y, z'

loop_
  _atom_site_label
  _atom_site_occupancy
  _atom_site_fract_x
  _atom_site_fract_y
  _atom_site_fract_z
  _atom_site_thermal_displace_type
  _atom_site_B_iso_or_equiv
  _atom_site_type_symbol
  Cu1      1.0000 0.38782  0.84423  0.54553  Biso   1.000  Cu
  Cu2      1.0000 0.61218  0.15577  0.45447  Biso   1.000  Cu
  S1       1.0000 0.31796  0.05102  0.65179  Biso   1.000  S
  S2       1.0000 0.68204  0.94898  0.34821  Biso   1.000  S
  C1       1.0000 0.07190  0.11260  0.58360  Biso   1.000  C
  C2       1.0000 0.92810  0.88740  0.41640  Biso   1.000  C
  N1       1.0000 0.90000  0.15330  0.53660  Biso   1.000  N
  N2       1.0000 0.10000  0.84670  0.46340  Biso   1.000  N
  N3       1.0000 0.78400  0.47070  0.89670  Biso   1.000  N
  N4       1.0000 0.21600  0.52930  0.10330  Biso   1.000  N
  C3       1.0000 0.62470  0.42280  0.83670  Biso   1.000  C
  C4       1.0000 0.37530  0.57720  0.16330  Biso   1.000  C
  C5       1.0000 0.49670  0.52730  0.73740  Biso   1.000  C
  C6       1.0000 0.50330  0.47270  0.26260  Biso   1.000  C
  N5       1.0000 0.53620  0.68020  0.69990  Biso   1.000  N
  N6       1.0000 0.46380  0.31980  0.30010  Biso   1.000  N
  C7       1.0000 0.69950  0.72660  0.76060  Biso   1.000  C
  C8       1.0000 0.30050  0.27340  0.23940  Biso   1.000  C
  H1       1.0000 0.73200  0.83170  0.73500  Biso   1.000  H
  H2       1.0000 0.26800  0.16830  0.26500  Biso   1.000  H
  C9       1.0000 0.81960  0.62310  0.85950  Biso   1.000  C
  C10      1.0000 0.18040  0.37690  0.14050  Biso   1.000  C
  H3       1.0000 0.92830  0.65940  0.90170  Biso   1.000  H
  H4       1.0000 0.07170  0.34060  0.09830  Biso   1.000  H
  C11      1.0000 0.59040  0.25090  0.87370  Biso   1.000  C
  C12      1.0000 0.40960  0.74910  0.12630  Biso   1.000  C
  H5       1.0000 0.45530  0.21550  0.94390  Biso   1.000  H
  H6       1.0000 0.54470  0.78450  0.05610  Biso   1.000  H
  H7       1.0000 0.55240  0.23510  0.79000  Biso   1.000  H
  H8       1.0000 0.44760  0.76490  0.21000  Biso   1.000  H
  C13      1.0000 0.77690  0.15460  0.92520  Biso   1.000  C
  C14      1.0000 0.22310  0.84540  0.07480  Biso   1.000  C
  H9       1.0000 0.72960  0.04870  0.94790  Biso   1.000  H
  H10      1.0000 0.27040  0.95130  0.05210  Biso   1.000  H
  H11      1.0000 0.81800  0.16810  0.00830  Biso   1.000  H
  H12      1.0000 0.18200  0.83190  0.99170  Biso   1.000  H
  H13      1.0000 0.90930  0.18180  0.85430  Biso   1.000  H
  H14      1.0000 0.09070  0.81820  0.14570  Biso   1.000  H
  C15      1.0000 0.31340  0.47460  0.67070  Biso   1.000  C
  C16      1.0000 0.68660  0.52540  0.32930  Biso   1.000  C
  H15      1.0000 0.24610  0.56290  0.60590  Biso   1.000  H
  H16      1.0000 0.75390  0.43710  0.39410  Biso   1.000  H
  H17      1.0000 0.19390  0.41460  0.74250  Biso   1.000  H
  H18      1.0000 0.80610  0.58540  0.25750  Biso   1.000  H
  H19      1.0000 0.38250  0.41260  0.62080  Biso   1.000  H
  H20      1.0000 0.61750  0.58740  0.37920  Biso   1.000  H
