data_image0
_cell_length_a       5.8335
_cell_length_b       6.5775
_cell_length_c       16.2995
_cell_angle_alpha    90
_cell_angle_beta     90.976
_cell_angle_gamma    90

_symmetry_space_group_name_H-M    "P 1"
_symmetry_int_tables_number       1

loop_
  _symmetry_equiv_pos_as_xyz
  'x, y, z'

loop_
  _atom_site_label
  _atom_site_occupancy
  _atom_site_fract_x
  _atom_site_fract_y
  _atom_site_fract_z
  _atom_site_thermal_displace_type
  _atom_site_B_iso_or_equiv
  _atom_site_type_symbol
  Cu1      1.0000 0.59919  0.54106  0.94977  Biso   1.000  Cu
  Cu2      1.0000 0.40081  0.04106  0.05023  Biso   1.000  Cu
  S1       1.0000 0.64630  0.18132  0.95431  Biso   1.000  S
  S2       1.0000 0.35370  0.68132  0.04569  Biso   1.000  S
  C1       1.0000 0.90920  0.16370  0.99560  Biso   1.000  C
  C2       1.0000 0.09080  0.66370  0.00440  Biso   1.000  C
  N1       1.0000 0.09180  0.15100  0.02220  Biso   1.000  N
  N2       1.0000 0.90820  0.65100  0.97780  Biso   1.000  N
  Cu3      1.0000 0.35510  0.92667  0.56231  Biso   1.000  Cu
  Cu4      1.0000 0.64490  0.42667  0.43769  Biso   1.000  Cu
  S3       1.0000 0.60098  0.21171  0.55414  Biso   1.000  S
  S4       1.0000 0.39902  0.71171  0.44586  Biso   1.000  S
  C3       1.0000 0.86240  0.10910  0.55840  Biso   1.000  C
  C4       1.0000 0.13760  0.60910  0.44160  Biso   1.000  C
  N3       1.0000 0.04240  0.04060  0.56243  Biso   1.000  N
  N4       1.0000 0.95760  0.54060  0.43757  Biso   1.000  N
  N5       1.0000 0.51220  0.62080  0.82983  Biso   1.000  N
  N6       1.0000 0.48780  0.12080  0.17017  Biso   1.000  N
  C5       1.0000 0.33310  0.55330  0.78440  Biso   1.000  C
  C6       1.0000 0.66690  0.05330  0.21560  Biso   1.000  C
  C7       1.0000 0.29350  0.62870  0.70430  Biso   1.000  C
  C8       1.0000 0.70650  0.12870  0.29570  Biso   1.000  C
  N7       1.0000 0.43060  0.77260  0.67230  Biso   1.000  N
  N8       1.0000 0.56940  0.27260  0.32770  Biso   1.000  N
  C9       1.0000 0.61070  0.83690  0.71870  Biso   1.000  C
  C10      1.0000 0.38930  0.33690  0.28130  Biso   1.000  C
  H1       1.0000 0.70950  0.93440  0.69790  Biso   1.000  H
  H2       1.0000 0.29050  0.43440  0.30210  Biso   1.000  H
  C11      1.0000 0.65000  0.76010  0.79630  Biso   1.000  C
  C12      1.0000 0.35000  0.26010  0.20370  Biso   1.000  C
  H3       1.0000 0.77630  0.80650  0.82640  Biso   1.000  H
  H4       1.0000 0.22370  0.30650  0.17360  Biso   1.000  H
  C13      1.0000 0.18140  0.39550  0.82240  Biso   1.000  C
  C14      1.0000 0.81860  0.89550  0.17760  Biso   1.000  C
  H5       1.0000 0.02260  0.43350  0.81270  Biso   1.000  H
  H6       1.0000 0.97740  0.93350  0.18730  Biso   1.000  H
  H7       1.0000 0.20880  0.39480  0.88130  Biso   1.000  H
  H8       1.0000 0.79120  0.89480  0.11870  Biso   1.000  H
  C15      1.0000 0.21840  0.18300  0.78960  Biso   1.000  C
  C16      1.0000 0.78160  0.68300  0.21040  Biso   1.000  C
  H9       1.0000 0.11440  0.09080  0.81550  Biso   1.000  H
  H10      1.0000 0.88560  0.59080  0.18450  Biso   1.000  H
  H11      1.0000 0.37340  0.14140  0.80120  Biso   1.000  H
  H12      1.0000 0.62660  0.64140  0.19880  Biso   1.000  H
  H13      1.0000 0.19100  0.18190  0.73140  Biso   1.000  H
  H14      1.0000 0.80900  0.68190  0.26860  Biso   1.000  H
  C17      1.0000 0.10060  0.55170  0.65060  Biso   1.000  C
  C18      1.0000 0.89940  0.05170  0.34940  Biso   1.000  C
  H15      1.0000 0.03560  0.66270  0.61990  Biso   1.000  H
  H16      1.0000 0.96440  0.16270  0.38010  Biso   1.000  H
  H17      1.0000 0.98490  0.49200  0.68420  Biso   1.000  H
  H18      1.0000 0.01510  0.99200  0.31580  Biso   1.000  H
  H19      1.0000 0.15790  0.45120  0.61350  Biso   1.000  H
  H20      1.0000 0.84210  0.95120  0.38650  Biso   1.000  H
