data_image0
_cell_length_a       9.319
_cell_length_b       24.533
_cell_length_c       7.371
_cell_angle_alpha    90
_cell_angle_beta     101.13
_cell_angle_gamma    90

_symmetry_space_group_name_H-M    "P 1"
_symmetry_int_tables_number       1

loop_
  _symmetry_equiv_pos_as_xyz
  'x, y, z'

loop_
  _atom_site_label
  _atom_site_occupancy
  _atom_site_fract_x
  _atom_site_fract_y
  _atom_site_fract_z
  _atom_site_thermal_displace_type
  _atom_site_B_iso_or_equiv
  _atom_site_type_symbol
  Ag1      1.0000 0.50000  0.44759  0.25000  Biso   1.000  Ag
  Ag2      1.0000 0.00000  0.94759  0.25000  Biso   1.000  Ag
  Ag3      1.0000 0.50000  0.55241  0.75000  Biso   1.000  Ag
  Ag4      1.0000 0.00000  0.05241  0.75000  Biso   1.000  Ag
  Cu1      1.0000 0.50000  0.13265  0.25000  Biso   1.000  Cu
  Cu2      1.0000 0.00000  0.63265  0.25000  Biso   1.000  Cu
  Cu3      1.0000 0.50000  0.86735  0.75000  Biso   1.000  Cu
  Cu4      1.0000 0.00000  0.36735  0.75000  Biso   1.000  Cu
  N1       1.0000 0.50000  0.05430  0.25000  Biso   1.000  N
  N2       1.0000 0.00000  0.55430  0.25000  Biso   1.000  N
  N3       1.0000 0.50000  0.94570  0.75000  Biso   1.000  N
  N4       1.0000 0.00000  0.44570  0.75000  Biso   1.000  N
  N5       1.0000 0.42390  0.17290  0.02580  Biso   1.000  N
  N6       1.0000 0.57610  0.17290  0.47420  Biso   1.000  N
  N7       1.0000 0.92390  0.67290  0.02580  Biso   1.000  N
  N8       1.0000 0.07610  0.67290  0.47420  Biso   1.000  N
  N9       1.0000 0.57610  0.82710  0.97420  Biso   1.000  N
  N10      1.0000 0.42390  0.82710  0.52580  Biso   1.000  N
  N11      1.0000 0.07610  0.32710  0.97420  Biso   1.000  N
  N12      1.0000 0.92390  0.32710  0.52580  Biso   1.000  N
  C1       1.0000 0.50000  0.00850  0.25000  Biso   1.000  C
  C2       1.0000 0.00000  0.50850  0.25000  Biso   1.000  C
  C3       1.0000 0.50000  0.99150  0.75000  Biso   1.000  C
  C4       1.0000 0.00000  0.49150  0.75000  Biso   1.000  C
  C5       1.0000 0.50000  0.95010  0.25000  Biso   1.000  C
  C6       1.0000 0.00000  0.45010  0.25000  Biso   1.000  C
  C7       1.0000 0.50000  0.04990  0.75000  Biso   1.000  C
  C8       1.0000 0.00000  0.54990  0.75000  Biso   1.000  C
  C9       1.0000 0.35680  0.19310  0.89900  Biso   1.000  C
  C10      1.0000 0.64320  0.19310  0.60100  Biso   1.000  C
  C11      1.0000 0.85680  0.69310  0.89900  Biso   1.000  C
  C12      1.0000 0.14320  0.69310  0.60100  Biso   1.000  C
  C13      1.0000 0.64320  0.80690  0.10100  Biso   1.000  C
  C14      1.0000 0.35680  0.80690  0.39900  Biso   1.000  C
  C15      1.0000 0.14320  0.30690  0.10100  Biso   1.000  C
  C16      1.0000 0.85680  0.30690  0.39900  Biso   1.000  C
  C17      1.0000 0.27000  0.21900  0.73700  Biso   1.000  C
  C18      1.0000 0.73000  0.21900  0.76300  Biso   1.000  C
  C19      1.0000 0.77000  0.71900  0.73700  Biso   1.000  C
  C20      1.0000 0.23000  0.71900  0.76300  Biso   1.000  C
  C21      1.0000 0.73000  0.78100  0.26300  Biso   1.000  C
  C22      1.0000 0.27000  0.78100  0.23700  Biso   1.000  C
  C23      1.0000 0.23000  0.28100  0.26300  Biso   1.000  C
  C24      1.0000 0.77000  0.28100  0.23700  Biso   1.000  C
  B1       1.0000 0.40600  0.40590  0.91600  Biso   1.000  B
  B2       1.0000 0.59400  0.40590  0.58400  Biso   1.000  B
  B3       1.0000 0.90600  0.90590  0.91600  Biso   1.000  B
  B4       1.0000 0.09400  0.90590  0.58400  Biso   1.000  B
  B5       1.0000 0.59400  0.59410  0.08400  Biso   1.000  B
  B6       1.0000 0.40600  0.59410  0.41600  Biso   1.000  B
  B7       1.0000 0.09400  0.09410  0.08400  Biso   1.000  B
  B8       1.0000 0.90600  0.09410  0.41600  Biso   1.000  B
  B9       1.0000 0.57800  0.40630  0.96700  Biso   1.000  B
  B10      1.0000 0.42200  0.40630  0.53300  Biso   1.000  B
  B11      1.0000 0.07800  0.90630  0.96700  Biso   1.000  B
  B12      1.0000 0.92200  0.90630  0.53300  Biso   1.000  B
  B13      1.0000 0.42200  0.59370  0.03300  Biso   1.000  B
  B14      1.0000 0.57800  0.59370  0.46700  Biso   1.000  B
  B15      1.0000 0.92200  0.09370  0.03300  Biso   1.000  B
  B16      1.0000 0.07800  0.09370  0.46700  Biso   1.000  B
  B17      1.0000 0.49410  0.34730  0.87120  Biso   1.000  B
  B18      1.0000 0.50590  0.34730  0.62880  Biso   1.000  B
  B19      1.0000 0.99410  0.84730  0.87120  Biso   1.000  B
  B20      1.0000 0.00590  0.84730  0.62880  Biso   1.000  B
  B21      1.0000 0.50590  0.65270  0.12880  Biso   1.000  B
  B22      1.0000 0.49410  0.65270  0.37120  Biso   1.000  B
  B23      1.0000 0.00590  0.15270  0.12880  Biso   1.000  B
  B24      1.0000 0.99410  0.15270  0.37120  Biso   1.000  B
  B25      1.0000 0.34640  0.37590  0.70310  Biso   1.000  B
  B26      1.0000 0.65360  0.37590  0.79690  Biso   1.000  B
  B27      1.0000 0.84640  0.87590  0.70310  Biso   1.000  B
  B28      1.0000 0.15360  0.87590  0.79690  Biso   1.000  B
  B29      1.0000 0.65360  0.62410  0.29690  Biso   1.000  B
  B30      1.0000 0.34640  0.62410  0.20310  Biso   1.000  B
  B31      1.0000 0.15360  0.12410  0.29690  Biso   1.000  B
  B32      1.0000 0.84640  0.12410  0.20310  Biso   1.000  B
  B33      1.0000 0.41100  0.44500  0.72400  Biso   1.000  B
  B34      1.0000 0.58900  0.44500  0.77600  Biso   1.000  B
  B35      1.0000 0.91100  0.94500  0.72400  Biso   1.000  B
  B36      1.0000 0.08900  0.94500  0.77600  Biso   1.000  B
  B37      1.0000 0.58900  0.55500  0.27600  Biso   1.000  B
  B38      1.0000 0.41100  0.55500  0.22400  Biso   1.000  B
  B39      1.0000 0.08900  0.05500  0.27600  Biso   1.000  B
  B40      1.0000 0.91100  0.05500  0.22400  Biso   1.000  B
  H1       1.0000 0.33400  0.41600  0.00000  Biso   1.000  H
  H2       1.0000 0.66600  0.41600  0.50000  Biso   1.000  H
  H3       1.0000 0.83400  0.91600  0.00000  Biso   1.000  H
  H4       1.0000 0.16600  0.91600  0.50000  Biso   1.000  H
  H5       1.0000 0.66600  0.58400  0.00000  Biso   1.000  H
  H6       1.0000 0.33400  0.58400  0.50000  Biso   1.000  H
  H7       1.0000 0.16600  0.08400  0.00000  Biso   1.000  H
  H8       1.0000 0.83400  0.08400  0.50000  Biso   1.000  H
  H9       1.0000 0.63000  0.40300  0.11000  Biso   1.000  H
  H10      1.0000 0.37000  0.40300  0.39000  Biso   1.000  H
  H11      1.0000 0.13000  0.90300  0.11000  Biso   1.000  H
  H12      1.0000 0.87000  0.90300  0.39000  Biso   1.000  H
  H13      1.0000 0.37000  0.59700  0.89000  Biso   1.000  H
  H14      1.0000 0.63000  0.59700  0.61000  Biso   1.000  H
  H15      1.0000 0.87000  0.09700  0.89000  Biso   1.000  H
  H16      1.0000 0.13000  0.09700  0.61000  Biso   1.000  H
  H17      1.0000 0.48600  0.31000  0.95100  Biso   1.000  H
  H18      1.0000 0.51400  0.31000  0.54900  Biso   1.000  H
  H19      1.0000 0.98600  0.81000  0.95100  Biso   1.000  H
  H20      1.0000 0.01400  0.81000  0.54900  Biso   1.000  H
  H21      1.0000 0.51400  0.69000  0.04900  Biso   1.000  H
  H22      1.0000 0.48600  0.69000  0.45100  Biso   1.000  H
  H23      1.0000 0.01400  0.19000  0.04900  Biso   1.000  H
  H24      1.0000 0.98600  0.19000  0.45100  Biso   1.000  H
  H25      1.0000 0.23500  0.36000  0.66300  Biso   1.000  H
  H26      1.0000 0.76500  0.36000  0.83700  Biso   1.000  H
  H27      1.0000 0.73500  0.86000  0.66300  Biso   1.000  H
  H28      1.0000 0.26500  0.86000  0.83700  Biso   1.000  H
  H29      1.0000 0.76500  0.64000  0.33700  Biso   1.000  H
  H30      1.0000 0.23500  0.64000  0.16300  Biso   1.000  H
  H31      1.0000 0.26500  0.14000  0.33700  Biso   1.000  H
  H32      1.0000 0.73500  0.14000  0.16300  Biso   1.000  H
  H33      1.0000 0.35000  0.48400  0.76000  Biso   1.000  H
  H34      1.0000 0.65000  0.48400  0.74000  Biso   1.000  H
  H35      1.0000 0.85000  0.98400  0.76000  Biso   1.000  H
  H36      1.0000 0.15000  0.98400  0.74000  Biso   1.000  H
  H37      1.0000 0.65000  0.51600  0.24000  Biso   1.000  H
  H38      1.0000 0.35000  0.51600  0.26000  Biso   1.000  H
  H39      1.0000 0.15000  0.01600  0.24000  Biso   1.000  H
  H40      1.0000 0.85000  0.01600  0.26000  Biso   1.000  H
  H41      1.0000 0.41100  0.93700  0.27500  Biso   1.000  H
  H42      1.0000 0.58900  0.93700  0.22500  Biso   1.000  H
  H43      1.0000 0.91100  0.43700  0.27500  Biso   1.000  H
  H44      1.0000 0.08900  0.43700  0.22500  Biso   1.000  H
  H45      1.0000 0.58900  0.06300  0.72500  Biso   1.000  H
  H46      1.0000 0.41100  0.06300  0.77500  Biso   1.000  H
  H47      1.0000 0.08900  0.56300  0.72500  Biso   1.000  H
  H48      1.0000 0.91100  0.56300  0.77500  Biso   1.000  H
  H49      1.0000 0.50800  0.93700  0.37400  Biso   1.000  H
  H50      1.0000 0.49200  0.93700  0.12600  Biso   1.000  H
  H51      1.0000 0.00800  0.43700  0.37400  Biso   1.000  H
  H52      1.0000 0.99200  0.43700  0.12600  Biso   1.000  H
  H53      1.0000 0.49200  0.06300  0.62600  Biso   1.000  H
  H54      1.0000 0.50800  0.06300  0.87400  Biso   1.000  H
  H55      1.0000 0.99200  0.56300  0.62600  Biso   1.000  H
  H56      1.0000 0.00800  0.56300  0.87400  Biso   1.000  H
  H57      1.0000 0.58200  0.93700  0.20000  Biso   1.000  H
  H58      1.0000 0.41800  0.93700  0.30000  Biso   1.000  H
  H59      1.0000 0.08200  0.43700  0.20000  Biso   1.000  H
  H60      1.0000 0.91800  0.43700  0.30000  Biso   1.000  H
  H61      1.0000 0.41800  0.06300  0.80000  Biso   1.000  H
  H62      1.0000 0.58200  0.06300  0.70000  Biso   1.000  H
  H63      1.0000 0.91800  0.56300  0.80000  Biso   1.000  H
  H64      1.0000 0.08200  0.56300  0.70000  Biso   1.000  H
  H65      1.0000 0.27300  0.19700  0.63000  Biso   1.000  H
  H66      1.0000 0.72700  0.19700  0.87000  Biso   1.000  H
  H67      1.0000 0.77300  0.69700  0.63000  Biso   1.000  H
  H68      1.0000 0.22700  0.69700  0.87000  Biso   1.000  H
  H69      1.0000 0.72700  0.80300  0.37000  Biso   1.000  H
  H70      1.0000 0.27300  0.80300  0.13000  Biso   1.000  H
  H71      1.0000 0.22700  0.30300  0.37000  Biso   1.000  H
  H72      1.0000 0.77300  0.30300  0.13000  Biso   1.000  H
  H73      1.0000 0.31000  0.25500  0.72100  Biso   1.000  H
  H74      1.0000 0.69000  0.25500  0.77900  Biso   1.000  H
  H75      1.0000 0.81000  0.75500  0.72100  Biso   1.000  H
  H76      1.0000 0.19000  0.75500  0.77900  Biso   1.000  H
  H77      1.0000 0.69000  0.74500  0.27900  Biso   1.000  H
  H78      1.0000 0.31000  0.74500  0.22100  Biso   1.000  H
  H79      1.0000 0.19000  0.24500  0.27900  Biso   1.000  H
  H80      1.0000 0.81000  0.24500  0.22100  Biso   1.000  H
  H81      1.0000 0.17100  0.22300  0.75300  Biso   1.000  H
  H82      1.0000 0.82900  0.22300  0.74700  Biso   1.000  H
  H83      1.0000 0.67100  0.72300  0.75300  Biso   1.000  H
  H84      1.0000 0.32900  0.72300  0.74700  Biso   1.000  H
  H85      1.0000 0.82900  0.77700  0.24700  Biso   1.000  H
  H86      1.0000 0.17100  0.77700  0.25300  Biso   1.000  H
  H87      1.0000 0.32900  0.27700  0.24700  Biso   1.000  H
  H88      1.0000 0.67100  0.27700  0.25300  Biso   1.000  H
