data_image0
_cell_length_a       15.3889
_cell_length_b       16.1548
_cell_length_c       16.9597
_cell_angle_alpha    62.249
_cell_angle_beta     75.535
_cell_angle_gamma    73.918

_symmetry_space_group_name_H-M    "P 1"
_symmetry_int_tables_number       1

loop_
  _symmetry_equiv_pos_as_xyz
  'x, y, z'

loop_
  _atom_site_label
  _atom_site_occupancy
  _atom_site_fract_x
  _atom_site_fract_y
  _atom_site_fract_z
  _atom_site_thermal_displace_type
  _atom_site_B_iso_or_equiv
  _atom_site_type_symbol
  Cu1      1.0000 0.74383  0.69082  0.42070  Biso   1.000  Cu
  Cu2      1.0000 0.25617  0.30918  0.57930  Biso   1.000  Cu
  Cu3      1.0000 0.25009  0.93935  0.18119  Biso   1.000  Cu
  Cu4      1.0000 0.74991  0.06065  0.81881  Biso   1.000  Cu
  N1       1.0000 0.80520  0.67060  0.30990  Biso   1.000  N
  N2       1.0000 0.19480  0.32940  0.69010  Biso   1.000  N
  C1       1.0000 0.84170  0.66020  0.24720  Biso   1.000  C
  C2       1.0000 0.15830  0.33980  0.75280  Biso   1.000  C
  C3       1.0000 0.88490  0.64450  0.16970  Biso   1.000  C
  C4       1.0000 0.11510  0.35550  0.83030  Biso   1.000  C
  C5       1.0000 0.97210  0.58860  0.16460  Biso   1.000  C
  C6       1.0000 0.02790  0.41140  0.83540  Biso   1.000  C
  C7       1.0000 0.00930  0.57560  0.08900  Biso   1.000  C
  C8       1.0000 0.99070  0.42440  0.91100  Biso   1.000  C
  C9       1.0000 0.96300  0.61740  0.01560  Biso   1.000  C
  C10      1.0000 0.03700  0.38260  0.98440  Biso   1.000  C
  C11      1.0000 0.87730  0.67210  0.02010  Biso   1.000  C
  C12      1.0000 0.12270  0.32790  0.97990  Biso   1.000  C
  C13      1.0000 0.83820  0.68680  0.09570  Biso   1.000  C
  C14      1.0000 0.16180  0.31320  0.90430  Biso   1.000  C
  O1       1.0000 0.75420  0.74030  0.10720  Biso   1.000  O
  O2       1.0000 0.24580  0.25970  0.89280  Biso   1.000  O
  C15      1.0000 0.69990  0.78380  0.03410  Biso   1.000  C
  C16      1.0000 0.30010  0.21620  0.96590  Biso   1.000  C
  C17      1.0000 0.61630  0.84290  0.06340  Biso   1.000  C
  C18      1.0000 0.38370  0.15710  0.93660  Biso   1.000  C
  C19      1.0000 0.63960  0.92260  0.07240  Biso   1.000  C
  C20      1.0000 0.36040  0.07740  0.92760  Biso   1.000  C
  O3       1.0000 0.55650  0.96970  0.10460  Biso   1.000  O
  O4       1.0000 0.44350  0.03030  0.89540  Biso   1.000  O
  C21      1.0000 0.56010  0.04350  0.11980  Biso   1.000  C
  C22      1.0000 0.43990  0.95650  0.88020  Biso   1.000  C
  C23      1.0000 0.63750  0.08110  0.10250  Biso   1.000  C
  C24      1.0000 0.36250  0.91890  0.89750  Biso   1.000  C
  C25      1.0000 0.63040  0.15780  0.12090  Biso   1.000  C
  C26      1.0000 0.36960  0.84220  0.87910  Biso   1.000  C
  C27      1.0000 0.54800  0.19700  0.15570  Biso   1.000  C
  C28      1.0000 0.45200  0.80300  0.84430  Biso   1.000  C
  C29      1.0000 0.46980  0.16170  0.17440  Biso   1.000  C
  C30      1.0000 0.53020  0.83830  0.82560  Biso   1.000  C
  C31      1.0000 0.47680  0.08480  0.15510  Biso   1.000  C
  C32      1.0000 0.52320  0.91520  0.84490  Biso   1.000  C
  C33      1.0000 0.39850  0.04400  0.17070  Biso   1.000  C
  C34      1.0000 0.60150  0.95600  0.82930  Biso   1.000  C
  N3       1.0000 0.33840  0.01040  0.18040  Biso   1.000  N
  N4       1.0000 0.66160  0.98960  0.81960  Biso   1.000  N
  N5       1.0000 0.16260  0.90560  0.29550  Biso   1.000  N
  N6       1.0000 0.83740  0.09440  0.70450  Biso   1.000  N
  C35      1.0000 0.10780  0.89980  0.35540  Biso   1.000  C
  C36      1.0000 0.89220  0.10020  0.64460  Biso   1.000  C
  C37      1.0000 0.03880  0.89410  0.43160  Biso   1.000  C
  C38      1.0000 0.96120  0.10590  0.56840  Biso   1.000  C
  C39      1.0000 0.06120  0.87710  0.51270  Biso   1.000  C
  C40      1.0000 0.93880  0.12290  0.48730  Biso   1.000  C
  C41      1.0000 0.99270  0.87350  0.58370  Biso   1.000  C
  C42      1.0000 0.00730  0.12650  0.41630  Biso   1.000  C
  C43      1.0000 0.90300  0.88510  0.57450  Biso   1.000  C
  C44      1.0000 0.09700  0.11490  0.42550  Biso   1.000  C
  C45      1.0000 0.87980  0.90320  0.49360  Biso   1.000  C
  C46      1.0000 0.12020  0.09680  0.50640  Biso   1.000  C
  C47      1.0000 0.94750  0.90790  0.42110  Biso   1.000  C
  C48      1.0000 0.05250  0.09210  0.57890  Biso   1.000  C
  O5       1.0000 0.93370  0.92600  0.33790  Biso   1.000  O
  O6       1.0000 0.06630  0.07400  0.66210  Biso   1.000  O
  C49      1.0000 0.84560  0.92300  0.32700  Biso   1.000  C
  C50      1.0000 0.15440  0.07700  0.67300  Biso   1.000  C
  C51      1.0000 0.85170  0.94500  0.22630  Biso   1.000  C
  C52      1.0000 0.14830  0.05500  0.77370  Biso   1.000  C
  C53      1.0000 0.93370  0.88980  0.19520  Biso   1.000  C
  C54      1.0000 0.06630  0.11020  0.80480  Biso   1.000  C
  O7       1.0000 0.92540  0.90900  0.10410  Biso   1.000  O
  O8       1.0000 0.07460  0.09100  0.89590  Biso   1.000  O
  C55      1.0000 0.99510  0.86600  0.06300  Biso   1.000  C
  C56      1.0000 0.00490  0.13400  0.93700  Biso   1.000  C
  C57      1.0000 0.08180  0.81040  0.09640  Biso   1.000  C
  C58      1.0000 0.91820  0.18960  0.90360  Biso   1.000  C
  C59      1.0000 0.14190  0.77350  0.04330  Biso   1.000  C
  C60      1.0000 0.85810  0.22650  0.95670  Biso   1.000  C
  C61      1.0000 0.13080  0.77930  0.96530  Biso   1.000  C
  C62      1.0000 0.86920  0.22070  0.03470  Biso   1.000  C
  C63      1.0000 0.04930  0.83140  0.93480  Biso   1.000  C
  C64      1.0000 0.95070  0.16860  0.06520  Biso   1.000  C
  C65      1.0000 0.98180  0.87450  0.98300  Biso   1.000  C
  C66      1.0000 0.01820  0.12550  0.01700  Biso   1.000  C
  C67      1.0000 0.89860  0.93280  0.94410  Biso   1.000  C
  C68      1.0000 0.10140  0.06720  0.05590  Biso   1.000  C
  N7       1.0000 0.83650  0.97650  0.90890  Biso   1.000  N
  N8       1.0000 0.16350  0.02350  0.09110  Biso   1.000  N
  N9       1.0000 0.65900  0.60120  0.50290  Biso   1.000  N
  N10      1.0000 0.34100  0.39880  0.49710  Biso   1.000  N
  C69      1.0000 0.60250  0.56020  0.55160  Biso   1.000  C
  C70      1.0000 0.39750  0.43980  0.44840  Biso   1.000  C
  C71      1.0000 0.53130  0.51160  0.61300  Biso   1.000  C
  C72      1.0000 0.46870  0.48840  0.38700  Biso   1.000  C
  C73      1.0000 0.46470  0.55550  0.66180  Biso   1.000  C
  C74      1.0000 0.53530  0.44450  0.33820  Biso   1.000  C
  C75      1.0000 0.39440  0.51200  0.71870  Biso   1.000  C
  C76      1.0000 0.60560  0.48800  0.28130  Biso   1.000  C
  C77      1.0000 0.39220  0.42400  0.72500  Biso   1.000  C
  C78      1.0000 0.60780  0.57600  0.27500  Biso   1.000  C
  C79      1.0000 0.45480  0.38120  0.68200  Biso   1.000  C
  C80      1.0000 0.54520  0.61880  0.31800  Biso   1.000  C
  C81      1.0000 0.53030  0.42190  0.62160  Biso   1.000  C
  C82      1.0000 0.46970  0.57810  0.37840  Biso   1.000  C
  O9       1.0000 0.59590  0.39020  0.56880  Biso   1.000  O
  O10      1.0000 0.40410  0.60980  0.43120  Biso   1.000  O
  C83      1.0000 0.58600  0.28300  0.60700  Biso   1.000  C
  C84      1.0000 0.41400  0.71700  0.39300  Biso   1.000  C
  C85      1.0000 0.65500  0.25200  0.55500  Biso   1.000  C
  C86      1.0000 0.34500  0.74800  0.44500  Biso   1.000  C
  C87      1.0000 0.66350  0.14530  0.57950  Biso   1.000  C
  C88      1.0000 0.33650  0.85470  0.42050  Biso   1.000  C
  O11      1.0000 0.57140  0.13380  0.58820  Biso   1.000  O
  O12      1.0000 0.42860  0.86620  0.41180  Biso   1.000  O
  C89      1.0000 0.56050  0.04900  0.59670  Biso   1.000  C
  C90      1.0000 0.43950  0.95100  0.40330  Biso   1.000  C
  C91      1.0000 0.62900  0.97510  0.59520  Biso   1.000  C
  C92      1.0000 0.37100  0.02490  0.40480  Biso   1.000  C
  C93      1.0000 0.60830  0.89210  0.60420  Biso   1.000  C
  C94      1.0000 0.39170  0.10790  0.39580  Biso   1.000  C
  C95      1.0000 0.51960  0.88320  0.61470  Biso   1.000  C
  C96      1.0000 0.48040  0.11680  0.38530  Biso   1.000  C
  C97      1.0000 0.44940  0.95600  0.61820  Biso   1.000  C
  C98      1.0000 0.55060  0.04400  0.38180  Biso   1.000  C
  C99      1.0000 0.46900  0.04090  0.60860  Biso   1.000  C
  C100     1.0000 0.53100  0.95910  0.39140  Biso   1.000  C
  C101     1.0000 0.39740  0.11950  0.60870  Biso   1.000  C
  C102     1.0000 0.60260  0.88050  0.39130  Biso   1.000  C
  N11      1.0000 0.34070  0.18300  0.60660  Biso   1.000  N
  N12      1.0000 0.65930  0.81700  0.39340  Biso   1.000  N
  N13      1.0000 0.32270  0.83050  0.15450  Biso   1.000  N
  N14      1.0000 0.67730  0.16950  0.84550  Biso   1.000  N
  C103     1.0000 0.36100  0.76650  0.14070  Biso   1.000  C
  C104     1.0000 0.63900  0.23350  0.85930  Biso   1.000  C
  C105     1.0000 0.40820  0.68450  0.12330  Biso   1.000  C
  C106     1.0000 0.59180  0.31550  0.87670  Biso   1.000  C
  C107     1.0000 0.48960  0.68450  0.06560  Biso   1.000  C
  C108     1.0000 0.51040  0.31550  0.93440  Biso   1.000  C
  C109     1.0000 0.53360  0.60480  0.05130  Biso   1.000  C
  C110     1.0000 0.46640  0.39520  0.94870  Biso   1.000  C
  C111     1.0000 0.49400  0.52590  0.09460  Biso   1.000  C
  C112     1.0000 0.50600  0.47410  0.90540  Biso   1.000  C
  C113     1.0000 0.41080  0.52440  0.15060  Biso   1.000  C
  C114     1.0000 0.58920  0.47560  0.84940  Biso   1.000  C
  C115     1.0000 0.36830  0.60310  0.16650  Biso   1.000  C
  C116     1.0000 0.63170  0.39690  0.83350  Biso   1.000  C
  O13      1.0000 0.28750  0.61240  0.22060  Biso   1.000  O
  O14      1.0000 0.71250  0.38760  0.77940  Biso   1.000  O
  C117     1.0000 0.23560  0.53760  0.25190  Biso   1.000  C
  C118     1.0000 0.76440  0.46240  0.74810  Biso   1.000  C
  C119     1.0000 0.14780  0.56830  0.30360  Biso   1.000  C
  C120     1.0000 0.85220  0.43170  0.69640  Biso   1.000  C
  C121     1.0000 0.16420  0.57740  0.38150  Biso   1.000  C
  C122     1.0000 0.83580  0.42260  0.61850  Biso   1.000  C
  O15      1.0000 0.07760  0.60390  0.42870  Biso   1.000  O
  O16      1.0000 0.92240  0.39610  0.57130  Biso   1.000  O
  C123     1.0000 0.07840  0.61160  0.50430  Biso   1.000  C
  C124     1.0000 0.92160  0.38840  0.49570  Biso   1.000  C
  C125     1.0000 0.15680  0.59300  0.54320  Biso   1.000  C
  C126     1.0000 0.84320  0.40700  0.45680  Biso   1.000  C
  C127     1.0000 0.14860  0.60210  0.62140  Biso   1.000  C
  C128     1.0000 0.85140  0.39790  0.37860  Biso   1.000  C
  C129     1.0000 0.06500  0.62940  0.66290  Biso   1.000  C
  C130     1.0000 0.93500  0.37060  0.33710  Biso   1.000  C
  C131     1.0000 0.98670  0.64770  0.62680  Biso   1.000  C
  C132     1.0000 0.01330  0.35230  0.37320  Biso   1.000  C
  C133     1.0000 0.99330  0.63970  0.54820  Biso   1.000  C
  C134     1.0000 0.00670  0.36030  0.45180  Biso   1.000  C
  C135     1.0000 0.91240  0.65760  0.51040  Biso   1.000  C
  C136     1.0000 0.08760  0.34240  0.48960  Biso   1.000  C
  N15      1.0000 0.84720  0.67210  0.48160  Biso   1.000  N
  N16      1.0000 0.15280  0.32790  0.51840  Biso   1.000  N
  P1       1.0000 0.24730  0.78740  0.70330  Biso   1.000  P
  P2       1.0000 0.75270  0.21260  0.29670  Biso   1.000  P
  F1       1.0000 0.26140  0.84750  0.74830  Biso   1.000  F
  F2       1.0000 0.73860  0.15250  0.25170  Biso   1.000  F
  F3       1.0000 0.35130  0.76850  0.66990  Biso   1.000  F
  F4       1.0000 0.64870  0.23150  0.33010  Biso   1.000  F
  F5       1.0000 0.23350  0.73620  0.65010  Biso   1.000  F
  F6       1.0000 0.76650  0.26380  0.34990  Biso   1.000  F
  F7       1.0000 0.14480  0.80680  0.73480  Biso   1.000  F
  F8       1.0000 0.85520  0.19320  0.26520  Biso   1.000  F
  F9       1.0000 0.25600  0.69780  0.78960  Biso   1.000  F
  F10      1.0000 0.74400  0.30220  0.21040  Biso   1.000  F
  F11      1.0000 0.23570  0.88360  0.61400  Biso   1.000  F
  F12      1.0000 0.76430  0.11640  0.38600  Biso   1.000  F
  P3       1.0000 0.22860  0.32950  0.18070  Biso   1.000  P
  P4       1.0000 0.77140  0.67050  0.81930  Biso   1.000  P
  F13      1.0000 0.27220  0.27650  0.12210  Biso   1.000  F
  F14      1.0000 0.72780  0.72350  0.87790  Biso   1.000  F
  F15      1.0000 0.32650  0.34230  0.18100  Biso   1.000  F
  F16      1.0000 0.67350  0.65770  0.81900  Biso   1.000  F
  F17      1.0000 0.17930  0.40270  0.21580  Biso   1.000  F
  F18      1.0000 0.82070  0.59730  0.78420  Biso   1.000  F
  F19      1.0000 0.13020  0.31830  0.18060  Biso   1.000  F
  F20      1.0000 0.86980  0.68170  0.81940  Biso   1.000  F
  F21      1.0000 0.22200  0.42040  0.08530  Biso   1.000  F
  F22      1.0000 0.77800  0.57960  0.91470  Biso   1.000  F
  F23      1.0000 0.23620  0.24310  0.26500  Biso   1.000  F
  F24      1.0000 0.76380  0.75690  0.73500  Biso   1.000  F
  O17      1.0000 0.29000  0.58600  0.98000  Biso   1.000  O
  O18      1.0000 0.71000  0.41400  0.02000  Biso   1.000  O
  H1       1.0000 0.00510  0.55980  0.21420  Biso   1.000  H
  H2       1.0000 0.99490  0.44020  0.78580  Biso   1.000  H
  H3       1.0000 0.06810  0.53710  0.08650  Biso   1.000  H
  H4       1.0000 0.93190  0.46290  0.91350  Biso   1.000  H
  H5       1.0000 0.99000  0.60840  0.96270  Biso   1.000  H
  H6       1.0000 0.01000  0.39160  0.03730  Biso   1.000  H
  H7       1.0000 0.84480  0.70010  0.97020  Biso   1.000  H
  H8       1.0000 0.15520  0.29990  0.02980  Biso   1.000  H
  H9       1.0000 0.68350  0.73630  0.02550  Biso   1.000  H
  H10      1.0000 0.31650  0.26370  0.97450  Biso   1.000  H
  H11      1.0000 0.73270  0.82270  0.97980  Biso   1.000  H
  H12      1.0000 0.26730  0.17730  0.02020  Biso   1.000  H
  H13      1.0000 0.58740  0.80320  0.12000  Biso   1.000  H
  H14      1.0000 0.41260  0.19680  0.88000  Biso   1.000  H
  H15      1.0000 0.57570  0.86950  0.02010  Biso   1.000  H
  H16      1.0000 0.42430  0.13050  0.97990  Biso   1.000  H
  H17      1.0000 0.66500  0.96560  0.01560  Biso   1.000  H
  H18      1.0000 0.33500  0.03440  0.98440  Biso   1.000  H
  H19      1.0000 0.68200  0.89760  0.11390  Biso   1.000  H
  H20      1.0000 0.31800  0.10240  0.88610  Biso   1.000  H
  H21      1.0000 0.69460  0.05440  0.07820  Biso   1.000  H
  H22      1.0000 0.30540  0.94560  0.92180  Biso   1.000  H
  H23      1.0000 0.68310  0.18360  0.10940  Biso   1.000  H
  H24      1.0000 0.31690  0.81640  0.89060  Biso   1.000  H
  H25      1.0000 0.54490  0.25000  0.16720  Biso   1.000  H
  H26      1.0000 0.45510  0.75000  0.83280  Biso   1.000  H
  H27      1.0000 0.41330  0.18860  0.19940  Biso   1.000  H
  H28      1.0000 0.58670  0.81140  0.80060  Biso   1.000  H
  H29      1.0000 0.12310  0.86810  0.51930  Biso   1.000  H
  H30      1.0000 0.87690  0.13190  0.48070  Biso   1.000  H
  H31      1.0000 0.00730  0.86290  0.63920  Biso   1.000  H
  H32      1.0000 0.99270  0.13710  0.36080  Biso   1.000  H
  H33      1.0000 0.85650  0.88060  0.62450  Biso   1.000  H
  H34      1.0000 0.14350  0.11940  0.37550  Biso   1.000  H
  H35      1.0000 0.81760  0.91250  0.48770  Biso   1.000  H
  H36      1.0000 0.18240  0.08750  0.51230  Biso   1.000  H
  H37      1.0000 0.80030  0.96960  0.34120  Biso   1.000  H
  H38      1.0000 0.19970  0.03040  0.65880  Biso   1.000  H
  H39      1.0000 0.83100  0.86170  0.36490  Biso   1.000  H
  H40      1.0000 0.16900  0.13830  0.63510  Biso   1.000  H
  H41      1.0000 0.85260  0.01080  0.19070  Biso   1.000  H
  H42      1.0000 0.14740  0.98920  0.80930  Biso   1.000  H
  H43      1.0000 0.79940  0.93020  0.21900  Biso   1.000  H
  H44      1.0000 0.20060  0.06980  0.78100  Biso   1.000  H
  H45      1.0000 0.93720  0.82380  0.23350  Biso   1.000  H
  H46      1.0000 0.06280  0.17620  0.76650  Biso   1.000  H
  H47      1.0000 0.98680  0.90920  0.19480  Biso   1.000  H
  H48      1.0000 0.01320  0.09080  0.80520  Biso   1.000  H
  H49      1.0000 0.09470  0.80110  0.15220  Biso   1.000  H
  H50      1.0000 0.90530  0.19890  0.84780  Biso   1.000  H
  H51      1.0000 0.19900  0.73910  0.06370  Biso   1.000  H
  H52      1.0000 0.80100  0.26090  0.93630  Biso   1.000  H
  H53      1.0000 0.17660  0.74920  0.93280  Biso   1.000  H
  H54      1.0000 0.82340  0.25080  0.06720  Biso   1.000  H
  H55      1.0000 0.03860  0.83830  0.87910  Biso   1.000  H
  H56      1.0000 0.96140  0.16170  0.12090  Biso   1.000  H
  H57      1.0000 0.46840  0.61620  0.65510  Biso   1.000  H
  H58      1.0000 0.53160  0.38380  0.34490  Biso   1.000  H
  H59      1.0000 0.34910  0.54100  0.75260  Biso   1.000  H
  H60      1.0000 0.65090  0.45900  0.24740  Biso   1.000  H
  H61      1.0000 0.34250  0.39420  0.76230  Biso   1.000  H
  H62      1.0000 0.65750  0.60580  0.23770  Biso   1.000  H
  H63      1.0000 0.45000  0.31990  0.69140  Biso   1.000  H
  H64      1.0000 0.55000  0.68010  0.30860  Biso   1.000  H
  H65      1.0000 0.52830  0.27880  0.59940  Biso   1.000  H
  H66      1.0000 0.47170  0.72120  0.40060  Biso   1.000  H
  H67      1.0000 0.59270  0.24930  0.66910  Biso   1.000  H
  H68      1.0000 0.40730  0.75070  0.33090  Biso   1.000  H
  H69      1.0000 0.71050  0.26120  0.56310  Biso   1.000  H
  H70      1.0000 0.28950  0.73880  0.43690  Biso   1.000  H
  H71      1.0000 0.64560  0.28900  0.49430  Biso   1.000  H
  H72      1.0000 0.35440  0.71100  0.50570  Biso   1.000  H
  H73      1.0000 0.68770  0.10610  0.63450  Biso   1.000  H
  H74      1.0000 0.31230  0.89390  0.36550  Biso   1.000  H
  H75      1.0000 0.70160  0.12980  0.53290  Biso   1.000  H
  H76      1.0000 0.29840  0.87020  0.46710  Biso   1.000  H
  H77      1.0000 0.69080  0.98010  0.58790  Biso   1.000  H
  H78      1.0000 0.30920  0.01990  0.41210  Biso   1.000  H
  H79      1.0000 0.65650  0.84090  0.60320  Biso   1.000  H
  H80      1.0000 0.34350  0.15910  0.39680  Biso   1.000  H
  H81      1.0000 0.50670  0.82670  0.61940  Biso   1.000  H
  H82      1.0000 0.49330  0.17330  0.38060  Biso   1.000  H
  H83      1.0000 0.38780  0.94940  0.62710  Biso   1.000  H
  H84      1.0000 0.61220  0.05060  0.37290  Biso   1.000  H
  H85      1.0000 0.51570  0.74020  0.03530  Biso   1.000  H
  H86      1.0000 0.48430  0.25980  0.96470  Biso   1.000  H
  H87      1.0000 0.58990  0.60480  0.01240  Biso   1.000  H
  H88      1.0000 0.41010  0.39520  0.98760  Biso   1.000  H
  H89      1.0000 0.52440  0.47030  0.08600  Biso   1.000  H
  H90      1.0000 0.47560  0.52970  0.91400  Biso   1.000  H
  H91      1.0000 0.38360  0.46950  0.17760  Biso   1.000  H
  H92      1.0000 0.61640  0.53050  0.82240  Biso   1.000  H
  H93      1.0000 0.26790  0.47840  0.29000  Biso   1.000  H
  H94      1.0000 0.73210  0.52160  0.71000  Biso   1.000  H
  H95      1.0000 0.22340  0.53220  0.20240  Biso   1.000  H
  H96      1.0000 0.77660  0.46780  0.79760  Biso   1.000  H
  H97      1.0000 0.11010  0.52230  0.32490  Biso   1.000  H
  H98      1.0000 0.88990  0.47770  0.67510  Biso   1.000  H
  H99      1.0000 0.11740  0.62820  0.26420  Biso   1.000  H
  H100     1.0000 0.88260  0.37180  0.73580  Biso   1.000  H
  H101     1.0000 0.19990  0.62500  0.36090  Biso   1.000  H
  H102     1.0000 0.80010  0.37500  0.63910  Biso   1.000  H
  H103     1.0000 0.19570  0.51830  0.42080  Biso   1.000  H
  H104     1.0000 0.80430  0.48170  0.57920  Biso   1.000  H
  H105     1.0000 0.21540  0.57400  0.51510  Biso   1.000  H
  H106     1.0000 0.78460  0.42600  0.48490  Biso   1.000  H
  H107     1.0000 0.20180  0.58930  0.64710  Biso   1.000  H
  H108     1.0000 0.79820  0.41070  0.35290  Biso   1.000  H
  H109     1.0000 0.06050  0.63580  0.71680  Biso   1.000  H
  H110     1.0000 0.93950  0.36420  0.28320  Biso   1.000  H
  H111     1.0000 0.92860  0.66580  0.65620  Biso   1.000  H
  H112     1.0000 0.07140  0.33420  0.34380  Biso   1.000  H
