data_image0
_cell_length_a       9.5388
_cell_length_b       12.6589
_cell_length_c       21.4
_cell_angle_alpha    90
_cell_angle_beta     98.539
_cell_angle_gamma    90

_symmetry_space_group_name_H-M    "P 1"
_symmetry_int_tables_number       1

loop_
  _symmetry_equiv_pos_as_xyz
  'x, y, z'

loop_
  _atom_site_label
  _atom_site_occupancy
  _atom_site_fract_x
  _atom_site_fract_y
  _atom_site_fract_z
  _atom_site_thermal_displace_type
  _atom_site_B_iso_or_equiv
  _atom_site_type_symbol
  Gd1      1.0000 0.23187  0.47896  0.49569  Biso   1.000  Gd
  Gd2      1.0000 0.76813  0.97896  0.00431  Biso   1.000  Gd
  Gd3      1.0000 0.76813  0.52104  0.50431  Biso   1.000  Gd
  Gd4      1.0000 0.23187  0.02104  0.99569  Biso   1.000  Gd
  Cu1      1.0000 0.48905  0.83009  0.73655  Biso   1.000  Cu
  Cu2      1.0000 0.51095  0.33009  0.76345  Biso   1.000  Cu
  Cu3      1.0000 0.51095  0.16991  0.26345  Biso   1.000  Cu
  Cu4      1.0000 0.48905  0.66991  0.23655  Biso   1.000  Cu
  Cu5      1.0000 0.36048  0.94260  0.37544  Biso   1.000  Cu
  Cu6      1.0000 0.63952  0.44260  0.12456  Biso   1.000  Cu
  Cu7      1.0000 0.63952  0.05740  0.62456  Biso   1.000  Cu
  Cu8      1.0000 0.36048  0.55740  0.87544  Biso   1.000  Cu
  Cu9      1.0000 0.49387  0.89319  0.26759  Biso   1.000  Cu
  Cu10     1.0000 0.50613  0.39319  0.23241  Biso   1.000  Cu
  Cu11     1.0000 0.50613  0.10681  0.73241  Biso   1.000  Cu
  Cu12     1.0000 0.49387  0.60681  0.76759  Biso   1.000  Cu
  Cl1      1.0000 0.50190  0.78416  0.35562  Biso   1.000  Cl
  Cl2      1.0000 0.49810  0.28416  0.14438  Biso   1.000  Cl
  Cl3      1.0000 0.49810  0.21584  0.64438  Biso   1.000  Cl
  Cl4      1.0000 0.50190  0.71584  0.85562  Biso   1.000  Cl
  Cl5      1.0000 0.64150  0.96293  0.75062  Biso   1.000  Cl
  Cl6      1.0000 0.35850  0.46293  0.74938  Biso   1.000  Cl
  Cl7      1.0000 0.35850  0.03707  0.24938  Biso   1.000  Cl
  Cl8      1.0000 0.64150  0.53707  0.25062  Biso   1.000  Cl
  Cl9      1.0000 0.62360  0.68044  0.69970  Biso   1.000  Cl
  Cl10     1.0000 0.37640  0.18044  0.80030  Biso   1.000  Cl
  Cl11     1.0000 0.37640  0.31956  0.30030  Biso   1.000  Cl
  Cl12     1.0000 0.62360  0.81956  0.19970  Biso   1.000  Cl
  O1       1.0000 0.15620  0.57330  0.58100  Biso   1.000  O
  O2       1.0000 0.84380  0.07330  0.91900  Biso   1.000  O
  O3       1.0000 0.84380  0.42670  0.41900  Biso   1.000  O
  O4       1.0000 0.15620  0.92670  0.08100  Biso   1.000  O
  O5       1.0000 0.39800  0.44420  0.59790  Biso   1.000  O
  O6       1.0000 0.60200  0.94420  0.90210  Biso   1.000  O
  O7       1.0000 0.60200  0.55580  0.40210  Biso   1.000  O
  O8       1.0000 0.39800  0.05580  0.09790  Biso   1.000  O
  H1       1.0000 0.36450  0.46960  0.62940  Biso   1.000  H
  H2       1.0000 0.63550  0.96960  0.87060  Biso   1.000  H
  H3       1.0000 0.63550  0.53040  0.37060  Biso   1.000  H
  H4       1.0000 0.36450  0.03040  0.12940  Biso   1.000  H
  H5       1.0000 0.40780  0.38000  0.60940  Biso   1.000  H
  H6       1.0000 0.59220  0.88000  0.89060  Biso   1.000  H
  H7       1.0000 0.59220  0.62000  0.39060  Biso   1.000  H
  H8       1.0000 0.40780  0.12000  0.10940  Biso   1.000  H
  O9       1.0000 0.92900  0.61460  0.58040  Biso   1.000  O
  O10      1.0000 0.07100  0.11460  0.91960  Biso   1.000  O
  O11      1.0000 0.07100  0.38540  0.41960  Biso   1.000  O
  O12      1.0000 0.92900  0.88540  0.08040  Biso   1.000  O
  O13      1.0000 0.30960  0.50510  0.39100  Biso   1.000  O
  O14      1.0000 0.69040  0.00510  0.10900  Biso   1.000  O
  O15      1.0000 0.69040  0.49490  0.60900  Biso   1.000  O
  O16      1.0000 0.30960  0.99490  0.89100  Biso   1.000  O
  H9       1.0000 0.39060  0.53320  0.40160  Biso   1.000  H
  H10      1.0000 0.60940  0.03320  0.09840  Biso   1.000  H
  H11      1.0000 0.60940  0.46680  0.59840  Biso   1.000  H
  H12      1.0000 0.39060  0.96680  0.90160  Biso   1.000  H
  H13      1.0000 0.31790  0.44150  0.37930  Biso   1.000  H
  H14      1.0000 0.68210  0.94150  0.12070  Biso   1.000  H
  H15      1.0000 0.68210  0.55850  0.62070  Biso   1.000  H
  H16      1.0000 0.31790  0.05850  0.87930  Biso   1.000  H
  O17      1.0000 0.37590  0.33030  0.47940  Biso   1.000  O
  O18      1.0000 0.62410  0.83030  0.02060  Biso   1.000  O
  O19      1.0000 0.62410  0.66970  0.52060  Biso   1.000  O
  O20      1.0000 0.37590  0.16970  0.97940  Biso   1.000  O
  O21      1.0000 0.59740  0.38860  0.49420  Biso   1.000  O
  O22      1.0000 0.40260  0.88860  0.00580  Biso   1.000  O
  O23      1.0000 0.40260  0.61140  0.50580  Biso   1.000  O
  O24      1.0000 0.59740  0.11140  0.99420  Biso   1.000  O
  O25      1.0000 0.08490  0.61280  0.44960  Biso   1.000  O
  O26      1.0000 0.91510  0.11280  0.05040  Biso   1.000  O
  O27      1.0000 0.91510  0.38720  0.55040  Biso   1.000  O
  O28      1.0000 0.08490  0.88720  0.94960  Biso   1.000  O
  O29      1.0000 0.85790  0.65610  0.44380  Biso   1.000  O
  O30      1.0000 0.14210  0.15610  0.05620  Biso   1.000  O
  O31      1.0000 0.14210  0.34390  0.55620  Biso   1.000  O
  O32      1.0000 0.85790  0.84390  0.94380  Biso   1.000  O
  N1       1.0000 0.28500  0.79340  0.71810  Biso   1.000  N
  N2       1.0000 0.71500  0.29340  0.78190  Biso   1.000  N
  N3       1.0000 0.71500  0.20660  0.28190  Biso   1.000  N
  N4       1.0000 0.28500  0.70660  0.21810  Biso   1.000  N
  N5       1.0000 0.49710  0.04030  0.41920  Biso   1.000  N
  N6       1.0000 0.50290  0.54030  0.08080  Biso   1.000  N
  N7       1.0000 0.50290  0.95970  0.58080  Biso   1.000  N
  N8       1.0000 0.49710  0.45970  0.91920  Biso   1.000  N
  N9       1.0000 0.16930  0.88900  0.36040  Biso   1.000  N
  N10      1.0000 0.83070  0.38900  0.13960  Biso   1.000  N
  N11      1.0000 0.83070  0.11100  0.63960  Biso   1.000  N
  N12      1.0000 0.16930  0.61100  0.86040  Biso   1.000  N
  C1       1.0000 0.10040  0.69710  0.65510  Biso   1.000  C
  C2       1.0000 0.89960  0.19710  0.84490  Biso   1.000  C
  C3       1.0000 0.89960  0.30290  0.34490  Biso   1.000  C
  C4       1.0000 0.10040  0.80290  0.15510  Biso   1.000  C
  C5       1.0000 0.24140  0.72640  0.67180  Biso   1.000  C
  C6       1.0000 0.75860  0.22640  0.82820  Biso   1.000  C
  C7       1.0000 0.75860  0.27360  0.32820  Biso   1.000  C
  C8       1.0000 0.24140  0.77360  0.17180  Biso   1.000  C
  H17      1.0000 0.30990  0.69690  0.64890  Biso   1.000  H
  H18      1.0000 0.69010  0.19690  0.85110  Biso   1.000  H
  H19      1.0000 0.69010  0.30310  0.35110  Biso   1.000  H
  H20      1.0000 0.30990  0.80310  0.14890  Biso   1.000  H
  C9       1.0000 0.18820  0.83300  0.75160  Biso   1.000  C
  C10      1.0000 0.81180  0.33300  0.74840  Biso   1.000  C
  C11      1.0000 0.81180  0.16700  0.24840  Biso   1.000  C
  C12      1.0000 0.18820  0.66700  0.25160  Biso   1.000  C
  H21      1.0000 0.21880  0.87910  0.78600  Biso   1.000  H
  H22      1.0000 0.78120  0.37910  0.71400  Biso   1.000  H
  H23      1.0000 0.78120  0.12090  0.21400  Biso   1.000  H
  H24      1.0000 0.21880  0.62090  0.28600  Biso   1.000  H
  C13      1.0000 0.04760  0.80880  0.73780  Biso   1.000  C
  C14      1.0000 0.95240  0.30880  0.76220  Biso   1.000  C
  C15      1.0000 0.95240  0.19120  0.26220  Biso   1.000  C
  C16      1.0000 0.04760  0.69120  0.23780  Biso   1.000  C
  H25      1.0000 0.98180  0.83900  0.76200  Biso   1.000  H
  H26      1.0000 0.01820  0.33900  0.73800  Biso   1.000  H
  H27      1.0000 0.01820  0.16100  0.23800  Biso   1.000  H
  H28      1.0000 0.98180  0.66100  0.26200  Biso   1.000  H
  C17      1.0000 0.00090  0.74080  0.68890  Biso   1.000  C
  C18      1.0000 0.99910  0.24080  0.81110  Biso   1.000  C
  C19      1.0000 0.99910  0.25920  0.31110  Biso   1.000  C
  C20      1.0000 0.00090  0.75920  0.18890  Biso   1.000  C
  H29      1.0000 0.90310  0.72410  0.67850  Biso   1.000  H
  H30      1.0000 0.09690  0.22410  0.82150  Biso   1.000  H
  H31      1.0000 0.09690  0.27590  0.32150  Biso   1.000  H
  H32      1.0000 0.90310  0.77590  0.17850  Biso   1.000  H
  C21      1.0000 0.05790  0.62110  0.60070  Biso   1.000  C
  C22      1.0000 0.94210  0.12110  0.89930  Biso   1.000  C
  C23      1.0000 0.94210  0.37890  0.39930  Biso   1.000  C
  C24      1.0000 0.05790  0.87890  0.10070  Biso   1.000  C
  C25      1.0000 0.55550  0.21120  0.46140  Biso   1.000  C
  C26      1.0000 0.44450  0.71120  0.03860  Biso   1.000  C
  C27      1.0000 0.44450  0.78880  0.53860  Biso   1.000  C
  C28      1.0000 0.55550  0.28880  0.96140  Biso   1.000  C
  C29      1.0000 0.45980  0.13650  0.43680  Biso   1.000  C
  C30      1.0000 0.54020  0.63650  0.06320  Biso   1.000  C
  C31      1.0000 0.54020  0.86350  0.56320  Biso   1.000  C
  C32      1.0000 0.45980  0.36350  0.93680  Biso   1.000  C
  H33      1.0000 0.36180  0.15370  0.43200  Biso   1.000  H
  H34      1.0000 0.63820  0.65370  0.06800  Biso   1.000  H
  H35      1.0000 0.63820  0.84630  0.56800  Biso   1.000  H
  H36      1.0000 0.36180  0.34630  0.93200  Biso   1.000  H
  C33      1.0000 0.63660  0.01640  0.42790  Biso   1.000  C
  C34      1.0000 0.36340  0.51640  0.07210  Biso   1.000  C
  C35      1.0000 0.36340  0.98360  0.57210  Biso   1.000  C
  C36      1.0000 0.63660  0.48360  0.92790  Biso   1.000  C
  H37      1.0000 0.66500  0.94750  0.41740  Biso   1.000  H
  H38      1.0000 0.33500  0.44750  0.08260  Biso   1.000  H
  H39      1.0000 0.33500  0.05250  0.58260  Biso   1.000  H
  H40      1.0000 0.66500  0.55250  0.91740  Biso   1.000  H
  C37      1.0000 0.73930  0.08850  0.45150  Biso   1.000  C
  C38      1.0000 0.26070  0.58850  0.04850  Biso   1.000  C
  C39      1.0000 0.26070  0.91150  0.54850  Biso   1.000  C
  C40      1.0000 0.73930  0.41150  0.95150  Biso   1.000  C
  H41      1.0000 0.83670  0.06950  0.45700  Biso   1.000  H
  H42      1.0000 0.16330  0.56950  0.04300  Biso   1.000  H
  H43      1.0000 0.16330  0.93050  0.54300  Biso   1.000  H
  H44      1.0000 0.83670  0.43050  0.95700  Biso   1.000  H
  C41      1.0000 0.69880  0.18860  0.46710  Biso   1.000  C
  C42      1.0000 0.30120  0.68860  0.03290  Biso   1.000  C
  C43      1.0000 0.30120  0.81140  0.53290  Biso   1.000  C
  C44      1.0000 0.69880  0.31140  0.96710  Biso   1.000  C
  H45      1.0000 0.76770  0.24070  0.48150  Biso   1.000  H
  H46      1.0000 0.23230  0.74070  0.01850  Biso   1.000  H
  H47      1.0000 0.23230  0.75930  0.51850  Biso   1.000  H
  H48      1.0000 0.76770  0.25930  0.98150  Biso   1.000  H
  C45      1.0000 0.50670  0.31920  0.47990  Biso   1.000  C
  C46      1.0000 0.49330  0.81920  0.02010  Biso   1.000  C
  C47      1.0000 0.49330  0.68080  0.52010  Biso   1.000  C
  C48      1.0000 0.50670  0.18080  0.97990  Biso   1.000  C
  C49      1.0000 0.00370  0.76510  0.39340  Biso   1.000  C
  C50      1.0000 0.99630  0.26510  0.10660  Biso   1.000  C
  C51      1.0000 0.99630  0.23490  0.60660  Biso   1.000  C
  C52      1.0000 0.00370  0.73490  0.89340  Biso   1.000  C
  C53      1.0000 0.14020  0.79840  0.38880  Biso   1.000  C
  C54      1.0000 0.85980  0.29840  0.11120  Biso   1.000  C
  C55      1.0000 0.85980  0.20160  0.61120  Biso   1.000  C
  C56      1.0000 0.14020  0.70160  0.88880  Biso   1.000  C
  H49      1.0000 0.21720  0.75510  0.40670  Biso   1.000  H
  H50      1.0000 0.78280  0.25510  0.09330  Biso   1.000  H
  H51      1.0000 0.78280  0.24490  0.59330  Biso   1.000  H
  H52      1.0000 0.21720  0.74490  0.90670  Biso   1.000  H
  C57      1.0000 0.05800  0.94380  0.33170  Biso   1.000  C
  C58      1.0000 0.94200  0.44380  0.16830  Biso   1.000  C
  C59      1.0000 0.94200  0.05620  0.66830  Biso   1.000  C
  C60      1.0000 0.05800  0.55620  0.83170  Biso   1.000  C
  H53      1.0000 0.07590  0.00700  0.31030  Biso   1.000  H
  H54      1.0000 0.92410  0.50700  0.18970  Biso   1.000  H
  H55      1.0000 0.92410  0.99300  0.68970  Biso   1.000  H
  H56      1.0000 0.07590  0.49300  0.81030  Biso   1.000  H
  C61      1.0000 0.91960  0.91420  0.33140  Biso   1.000  C
  C62      1.0000 0.08040  0.41420  0.16860  Biso   1.000  C
  C63      1.0000 0.08040  0.08580  0.66860  Biso   1.000  C
  C64      1.0000 0.91960  0.58580  0.83140  Biso   1.000  C
  H57      1.0000 0.84430  0.95440  0.30900  Biso   1.000  H
  H58      1.0000 0.15570  0.45440  0.19100  Biso   1.000  H
  H59      1.0000 0.15570  0.04560  0.69100  Biso   1.000  H
  H60      1.0000 0.84430  0.54560  0.80900  Biso   1.000  H
  C65      1.0000 0.89220  0.82500  0.36420  Biso   1.000  C
  C66      1.0000 0.10780  0.32500  0.13580  Biso   1.000  C
  C67      1.0000 0.10780  0.17500  0.63580  Biso   1.000  C
  C68      1.0000 0.89220  0.67500  0.86420  Biso   1.000  C
  H61      1.0000 0.79730  0.80490  0.36670  Biso   1.000  H
  H62      1.0000 0.20270  0.30490  0.13330  Biso   1.000  H
  H63      1.0000 0.20270  0.19510  0.63330  Biso   1.000  H
  H64      1.0000 0.79730  0.69510  0.86670  Biso   1.000  H
  C69      1.0000 0.98100  0.66970  0.43170  Biso   1.000  C
  C70      1.0000 0.01900  0.16970  0.06830  Biso   1.000  C
  C71      1.0000 0.01900  0.33030  0.56830  Biso   1.000  C
  C72      1.0000 0.98100  0.83030  0.93170  Biso   1.000  C
  O33      1.0000 0.10890  0.14500  0.46530  Biso   1.000  O
  O34      1.0000 0.89110  0.64500  0.03470  Biso   1.000  O
  O35      1.0000 0.89110  0.85500  0.53470  Biso   1.000  O
  O36      1.0000 0.10890  0.35500  0.96530  Biso   1.000  O
  H65      1.0000 0.10540  0.18670  0.49620  Biso   1.000  H
  H66      1.0000 0.89460  0.68670  0.00380  Biso   1.000  H
  H67      1.0000 0.89460  0.81330  0.50380  Biso   1.000  H
  H68      1.0000 0.10540  0.31330  0.99620  Biso   1.000  H
  H69      1.0000 0.07270  0.18700  0.43630  Biso   1.000  H
  H70      1.0000 0.92730  0.68700  0.06370  Biso   1.000  H
  H71      1.0000 0.92730  0.81300  0.56370  Biso   1.000  H
  H72      1.0000 0.07270  0.31300  0.93630  Biso   1.000  H
