data_image0
_cell_length_a       3.8338
_cell_length_b       10.5755
_cell_length_c       8.3938
_cell_angle_alpha    90
_cell_angle_beta     96.182
_cell_angle_gamma    90

_symmetry_space_group_name_H-M    "P 1"
_symmetry_int_tables_number       1

loop_
  _symmetry_equiv_pos_as_xyz
  'x, y, z'

loop_
  _atom_site_label
  _atom_site_occupancy
  _atom_site_fract_x
  _atom_site_fract_y
  _atom_site_fract_z
  _atom_site_thermal_displace_type
  _atom_site_B_iso_or_equiv
  _atom_site_type_symbol
  Cu1      1.0000 0.22053  0.97073  0.09077  Biso   1.000  Cu
  Cu2      1.0000 0.77947  0.47073  0.90923  Biso   1.000  Cu
  S1       1.0000 0.68619  0.91702  0.92789  Biso   1.000  S
  S2       1.0000 0.31381  0.41702  0.07211  Biso   1.000  S
  C1       1.0000 0.72280  0.76120  0.91520  Biso   1.000  C
  C2       1.0000 0.27720  0.26120  0.08480  Biso   1.000  C
  N1       1.0000 0.74830  0.65280  0.90470  Biso   1.000  N
  N2       1.0000 0.25170  0.15280  0.09530  Biso   1.000  N
  N3       1.0000 0.24010  0.85510  0.28190  Biso   1.000  N
  N4       1.0000 0.75990  0.35510  0.71810  Biso   1.000  N
  N5       1.0000 0.14760  0.90360  0.41980  Biso   1.000  N
  N6       1.0000 0.85240  0.40360  0.58020  Biso   1.000  N
  C3       1.0000 0.31630  0.73290  0.27390  Biso   1.000  C
  C4       1.0000 0.68370  0.23290  0.72610  Biso   1.000  C
  H1       1.0000 0.37840  0.70080  0.17780  Biso   1.000  H
  H2       1.0000 0.62160  0.20080  0.82220  Biso   1.000  H
  C5       1.0000 0.30730  0.65080  0.40280  Biso   1.000  C
  C6       1.0000 0.69270  0.15080  0.59720  Biso   1.000  C
  H3       1.0000 0.36560  0.56590  0.39450  Biso   1.000  H
  H4       1.0000 0.63440  0.06590  0.60550  Biso   1.000  H
  C7       1.0000 0.21030  0.69920  0.54130  Biso   1.000  C
  C8       1.0000 0.78970  0.19920  0.45870  Biso   1.000  C
  H5       1.0000 0.19690  0.64860  0.63110  Biso   1.000  H
  H6       1.0000 0.80310  0.14860  0.36890  Biso   1.000  H
  C9       1.0000 0.13290  0.82600  0.54330  Biso   1.000  C
  C10      1.0000 0.86710  0.32600  0.45670  Biso   1.000  C
  H7       1.0000 0.06560  0.85980  0.63760  Biso   1.000  H
  H8       1.0000 0.93440  0.35980  0.36240  Biso   1.000  H
