data_image0
_cell_length_a       34.687
_cell_length_b       10.2092
_cell_length_c       8.5888
_cell_angle_alpha    90
_cell_angle_beta     90
_cell_angle_gamma    90

_symmetry_space_group_name_H-M    "P 1"
_symmetry_int_tables_number       1

loop_
  _symmetry_equiv_pos_as_xyz
  'x, y, z'

loop_
  _atom_site_label
  _atom_site_occupancy
  _atom_site_fract_x
  _atom_site_fract_y
  _atom_site_fract_z
  _atom_site_thermal_displace_type
  _atom_site_B_iso_or_equiv
  _atom_site_type_symbol
  Cu1      1.0000 0.50000  0.68863  0.25000  Biso   1.000  Cu
  Cu2      1.0000 0.00000  0.81137  0.75000  Biso   1.000  Cu
  Cu3      1.0000 0.50000  0.31137  0.75000  Biso   1.000  Cu
  Cu4      1.0000 0.00000  0.18863  0.25000  Biso   1.000  Cu
  Cu5      1.0000 0.50000  0.50000  0.00000  Biso   1.000  Cu
  Cu6      1.0000 0.00000  0.00000  0.50000  Biso   1.000  Cu
  Cu7      1.0000 0.50000  0.50000  0.50000  Biso   1.000  Cu
  Cu8      1.0000 0.00000  0.00000  0.00000  Biso   1.000  Cu
  O1       1.0000 0.45285  0.71684  0.15773  Biso   1.000  O
  O2       1.0000 0.04715  0.78316  0.65773  Biso   1.000  O
  O3       1.0000 0.54715  0.71684  0.34227  Biso   1.000  O
  O4       1.0000 0.95285  0.78316  0.84227  Biso   1.000  O
  O5       1.0000 0.54715  0.28316  0.84227  Biso   1.000  O
  O6       1.0000 0.95285  0.21684  0.34227  Biso   1.000  O
  O7       1.0000 0.45285  0.28316  0.65773  Biso   1.000  O
  O8       1.0000 0.04715  0.21684  0.15773  Biso   1.000  O
  O9       1.0000 0.45431  0.58472  0.94969  Biso   1.000  O
  O10      1.0000 0.04569  0.91528  0.44969  Biso   1.000  O
  O11      1.0000 0.54569  0.58472  0.55031  Biso   1.000  O
  O12      1.0000 0.95431  0.91528  0.05031  Biso   1.000  O
  O13      1.0000 0.54569  0.41528  0.05031  Biso   1.000  O
  O14      1.0000 0.95431  0.08472  0.55031  Biso   1.000  O
  O15      1.0000 0.45431  0.41528  0.44969  Biso   1.000  O
  O16      1.0000 0.04569  0.08472  0.94969  Biso   1.000  O
  C1       1.0000 0.43950  0.67412  0.03110  Biso   1.000  C
  C2       1.0000 0.06050  0.82588  0.53110  Biso   1.000  C
  C3       1.0000 0.56050  0.67412  0.46890  Biso   1.000  C
  C4       1.0000 0.93950  0.82588  0.96890  Biso   1.000  C
  C5       1.0000 0.56050  0.32588  0.96890  Biso   1.000  C
  C6       1.0000 0.93950  0.17412  0.46890  Biso   1.000  C
  C7       1.0000 0.43950  0.32588  0.53110  Biso   1.000  C
  C8       1.0000 0.06050  0.17412  0.03110  Biso   1.000  C
  C9       1.0000 0.40299  0.73582  0.97160  Biso   1.000  C
  C10      1.0000 0.09701  0.76418  0.47160  Biso   1.000  C
  C11      1.0000 0.59701  0.73582  0.52840  Biso   1.000  C
  C12      1.0000 0.90299  0.76418  0.02840  Biso   1.000  C
  C13      1.0000 0.59701  0.26418  0.02840  Biso   1.000  C
  C14      1.0000 0.90299  0.23582  0.52840  Biso   1.000  C
  C15      1.0000 0.40299  0.26418  0.47160  Biso   1.000  C
  C16      1.0000 0.09701  0.23582  0.97160  Biso   1.000  C
  C17      1.0000 0.36854  0.72283  0.05650  Biso   1.000  C
  C18      1.0000 0.13146  0.77717  0.55650  Biso   1.000  C
  C19      1.0000 0.63146  0.72283  0.44350  Biso   1.000  C
  C20      1.0000 0.86854  0.77717  0.94350  Biso   1.000  C
  C21      1.0000 0.63146  0.27717  0.94350  Biso   1.000  C
  C22      1.0000 0.86854  0.22283  0.44350  Biso   1.000  C
  C23      1.0000 0.36854  0.27717  0.55650  Biso   1.000  C
  C24      1.0000 0.13146  0.22283  0.05650  Biso   1.000  C
  C25      1.0000 0.33503  0.77600  0.99270  Biso   1.000  C
  C26      1.0000 0.16497  0.72400  0.49270  Biso   1.000  C
  C27      1.0000 0.66497  0.77600  0.50730  Biso   1.000  C
  C28      1.0000 0.83503  0.72400  0.00730  Biso   1.000  C
  C29      1.0000 0.66497  0.22400  0.00730  Biso   1.000  C
  C30      1.0000 0.83503  0.27600  0.50730  Biso   1.000  C
  C31      1.0000 0.33503  0.22400  0.49270  Biso   1.000  C
  C32      1.0000 0.16497  0.27600  0.99270  Biso   1.000  C
  H1       1.0000 0.31140  0.76640  0.04780  Biso   1.000  H
  H2       1.0000 0.18860  0.73360  0.54780  Biso   1.000  H
  H3       1.0000 0.68860  0.76640  0.45220  Biso   1.000  H
  H4       1.0000 0.81140  0.73360  0.95220  Biso   1.000  H
  H5       1.0000 0.68860  0.23360  0.95220  Biso   1.000  H
  H6       1.0000 0.81140  0.26640  0.45220  Biso   1.000  H
  H7       1.0000 0.31140  0.23360  0.54780  Biso   1.000  H
  H8       1.0000 0.18860  0.26640  0.04780  Biso   1.000  H
  C33      1.0000 0.33490  0.84263  0.85140  Biso   1.000  C
  C34      1.0000 0.16510  0.65737  0.35140  Biso   1.000  C
  C35      1.0000 0.66510  0.84263  0.64860  Biso   1.000  C
  C36      1.0000 0.83490  0.65737  0.14860  Biso   1.000  C
  C37      1.0000 0.66510  0.15737  0.14860  Biso   1.000  C
  C38      1.0000 0.83490  0.34263  0.64860  Biso   1.000  C
  C39      1.0000 0.33490  0.15737  0.35140  Biso   1.000  C
  C40      1.0000 0.16510  0.34263  0.85140  Biso   1.000  C
  C41      1.0000 0.36974  0.85881  0.77353  Biso   1.000  C
  C42      1.0000 0.13026  0.64119  0.27353  Biso   1.000  C
  C43      1.0000 0.63026  0.85881  0.72647  Biso   1.000  C
  C44      1.0000 0.86974  0.64119  0.22647  Biso   1.000  C
  C45      1.0000 0.63026  0.14119  0.22647  Biso   1.000  C
  C46      1.0000 0.86974  0.35881  0.72647  Biso   1.000  C
  C47      1.0000 0.36974  0.14119  0.27353  Biso   1.000  C
  C48      1.0000 0.13026  0.35881  0.77353  Biso   1.000  C
  H9       1.0000 0.37020  0.90700  0.67890  Biso   1.000  H
  H10      1.0000 0.12980  0.59300  0.17890  Biso   1.000  H
  H11      1.0000 0.62980  0.90700  0.82110  Biso   1.000  H
  H12      1.0000 0.87020  0.59300  0.32110  Biso   1.000  H
  H13      1.0000 0.62980  0.09300  0.32110  Biso   1.000  H
  H14      1.0000 0.87020  0.40700  0.82110  Biso   1.000  H
  H15      1.0000 0.37020  0.09300  0.17890  Biso   1.000  H
  H16      1.0000 0.12980  0.40700  0.67890  Biso   1.000  H
  C49      1.0000 0.40412  0.80593  0.83100  Biso   1.000  C
  C50      1.0000 0.09588  0.69407  0.33100  Biso   1.000  C
  C51      1.0000 0.59588  0.80593  0.66900  Biso   1.000  C
  C52      1.0000 0.90412  0.69407  0.16900  Biso   1.000  C
  C53      1.0000 0.59588  0.19407  0.16900  Biso   1.000  C
  C54      1.0000 0.90412  0.30593  0.66900  Biso   1.000  C
  C55      1.0000 0.40412  0.19407  0.33100  Biso   1.000  C
  C56      1.0000 0.09588  0.30593  0.83100  Biso   1.000  C
  C57      1.0000 0.36640  0.65258  0.21320  Biso   1.000  C
  C58      1.0000 0.13360  0.84742  0.71320  Biso   1.000  C
  C59      1.0000 0.63360  0.65258  0.28680  Biso   1.000  C
  C60      1.0000 0.86640  0.84742  0.78680  Biso   1.000  C
  C61      1.0000 0.63360  0.34742  0.78680  Biso   1.000  C
  C62      1.0000 0.86640  0.15258  0.28680  Biso   1.000  C
  C63      1.0000 0.36640  0.34742  0.71320  Biso   1.000  C
  C64      1.0000 0.13360  0.15258  0.21320  Biso   1.000  C
  H17      1.0000 0.39330  0.63280  0.24760  Biso   1.000  H
  H18      1.0000 0.10670  0.86720  0.74760  Biso   1.000  H
  H19      1.0000 0.60670  0.63280  0.25240  Biso   1.000  H
  H20      1.0000 0.89330  0.86720  0.75240  Biso   1.000  H
  H21      1.0000 0.60670  0.36720  0.75240  Biso   1.000  H
  H22      1.0000 0.89330  0.13280  0.25240  Biso   1.000  H
  H23      1.0000 0.39330  0.36720  0.74760  Biso   1.000  H
  H24      1.0000 0.10670  0.13280  0.24760  Biso   1.000  H
  C65      1.0000 0.34780  0.74060  0.33550  Biso   1.000  C
  C66      1.0000 0.15220  0.75940  0.83550  Biso   1.000  C
  C67      1.0000 0.65220  0.74060  0.16450  Biso   1.000  C
  C68      1.0000 0.84780  0.75940  0.66450  Biso   1.000  C
  C69      1.0000 0.65220  0.25940  0.66450  Biso   1.000  C
  C70      1.0000 0.84780  0.24060  0.16450  Biso   1.000  C
  C71      1.0000 0.34780  0.25940  0.83550  Biso   1.000  C
  C72      1.0000 0.15220  0.24060  0.33550  Biso   1.000  C
  H25      1.0000 0.36120  0.82510  0.33810  Biso   1.000  H
  H26      1.0000 0.13880  0.67490  0.83810  Biso   1.000  H
  H27      1.0000 0.63880  0.82510  0.16190  Biso   1.000  H
  H28      1.0000 0.86120  0.67490  0.66190  Biso   1.000  H
  H29      1.0000 0.63880  0.17490  0.66190  Biso   1.000  H
  H30      1.0000 0.86120  0.32510  0.16190  Biso   1.000  H
  H31      1.0000 0.36120  0.17490  0.83810  Biso   1.000  H
  H32      1.0000 0.13880  0.32510  0.33810  Biso   1.000  H
  H33      1.0000 0.34960  0.69870  0.43780  Biso   1.000  H
  H34      1.0000 0.15040  0.80130  0.93780  Biso   1.000  H
  H35      1.0000 0.65040  0.69870  0.06220  Biso   1.000  H
  H36      1.0000 0.84960  0.80130  0.56220  Biso   1.000  H
  H37      1.0000 0.65040  0.30130  0.56220  Biso   1.000  H
  H38      1.0000 0.84960  0.19870  0.06220  Biso   1.000  H
  H39      1.0000 0.34960  0.30130  0.93780  Biso   1.000  H
  H40      1.0000 0.15040  0.19870  0.43780  Biso   1.000  H
  H41      1.0000 0.32060  0.75470  0.30900  Biso   1.000  H
  H42      1.0000 0.17940  0.74530  0.80900  Biso   1.000  H
  H43      1.0000 0.67940  0.75470  0.19100  Biso   1.000  H
  H44      1.0000 0.82060  0.74530  0.69100  Biso   1.000  H
  H45      1.0000 0.67940  0.24530  0.69100  Biso   1.000  H
  H46      1.0000 0.82060  0.25470  0.19100  Biso   1.000  H
  H47      1.0000 0.32060  0.24530  0.80900  Biso   1.000  H
  H48      1.0000 0.17940  0.25470  0.30900  Biso   1.000  H
  C73      1.0000 0.34464  0.52320  0.19880  Biso   1.000  C
  C74      1.0000 0.15536  0.97680  0.69880  Biso   1.000  C
  C75      1.0000 0.65536  0.52320  0.30120  Biso   1.000  C
  C76      1.0000 0.84464  0.97680  0.80120  Biso   1.000  C
  C77      1.0000 0.65536  0.47680  0.80120  Biso   1.000  C
  C78      1.0000 0.84464  0.02320  0.30120  Biso   1.000  C
  C79      1.0000 0.34464  0.47680  0.69880  Biso   1.000  C
  C80      1.0000 0.15536  0.02320  0.19880  Biso   1.000  C
  H49      1.0000 0.34340  0.48060  0.30100  Biso   1.000  H
  H50      1.0000 0.15660  0.01940  0.80100  Biso   1.000  H
  H51      1.0000 0.65660  0.48060  0.19900  Biso   1.000  H
  H52      1.0000 0.84340  0.01940  0.69900  Biso   1.000  H
  H53      1.0000 0.65660  0.51940  0.69900  Biso   1.000  H
  H54      1.0000 0.84340  0.98060  0.19900  Biso   1.000  H
  H55      1.0000 0.34340  0.51940  0.80100  Biso   1.000  H
  H56      1.0000 0.15660  0.98060  0.30100  Biso   1.000  H
  H57      1.0000 0.35810  0.46590  0.12510  Biso   1.000  H
  H58      1.0000 0.14190  0.03410  0.62510  Biso   1.000  H
  H59      1.0000 0.64190  0.46590  0.37490  Biso   1.000  H
  H60      1.0000 0.85810  0.03410  0.87490  Biso   1.000  H
  H61      1.0000 0.64190  0.53410  0.87490  Biso   1.000  H
  H62      1.0000 0.85810  0.96590  0.37490  Biso   1.000  H
  H63      1.0000 0.35810  0.53410  0.62510  Biso   1.000  H
  H64      1.0000 0.14190  0.96590  0.12510  Biso   1.000  H
  H65      1.0000 0.31840  0.54010  0.16130  Biso   1.000  H
  H66      1.0000 0.18160  0.95990  0.66130  Biso   1.000  H
  H67      1.0000 0.68160  0.54010  0.33870  Biso   1.000  H
  H68      1.0000 0.81840  0.95990  0.83870  Biso   1.000  H
  H69      1.0000 0.68160  0.45990  0.83870  Biso   1.000  H
  H70      1.0000 0.81840  0.04010  0.33870  Biso   1.000  H
  H71      1.0000 0.31840  0.45990  0.66130  Biso   1.000  H
  H72      1.0000 0.18160  0.04010  0.16130  Biso   1.000  H
  C81      1.0000 0.29791  0.89312  0.77770  Biso   1.000  C
  C82      1.0000 0.20209  0.60688  0.27770  Biso   1.000  C
  C83      1.0000 0.70209  0.89312  0.72230  Biso   1.000  C
  C84      1.0000 0.79791  0.60688  0.22230  Biso   1.000  C
  C85      1.0000 0.70209  0.10688  0.22230  Biso   1.000  C
  C86      1.0000 0.79791  0.39312  0.72230  Biso   1.000  C
  C87      1.0000 0.29791  0.10688  0.27770  Biso   1.000  C
  C88      1.0000 0.20209  0.39312  0.77770  Biso   1.000  C
  H73      1.0000 0.30530  0.95590  0.69340  Biso   1.000  H
  H74      1.0000 0.19470  0.54410  0.19340  Biso   1.000  H
  H75      1.0000 0.69470  0.95590  0.80660  Biso   1.000  H
  H76      1.0000 0.80530  0.54410  0.30660  Biso   1.000  H
  H77      1.0000 0.69470  0.04410  0.30660  Biso   1.000  H
  H78      1.0000 0.80530  0.45590  0.80660  Biso   1.000  H
  H79      1.0000 0.30530  0.04410  0.19340  Biso   1.000  H
  H80      1.0000 0.19470  0.45590  0.69340  Biso   1.000  H
  C89      1.0000 0.27176  0.96600  0.89120  Biso   1.000  C
  C90      1.0000 0.22824  0.53400  0.39120  Biso   1.000  C
  C91      1.0000 0.72824  0.96600  0.60880  Biso   1.000  C
  C92      1.0000 0.77176  0.53400  0.10880  Biso   1.000  C
  C93      1.0000 0.72824  0.03400  0.10880  Biso   1.000  C
  C94      1.0000 0.77176  0.46600  0.60880  Biso   1.000  C
  C95      1.0000 0.27176  0.03400  0.39120  Biso   1.000  C
  C96      1.0000 0.22824  0.46600  0.89120  Biso   1.000  C
  H81      1.0000 0.26450  0.90730  0.97670  Biso   1.000  H
  H82      1.0000 0.23550  0.59270  0.47670  Biso   1.000  H
  H83      1.0000 0.73550  0.90730  0.52330  Biso   1.000  H
  H84      1.0000 0.76450  0.59270  0.02330  Biso   1.000  H
  H85      1.0000 0.73550  0.09270  0.02330  Biso   1.000  H
  H86      1.0000 0.76450  0.40730  0.52330  Biso   1.000  H
  H87      1.0000 0.26450  0.09270  0.47670  Biso   1.000  H
  H88      1.0000 0.23550  0.40730  0.97670  Biso   1.000  H
  H89      1.0000 0.24850  0.99520  0.83670  Biso   1.000  H
  H90      1.0000 0.25150  0.50480  0.33670  Biso   1.000  H
  H91      1.0000 0.75150  0.99520  0.66330  Biso   1.000  H
  H92      1.0000 0.74850  0.50480  0.16330  Biso   1.000  H
  H93      1.0000 0.75150  0.00480  0.16330  Biso   1.000  H
  H94      1.0000 0.74850  0.49520  0.66330  Biso   1.000  H
  H95      1.0000 0.24850  0.00480  0.33670  Biso   1.000  H
  H96      1.0000 0.25150  0.49520  0.83670  Biso   1.000  H
  H97      1.0000 0.28550  0.04210  0.93310  Biso   1.000  H
  H98      1.0000 0.21450  0.45790  0.43310  Biso   1.000  H
  H99      1.0000 0.71450  0.04210  0.56690  Biso   1.000  H
  H100     1.0000 0.78550  0.45790  0.06690  Biso   1.000  H
  H101     1.0000 0.71450  0.95790  0.06690  Biso   1.000  H
  H102     1.0000 0.78550  0.54210  0.56690  Biso   1.000  H
  H103     1.0000 0.28550  0.95790  0.43310  Biso   1.000  H
  H104     1.0000 0.21450  0.54210  0.93310  Biso   1.000  H
  C97      1.0000 0.27595  0.78000  0.70170  Biso   1.000  C
  C98      1.0000 0.22405  0.72000  0.20170  Biso   1.000  C
  C99      1.0000 0.72405  0.78000  0.79830  Biso   1.000  C
  C100     1.0000 0.77595  0.72000  0.29830  Biso   1.000  C
  C101     1.0000 0.72405  0.22000  0.29830  Biso   1.000  C
  C102     1.0000 0.77595  0.28000  0.79830  Biso   1.000  C
  C103     1.0000 0.27595  0.22000  0.20170  Biso   1.000  C
  C104     1.0000 0.22405  0.28000  0.70170  Biso   1.000  C
  H105     1.0000 0.29290  0.73450  0.62820  Biso   1.000  H
  H106     1.0000 0.20710  0.76550  0.12820  Biso   1.000  H
  H107     1.0000 0.70710  0.73450  0.87180  Biso   1.000  H
  H108     1.0000 0.79290  0.76550  0.37180  Biso   1.000  H
  H109     1.0000 0.70710  0.26550  0.37180  Biso   1.000  H
  H110     1.0000 0.79290  0.23450  0.87180  Biso   1.000  H
  H111     1.0000 0.29290  0.26550  0.12820  Biso   1.000  H
  H112     1.0000 0.20710  0.23450  0.62820  Biso   1.000  H
  H113     1.0000 0.25350  0.81450  0.64590  Biso   1.000  H
  H114     1.0000 0.24650  0.68550  0.14590  Biso   1.000  H
  H115     1.0000 0.74650  0.81450  0.85410  Biso   1.000  H
  H116     1.0000 0.75350  0.68550  0.35410  Biso   1.000  H
  H117     1.0000 0.74650  0.18550  0.35410  Biso   1.000  H
  H118     1.0000 0.75350  0.31450  0.85410  Biso   1.000  H
  H119     1.0000 0.25350  0.18550  0.14590  Biso   1.000  H
  H120     1.0000 0.24650  0.31450  0.64590  Biso   1.000  H
  H121     1.0000 0.26740  0.71860  0.78220  Biso   1.000  H
  H122     1.0000 0.23260  0.78140  0.28220  Biso   1.000  H
  H123     1.0000 0.73260  0.71860  0.71780  Biso   1.000  H
  H124     1.0000 0.76740  0.78140  0.21780  Biso   1.000  H
  H125     1.0000 0.73260  0.28140  0.21780  Biso   1.000  H
  H126     1.0000 0.76740  0.21860  0.71780  Biso   1.000  H
  H127     1.0000 0.26740  0.28140  0.28220  Biso   1.000  H
  H128     1.0000 0.23260  0.21860  0.78220  Biso   1.000  H
  C105     1.0000 0.44134  0.82782  0.74050  Biso   1.000  C
  C106     1.0000 0.05866  0.67218  0.24050  Biso   1.000  C
  C107     1.0000 0.55866  0.82782  0.75950  Biso   1.000  C
  C108     1.0000 0.94134  0.67218  0.25950  Biso   1.000  C
  C109     1.0000 0.55866  0.17218  0.25950  Biso   1.000  C
  C110     1.0000 0.94134  0.32782  0.75950  Biso   1.000  C
  C111     1.0000 0.44134  0.17218  0.24050  Biso   1.000  C
  C112     1.0000 0.05866  0.32782  0.74050  Biso   1.000  C
  H129     1.0000 0.46330  0.80130  0.80900  Biso   1.000  H
  H130     1.0000 0.03670  0.69870  0.30900  Biso   1.000  H
  H131     1.0000 0.53670  0.80130  0.69100  Biso   1.000  H
  H132     1.0000 0.96330  0.69870  0.19100  Biso   1.000  H
  H133     1.0000 0.53670  0.19870  0.19100  Biso   1.000  H
  H134     1.0000 0.96330  0.30130  0.69100  Biso   1.000  H
  H135     1.0000 0.46330  0.19870  0.30900  Biso   1.000  H
  H136     1.0000 0.03670  0.30130  0.80900  Biso   1.000  H
  C113     1.0000 0.44244  0.74180  0.59600  Biso   1.000  C
  C114     1.0000 0.05756  0.75820  0.09600  Biso   1.000  C
  C115     1.0000 0.55756  0.74180  0.90400  Biso   1.000  C
  C116     1.0000 0.94244  0.75820  0.40400  Biso   1.000  C
  C117     1.0000 0.55756  0.25820  0.40400  Biso   1.000  C
  C118     1.0000 0.94244  0.24180  0.90400  Biso   1.000  C
  C119     1.0000 0.44244  0.25820  0.09600  Biso   1.000  C
  C120     1.0000 0.05756  0.24180  0.59600  Biso   1.000  C
  H137     1.0000 0.43880  0.65000  0.62610  Biso   1.000  H
  H138     1.0000 0.06120  0.85000  0.12610  Biso   1.000  H
  H139     1.0000 0.56120  0.65000  0.87390  Biso   1.000  H
  H140     1.0000 0.93880  0.85000  0.37390  Biso   1.000  H
  H141     1.0000 0.56120  0.35000  0.37390  Biso   1.000  H
  H142     1.0000 0.93880  0.15000  0.87390  Biso   1.000  H
  H143     1.0000 0.43880  0.35000  0.12610  Biso   1.000  H
  H144     1.0000 0.06120  0.15000  0.62610  Biso   1.000  H
  H145     1.0000 0.46740  0.75180  0.54410  Biso   1.000  H
  H146     1.0000 0.03260  0.74820  0.04410  Biso   1.000  H
  H147     1.0000 0.53260  0.75180  0.95590  Biso   1.000  H
  H148     1.0000 0.96740  0.74820  0.45590  Biso   1.000  H
  H149     1.0000 0.53260  0.24820  0.45590  Biso   1.000  H
  H150     1.0000 0.96740  0.25180  0.95590  Biso   1.000  H
  H151     1.0000 0.46740  0.24820  0.04410  Biso   1.000  H
  H152     1.0000 0.03260  0.25180  0.54410  Biso   1.000  H
  H153     1.0000 0.42180  0.76820  0.52460  Biso   1.000  H
  H154     1.0000 0.07820  0.73180  0.02460  Biso   1.000  H
  H155     1.0000 0.57820  0.76820  0.97540  Biso   1.000  H
  H156     1.0000 0.92180  0.73180  0.47540  Biso   1.000  H
  H157     1.0000 0.57820  0.23180  0.47540  Biso   1.000  H
  H158     1.0000 0.92180  0.26820  0.97540  Biso   1.000  H
  H159     1.0000 0.42180  0.23180  0.02460  Biso   1.000  H
  H160     1.0000 0.07820  0.26820  0.52460  Biso   1.000  H
  C121     1.0000 0.44701  0.97150  0.69720  Biso   1.000  C
  C122     1.0000 0.05299  0.52850  0.19720  Biso   1.000  C
  C123     1.0000 0.55299  0.97150  0.80280  Biso   1.000  C
  C124     1.0000 0.94701  0.52850  0.30280  Biso   1.000  C
  C125     1.0000 0.55299  0.02850  0.30280  Biso   1.000  C
  C126     1.0000 0.94701  0.47150  0.80280  Biso   1.000  C
  C127     1.0000 0.44701  0.02850  0.19720  Biso   1.000  C
  C128     1.0000 0.05299  0.47150  0.69720  Biso   1.000  C
  H161     1.0000 0.47220  0.98260  0.64710  Biso   1.000  H
  H162     1.0000 0.02780  0.51740  0.14710  Biso   1.000  H
  H163     1.0000 0.52780  0.98260  0.85290  Biso   1.000  H
  H164     1.0000 0.97220  0.51740  0.35290  Biso   1.000  H
  H165     1.0000 0.52780  0.01740  0.35290  Biso   1.000  H
  H166     1.0000 0.97220  0.48260  0.85290  Biso   1.000  H
  H167     1.0000 0.47220  0.01740  0.14710  Biso   1.000  H
  H168     1.0000 0.02780  0.48260  0.64710  Biso   1.000  H
  H169     1.0000 0.44590  0.02540  0.79160  Biso   1.000  H
  H170     1.0000 0.05410  0.47460  0.29160  Biso   1.000  H
  H171     1.0000 0.55410  0.02540  0.70840  Biso   1.000  H
  H172     1.0000 0.94590  0.47460  0.20840  Biso   1.000  H
  H173     1.0000 0.55410  0.97460  0.20840  Biso   1.000  H
  H174     1.0000 0.94590  0.52540  0.70840  Biso   1.000  H
  H175     1.0000 0.44590  0.97460  0.29160  Biso   1.000  H
  H176     1.0000 0.05410  0.52540  0.79160  Biso   1.000  H
  H177     1.0000 0.42660  0.99880  0.62530  Biso   1.000  H
  H178     1.0000 0.07340  0.50120  0.12530  Biso   1.000  H
  H179     1.0000 0.57340  0.99880  0.87470  Biso   1.000  H
  H180     1.0000 0.92660  0.50120  0.37470  Biso   1.000  H
  H181     1.0000 0.57340  0.00120  0.37470  Biso   1.000  H
  H182     1.0000 0.92660  0.49880  0.87470  Biso   1.000  H
  H183     1.0000 0.42660  0.00120  0.12530  Biso   1.000  H
  H184     1.0000 0.07340  0.49880  0.62530  Biso   1.000  H
