data_image0
_cell_length_a       17.979
_cell_length_b       5.785
_cell_length_c       15.146
_cell_angle_alpha    90
_cell_angle_beta     104.285
_cell_angle_gamma    90

_symmetry_space_group_name_H-M    "P 1"
_symmetry_int_tables_number       1

loop_
  _symmetry_equiv_pos_as_xyz
  'x, y, z'

loop_
  _atom_site_label
  _atom_site_occupancy
  _atom_site_fract_x
  _atom_site_fract_y
  _atom_site_fract_z
  _atom_site_thermal_displace_type
  _atom_site_B_iso_or_equiv
  _atom_site_type_symbol
  Cu1      1.0000 0.49881  0.66246  0.26693  Biso   1.000  Cu
  Cu2      1.0000 0.50119  0.16246  0.23307  Biso   1.000  Cu
  Cu3      1.0000 0.50119  0.33754  0.73307  Biso   1.000  Cu
  Cu4      1.0000 0.49881  0.83754  0.76693  Biso   1.000  Cu
  O1       1.0000 0.58920  0.73850  0.34990  Biso   1.000  O
  O2       1.0000 0.41080  0.23850  0.15010  Biso   1.000  O
  O3       1.0000 0.41080  0.26150  0.65010  Biso   1.000  O
  O4       1.0000 0.58920  0.76150  0.84990  Biso   1.000  O
  O5       1.0000 0.59450  0.10710  0.31370  Biso   1.000  O
  O6       1.0000 0.40550  0.60710  0.18630  Biso   1.000  O
  O7       1.0000 0.40550  0.89290  0.68630  Biso   1.000  O
  O8       1.0000 0.59450  0.39290  0.81370  Biso   1.000  O
  C1       1.0000 0.62010  0.93110  0.35870  Biso   1.000  C
  C2       1.0000 0.37990  0.43110  0.14130  Biso   1.000  C
  C3       1.0000 0.37990  0.06890  0.64130  Biso   1.000  C
  C4       1.0000 0.62010  0.56890  0.85870  Biso   1.000  C
  C5       1.0000 0.69520  0.96320  0.42800  Biso   1.000  C
  C6       1.0000 0.30480  0.46320  0.07200  Biso   1.000  C
  C7       1.0000 0.30480  0.03680  0.57200  Biso   1.000  C
  C8       1.0000 0.69520  0.53680  0.92800  Biso   1.000  C
  C9       1.0000 0.76270  0.87940  0.41020  Biso   1.000  C
  C10      1.0000 0.23730  0.37940  0.08980  Biso   1.000  C
  C11      1.0000 0.23730  0.12060  0.58980  Biso   1.000  C
  C12      1.0000 0.76270  0.62060  0.91020  Biso   1.000  C
  C13      1.0000 0.83170  0.92830  0.47300  Biso   1.000  C
  C14      1.0000 0.16830  0.42830  0.02700  Biso   1.000  C
  C15      1.0000 0.16830  0.07170  0.52700  Biso   1.000  C
  C16      1.0000 0.83170  0.57170  0.97300  Biso   1.000  C
  H1       1.0000 0.87830  0.87140  0.46230  Biso   1.000  H
  H2       1.0000 0.12170  0.37140  0.03770  Biso   1.000  H
  H3       1.0000 0.12170  0.12860  0.53770  Biso   1.000  H
  H4       1.0000 0.87830  0.62860  0.96230  Biso   1.000  H
  C17      1.0000 0.83420  0.05920  0.55170  Biso   1.000  C
  C18      1.0000 0.16580  0.55920  0.94830  Biso   1.000  C
  C19      1.0000 0.16580  0.94080  0.44830  Biso   1.000  C
  C20      1.0000 0.83420  0.44080  0.05170  Biso   1.000  C
  C21      1.0000 0.76640  0.13290  0.56760  Biso   1.000  C
  C22      1.0000 0.23360  0.63290  0.93240  Biso   1.000  C
  C23      1.0000 0.23360  0.86710  0.43240  Biso   1.000  C
  C24      1.0000 0.76640  0.36710  0.06760  Biso   1.000  C
  H5       1.0000 0.76750  0.21770  0.62160  Biso   1.000  H
  H6       1.0000 0.23250  0.71770  0.87840  Biso   1.000  H
  H7       1.0000 0.23250  0.78230  0.37840  Biso   1.000  H
  H8       1.0000 0.76750  0.28230  0.12160  Biso   1.000  H
  C25      1.0000 0.69640  0.08830  0.50780  Biso   1.000  C
  C26      1.0000 0.30360  0.58830  0.99220  Biso   1.000  C
  C27      1.0000 0.30360  0.91170  0.49220  Biso   1.000  C
  C28      1.0000 0.69640  0.41170  0.00780  Biso   1.000  C
  C29      1.0000 0.62230  0.16830  0.53000  Biso   1.000  C
  C30      1.0000 0.37770  0.66830  0.97000  Biso   1.000  C
  C31      1.0000 0.37770  0.83170  0.47000  Biso   1.000  C
  C32      1.0000 0.62230  0.33170  0.03000  Biso   1.000  C
  H9       1.0000 0.57610  0.15210  0.47770  Biso   1.000  H
  H10      1.0000 0.42390  0.65210  0.02230  Biso   1.000  H
  H11      1.0000 0.42390  0.84790  0.52230  Biso   1.000  H
  H12      1.0000 0.57610  0.34790  0.97770  Biso   1.000  H
  C33      1.0000 0.63420  0.43800  0.57400  Biso   1.000  C
  C34      1.0000 0.36580  0.93800  0.92600  Biso   1.000  C
  C35      1.0000 0.36580  0.56200  0.42600  Biso   1.000  C
  C36      1.0000 0.63420  0.06200  0.07400  Biso   1.000  C
  H13      1.0000 0.58790  0.48470  0.59260  Biso   1.000  H
  H14      1.0000 0.41210  0.98470  0.90740  Biso   1.000  H
  H15      1.0000 0.41210  0.51530  0.40740  Biso   1.000  H
  H16      1.0000 0.58790  0.01530  0.09260  Biso   1.000  H
  H17      1.0000 0.64340  0.54590  0.52790  Biso   1.000  H
  H18      1.0000 0.35660  0.04590  0.97210  Biso   1.000  H
  H19      1.0000 0.35660  0.45410  0.47210  Biso   1.000  H
  H20      1.0000 0.64340  0.95410  0.02790  Biso   1.000  H
  H21      1.0000 0.67830  0.44020  0.62710  Biso   1.000  H
  H22      1.0000 0.32170  0.94020  0.87290  Biso   1.000  H
  H23      1.0000 0.32170  0.55980  0.37290  Biso   1.000  H
  H24      1.0000 0.67830  0.05980  0.12710  Biso   1.000  H
  C37      1.0000 0.61340  0.03600  0.62390  Biso   1.000  C
  C38      1.0000 0.38660  0.53600  0.87610  Biso   1.000  C
  C39      1.0000 0.38660  0.96400  0.37610  Biso   1.000  C
  C40      1.0000 0.61340  0.46400  0.12390  Biso   1.000  C
  H25      1.0000 0.56240  0.06720  0.63340  Biso   1.000  H
  H26      1.0000 0.43760  0.56720  0.86660  Biso   1.000  H
  H27      1.0000 0.43760  0.93280  0.36660  Biso   1.000  H
  H28      1.0000 0.56240  0.43280  0.13340  Biso   1.000  H
  H29      1.0000 0.65270  0.09370  0.67620  Biso   1.000  H
  H30      1.0000 0.34730  0.59370  0.82380  Biso   1.000  H
  H31      1.0000 0.34730  0.90630  0.32380  Biso   1.000  H
  H32      1.0000 0.65270  0.40630  0.17620  Biso   1.000  H
  H33      1.0000 0.61990  0.86920  0.61770  Biso   1.000  H
  H34      1.0000 0.38010  0.36920  0.88230  Biso   1.000  H
  H35      1.0000 0.38010  0.13080  0.38230  Biso   1.000  H
  H36      1.0000 0.61990  0.63080  0.11770  Biso   1.000  H
  C41      1.0000 0.76130  0.74260  0.32410  Biso   1.000  C
  C42      1.0000 0.23870  0.24260  0.17590  Biso   1.000  C
  C43      1.0000 0.23870  0.25740  0.67590  Biso   1.000  C
  C44      1.0000 0.76130  0.75740  0.82410  Biso   1.000  C
  H37      1.0000 0.70840  0.72260  0.28420  Biso   1.000  H
  H38      1.0000 0.29160  0.22260  0.21580  Biso   1.000  H
  H39      1.0000 0.29160  0.27740  0.71580  Biso   1.000  H
  H40      1.0000 0.70840  0.77740  0.78420  Biso   1.000  H
  C45      1.0000 0.80520  0.50150  0.35180  Biso   1.000  C
  C46      1.0000 0.19480  0.00150  0.14820  Biso   1.000  C
  C47      1.0000 0.19480  0.49850  0.64820  Biso   1.000  C
  C48      1.0000 0.80520  0.99850  0.85180  Biso   1.000  C
  H41      1.0000 0.79960  0.40490  0.29740  Biso   1.000  H
  H42      1.0000 0.20040  0.90490  0.20260  Biso   1.000  H
  H43      1.0000 0.20040  0.59510  0.70260  Biso   1.000  H
  H44      1.0000 0.79960  0.09510  0.79740  Biso   1.000  H
  H45      1.0000 0.78290  0.42130  0.39620  Biso   1.000  H
  H46      1.0000 0.21710  0.92130  0.10380  Biso   1.000  H
  H47      1.0000 0.21710  0.57870  0.60380  Biso   1.000  H
  H48      1.0000 0.78290  0.07870  0.89620  Biso   1.000  H
  H49      1.0000 0.85970  0.53100  0.37870  Biso   1.000  H
  H50      1.0000 0.14030  0.03100  0.12130  Biso   1.000  H
  H51      1.0000 0.14030  0.46900  0.62130  Biso   1.000  H
  H52      1.0000 0.85970  0.96900  0.87870  Biso   1.000  H
  C49      1.0000 0.82230  0.83900  0.26910  Biso   1.000  C
  C50      1.0000 0.17770  0.33900  0.23090  Biso   1.000  C
  C51      1.0000 0.17770  0.16100  0.73090  Biso   1.000  C
  C52      1.0000 0.82230  0.66100  0.76910  Biso   1.000  C
  H53      1.0000 0.80800  0.78210  0.20620  Biso   1.000  H
  H54      1.0000 0.19200  0.28210  0.29380  Biso   1.000  H
  H55      1.0000 0.19200  0.21790  0.79380  Biso   1.000  H
  H56      1.0000 0.80800  0.71790  0.70620  Biso   1.000  H
  H57      1.0000 0.87400  0.78460  0.29900  Biso   1.000  H
  H58      1.0000 0.12600  0.28460  0.20100  Biso   1.000  H
  H59      1.0000 0.12600  0.21540  0.70100  Biso   1.000  H
  H60      1.0000 0.87400  0.71540  0.79900  Biso   1.000  H
  H61      1.0000 0.82150  0.00840  0.26890  Biso   1.000  H
  H62      1.0000 0.17850  0.50840  0.23110  Biso   1.000  H
  H63      1.0000 0.17850  0.99160  0.73110  Biso   1.000  H
  H64      1.0000 0.82150  0.49160  0.76890  Biso   1.000  H
  C53      1.0000 0.90950  0.13150  0.61690  Biso   1.000  C
  C54      1.0000 0.09050  0.63150  0.88310  Biso   1.000  C
  C55      1.0000 0.09050  0.86850  0.38310  Biso   1.000  C
  C56      1.0000 0.90950  0.36850  0.11690  Biso   1.000  C
  H65      1.0000 0.89510  0.19420  0.67190  Biso   1.000  H
  H66      1.0000 0.10490  0.69420  0.82810  Biso   1.000  H
  H67      1.0000 0.10490  0.80580  0.32810  Biso   1.000  H
  H68      1.0000 0.89510  0.30580  0.17190  Biso   1.000  H
  C57      1.0000 0.94510  0.32980  0.57840  Biso   1.000  C
  C58      1.0000 0.05490  0.82980  0.92160  Biso   1.000  C
  C59      1.0000 0.05490  0.67020  0.42160  Biso   1.000  C
  C60      1.0000 0.94510  0.17020  0.07840  Biso   1.000  C
  H69      1.0000 0.99250  0.37680  0.62210  Biso   1.000  H
  H70      1.0000 0.00750  0.87680  0.87790  Biso   1.000  H
  H71      1.0000 0.00750  0.62320  0.37790  Biso   1.000  H
  H72      1.0000 0.99250  0.12320  0.12210  Biso   1.000  H
  H73      1.0000 0.90920  0.46010  0.56670  Biso   1.000  H
  H74      1.0000 0.09080  0.96010  0.93330  Biso   1.000  H
  H75      1.0000 0.09080  0.53990  0.43330  Biso   1.000  H
  H76      1.0000 0.90920  0.03990  0.06670  Biso   1.000  H
  H77      1.0000 0.95680  0.28210  0.52130  Biso   1.000  H
  H78      1.0000 0.04320  0.78210  0.97870  Biso   1.000  H
  H79      1.0000 0.04320  0.71790  0.47870  Biso   1.000  H
  H80      1.0000 0.95680  0.21790  0.02130  Biso   1.000  H
  C61      1.0000 0.96340  0.94270  0.65010  Biso   1.000  C
  C62      1.0000 0.03660  0.44270  0.84990  Biso   1.000  C
  C63      1.0000 0.03660  0.05730  0.34990  Biso   1.000  C
  C64      1.0000 0.96340  0.55730  0.15010  Biso   1.000  C
  H81      1.0000 0.97830  0.87030  0.59860  Biso   1.000  H
  H82      1.0000 0.02170  0.37030  0.90140  Biso   1.000  H
  H83      1.0000 0.02170  0.12970  0.40140  Biso   1.000  H
  H84      1.0000 0.97830  0.62970  0.09860  Biso   1.000  H
  H85      1.0000 0.93870  0.82750  0.68090  Biso   1.000  H
  H86      1.0000 0.06130  0.32750  0.81910  Biso   1.000  H
  H87      1.0000 0.06130  0.17250  0.31910  Biso   1.000  H
  H88      1.0000 0.93870  0.67250  0.18090  Biso   1.000  H
  H89      1.0000 0.00910  0.00410  0.69300  Biso   1.000  H
  H90      1.0000 0.99090  0.50410  0.80700  Biso   1.000  H
  H91      1.0000 0.99090  0.99590  0.30700  Biso   1.000  H
  H92      1.0000 0.00910  0.49590  0.19300  Biso   1.000  H
  C65      1.0000 0.58810  0.03100  0.57340  Biso   1.000  C
  C66      1.0000 0.41190  0.53100  0.92660  Biso   1.000  C
  C67      1.0000 0.41190  0.96900  0.42660  Biso   1.000  C
  C68      1.0000 0.58810  0.46900  0.07340  Biso   1.000  C
  C69      1.0000 0.75980  0.49900  0.33230  Biso   1.000  C
  C70      1.0000 0.24020  0.99900  0.16770  Biso   1.000  C
  C71      1.0000 0.24020  0.50100  0.66770  Biso   1.000  C
  C72      1.0000 0.75980  0.00100  0.83230  Biso   1.000  C
  C73      1.0000 0.78500  0.87100  0.26140  Biso   1.000  C
  C74      1.0000 0.21500  0.37100  0.23860  Biso   1.000  C
  C75      1.0000 0.21500  0.12900  0.73860  Biso   1.000  C
  C76      1.0000 0.78500  0.62900  0.76140  Biso   1.000  C
  C77      1.0000 0.60730  0.38900  0.52830  Biso   1.000  C
  C78      1.0000 0.39270  0.88900  0.97170  Biso   1.000  C
  C79      1.0000 0.39270  0.61100  0.47170  Biso   1.000  C
  C80      1.0000 0.60730  0.11100  0.02830  Biso   1.000  C
  H93      1.0000 0.61900  0.01240  0.63600  Biso   1.000  H
  H94      1.0000 0.38100  0.51240  0.86400  Biso   1.000  H
  H95      1.0000 0.38100  0.98760  0.36400  Biso   1.000  H
  H96      1.0000 0.61900  0.48760  0.13600  Biso   1.000  H
  H97      1.0000 0.58120  0.87980  0.54310  Biso   1.000  H
  H98      1.0000 0.41880  0.37980  0.95690  Biso   1.000  H
  H99      1.0000 0.41880  0.12020  0.45690  Biso   1.000  H
  H100     1.0000 0.58120  0.62020  0.04310  Biso   1.000  H
  H101     1.0000 0.53780  0.09480  0.57430  Biso   1.000  H
  H102     1.0000 0.46220  0.59480  0.92570  Biso   1.000  H
  H103     1.0000 0.46220  0.90520  0.42570  Biso   1.000  H
  H104     1.0000 0.53780  0.40520  0.07430  Biso   1.000  H
  H105     1.0000 0.75800  0.42770  0.27300  Biso   1.000  H
  H106     1.0000 0.24200  0.92770  0.22700  Biso   1.000  H
  H107     1.0000 0.24200  0.57230  0.72700  Biso   1.000  H
  H108     1.0000 0.75800  0.07230  0.77300  Biso   1.000  H
  H109     1.0000 0.71430  0.45250  0.35270  Biso   1.000  H
  H110     1.0000 0.28570  0.95250  0.14730  Biso   1.000  H
  H111     1.0000 0.28570  0.54750  0.64730  Biso   1.000  H
  H112     1.0000 0.71430  0.04750  0.85270  Biso   1.000  H
  H113     1.0000 0.80610  0.44670  0.37680  Biso   1.000  H
  H114     1.0000 0.19390  0.94670  0.12320  Biso   1.000  H
  H115     1.0000 0.19390  0.55330  0.62320  Biso   1.000  H
  H116     1.0000 0.80610  0.05330  0.87680  Biso   1.000  H
  H117     1.0000 0.83880  0.91540  0.28560  Biso   1.000  H
  H118     1.0000 0.16120  0.41540  0.21440  Biso   1.000  H
  H119     1.0000 0.16120  0.08460  0.71440  Biso   1.000  H
  H120     1.0000 0.83880  0.58460  0.78560  Biso   1.000  H
  H121     1.0000 0.75320  0.00990  0.24740  Biso   1.000  H
  H122     1.0000 0.24680  0.50990  0.25260  Biso   1.000  H
  H123     1.0000 0.24680  0.99010  0.75260  Biso   1.000  H
  H124     1.0000 0.75320  0.49010  0.74740  Biso   1.000  H
  H125     1.0000 0.78020  0.77970  0.20570  Biso   1.000  H
  H126     1.0000 0.21980  0.27970  0.29430  Biso   1.000  H
  H127     1.0000 0.21980  0.22030  0.79430  Biso   1.000  H
  H128     1.0000 0.78020  0.72030  0.70570  Biso   1.000  H
  H129     1.0000 0.55970  0.41390  0.54750  Biso   1.000  H
  H130     1.0000 0.44030  0.91390  0.95250  Biso   1.000  H
  H131     1.0000 0.44030  0.58610  0.45250  Biso   1.000  H
  H132     1.0000 0.55970  0.08610  0.04750  Biso   1.000  H
  H133     1.0000 0.60120  0.44770  0.46630  Biso   1.000  H
  H134     1.0000 0.39880  0.94770  0.03370  Biso   1.000  H
  H135     1.0000 0.39880  0.55230  0.53370  Biso   1.000  H
  H136     1.0000 0.60120  0.05230  0.96630  Biso   1.000  H
  H137     1.0000 0.64960  0.47000  0.56990  Biso   1.000  H
  H138     1.0000 0.35040  0.97000  0.93010  Biso   1.000  H
  H139     1.0000 0.35040  0.53000  0.43010  Biso   1.000  H
  H140     1.0000 0.64960  0.03000  0.06990  Biso   1.000  H
