data_image0
_cell_length_a       9.7029
_cell_length_b       10.1842
_cell_length_c       11.1003
_cell_angle_alpha    107.292
_cell_angle_beta     91.191
_cell_angle_gamma    109.512

_symmetry_space_group_name_H-M    "P 1"
_symmetry_int_tables_number       1

loop_
  _symmetry_equiv_pos_as_xyz
  'x, y, z'

loop_
  _atom_site_label
  _atom_site_occupancy
  _atom_site_fract_x
  _atom_site_fract_y
  _atom_site_fract_z
  _atom_site_thermal_displace_type
  _atom_site_B_iso_or_equiv
  _atom_site_type_symbol
  Cu1      1.0000 0.27972  0.83364  0.64778  Biso   1.000  Cu
  Cu2      1.0000 0.72028  0.16636  0.35222  Biso   1.000  Cu
  Cu3      1.0000 0.44893  0.41679  0.56854  Biso   1.000  Cu
  Cu4      1.0000 0.55107  0.58321  0.43146  Biso   1.000  Cu
  Cu5      1.0000 0.91770  0.94299  0.70368  Biso   1.000  Cu
  Cu6      1.0000 0.08230  0.05701  0.29632  Biso   1.000  Cu
  C1       1.0000 0.77240  0.38890  0.83800  Biso   1.000  C
  C2       1.0000 0.22760  0.61110  0.16200  Biso   1.000  C
  H1       1.0000 0.85840  0.44830  0.89380  Biso   1.000  H
  H2       1.0000 0.14160  0.55170  0.10620  Biso   1.000  H
  N1       1.0000 0.02580  0.86050  0.79270  Biso   1.000  N
  N2       1.0000 0.97420  0.13950  0.20730  Biso   1.000  N
  N3       1.0000 0.30070  0.99420  0.57800  Biso   1.000  N
  N4       1.0000 0.69930  0.00580  0.42200  Biso   1.000  N
  C3       1.0000 0.19660  0.97600  0.48610  Biso   1.000  C
  C4       1.0000 0.80340  0.02400  0.51390  Biso   1.000  C
  N5       1.0000 0.33320  0.20070  0.53210  Biso   1.000  N
  N6       1.0000 0.66680  0.79930  0.46790  Biso   1.000  N
  N7       1.0000 0.15420  0.83460  0.79160  Biso   1.000  N
  N8       1.0000 0.84580  0.16540  0.20840  Biso   1.000  N
  N9       1.0000 0.21200  0.09750  0.45650  Biso   1.000  N
  N10      1.0000 0.78800  0.90250  0.54350  Biso   1.000  N
  C5       1.0000 0.96330  0.81910  0.88820  Biso   1.000  C
  C6       1.0000 0.03670  0.18090  0.11180  Biso   1.000  C
  N11      1.0000 0.76610  0.88840  0.84080  Biso   1.000  N
  N12      1.0000 0.23390  0.11160  0.15920  Biso   1.000  N
  C7       1.0000 0.38440  0.13630  0.60370  Biso   1.000  C
  C8       1.0000 0.61560  0.86370  0.39630  Biso   1.000  C
  N13      1.0000 0.58000  0.36400  0.68940  Biso   1.000  N
  N14      1.0000 0.42000  0.63600  0.31060  Biso   1.000  N
  N15      1.0000 0.16540  0.78020  0.88360  Biso   1.000  N
  N16      1.0000 0.83460  0.21980  0.11640  Biso   1.000  N
  N17      1.0000 0.04730  0.76770  0.94540  Biso   1.000  N
  N18      1.0000 0.95270  0.23230  0.05460  Biso   1.000  N
  N19      1.0000 0.58440  0.15630  0.74930  Biso   1.000  N
  N20      1.0000 0.41560  0.84370  0.25070  Biso   1.000  N
  C9       1.0000 0.81800  0.82620  0.91290  Biso   1.000  C
  C10      1.0000 0.18200  0.17380  0.08710  Biso   1.000  C
  N21      1.0000 0.74780  0.76590  0.99590  Biso   1.000  N
  N22      1.0000 0.25220  0.23410  0.00410  Biso   1.000  N
  C11      1.0000 0.62980  0.88630  0.85320  Biso   1.000  C
  C12      1.0000 0.37020  0.11370  0.14680  Biso   1.000  C
  H3       1.0000 0.58870  0.92670  0.80370  Biso   1.000  H
  H4       1.0000 0.41130  0.07330  0.19630  Biso   1.000  H
  C13      1.0000 0.52310  0.22010  0.68540  Biso   1.000  C
  C14      1.0000 0.47690  0.77990  0.31460  Biso   1.000  C
  C15      1.0000 0.54760  0.82800  0.93460  Biso   1.000  C
  C16      1.0000 0.45240  0.17200  0.06540  Biso   1.000  C
  H5       1.0000 0.45260  0.82850  0.94250  Biso   1.000  H
  H6       1.0000 0.54740  0.17150  0.05750  Biso   1.000  H
  C17      1.0000 0.70480  0.44520  0.76450  Biso   1.000  C
  C18      1.0000 0.29520  0.55480  0.23550  Biso   1.000  C
  H7       1.0000 0.74920  0.54300  0.76860  Biso   1.000  H
  H8       1.0000 0.25080  0.45700  0.23140  Biso   1.000  H
  C19      1.0000 0.61270  0.76760  0.00540  Biso   1.000  C
  C20      1.0000 0.38730  0.23240  0.99460  Biso   1.000  C
  H9       1.0000 0.55910  0.72650  0.06200  Biso   1.000  H
  H10      1.0000 0.44090  0.27350  0.93800  Biso   1.000  H
  N23      1.0000 0.00900  0.84170  0.31170  Biso   1.000  N
  N24      1.0000 0.99100  0.15830  0.68830  Biso   1.000  N
  N25      1.0000 0.06260  0.72030  0.44980  Biso   1.000  N
  N26      1.0000 0.93740  0.27970  0.55020  Biso   1.000  N
  C21      1.0000 0.08190  0.83800  0.41350  Biso   1.000  C
  C22      1.0000 0.91810  0.16200  0.58650  Biso   1.000  C
  C23      1.0000 0.95900  0.59460  0.37630  Biso   1.000  C
  C24      1.0000 0.04100  0.40540  0.62370  Biso   1.000  C
  H11      1.0000 0.94210  0.50940  0.39770  Biso   1.000  H
  H12      1.0000 0.05790  0.49060  0.60230  Biso   1.000  H
  C25      1.0000 0.90330  0.71420  0.24020  Biso   1.000  C
  C26      1.0000 0.09670  0.28580  0.75980  Biso   1.000  C
  H13      1.0000 0.84810  0.71280  0.17000  Biso   1.000  H
  H14      1.0000 0.15190  0.28720  0.83000  Biso   1.000  H
  C27      1.0000 0.87630  0.58730  0.26960  Biso   1.000  C
  C28      1.0000 0.12370  0.41270  0.73040  Biso   1.000  C
  H15      1.0000 0.80490  0.49920  0.21970  Biso   1.000  H
  H16      1.0000 0.19510  0.50080  0.78030  Biso   1.000  H
  C29      1.0000 0.70870  0.24470  0.82540  Biso   1.000  C
  C30      1.0000 0.29130  0.75530  0.17460  Biso   1.000  C
  H17      1.0000 0.75450  0.20540  0.87250  Biso   1.000  H
  H18      1.0000 0.24550  0.79460  0.12750  Biso   1.000  H
  N27      1.0000 0.36220  0.68450  0.61780  Biso   1.000  N
  N28      1.0000 0.63780  0.31550  0.38220  Biso   1.000  N
  C31      1.0000 0.40060  0.58710  0.59660  Biso   1.000  C
  C32      1.0000 0.59940  0.41290  0.40340  Biso   1.000  C
