data_image0
_cell_length_a       8.3754
_cell_length_b       10.891
_cell_length_c       14.418
_cell_angle_alpha    96.696
_cell_angle_beta     101.866
_cell_angle_gamma    96.275

_symmetry_space_group_name_H-M    "P 1"
_symmetry_int_tables_number       1

loop_
  _symmetry_equiv_pos_as_xyz
  'x, y, z'

loop_
  _atom_site_label
  _atom_site_occupancy
  _atom_site_fract_x
  _atom_site_fract_y
  _atom_site_fract_z
  _atom_site_thermal_displace_type
  _atom_site_B_iso_or_equiv
  _atom_site_type_symbol
  Cu1      1.0000 0.24732  0.10103  0.66302  Biso   1.000  Cu
  Cu2      1.0000 0.75268  0.89897  0.33698  Biso   1.000  Cu
  Cu3      1.0000 0.79562  0.31488  0.66491  Biso   1.000  Cu
  Cu4      1.0000 0.20438  0.68512  0.33509  Biso   1.000  Cu
  Cu5      1.0000 0.30902  0.76275  0.95392  Biso   1.000  Cu
  Cu6      1.0000 0.69098  0.23725  0.04608  Biso   1.000  Cu
  Cu7      1.0000 0.14778  0.25285  0.93383  Biso   1.000  Cu
  Cu8      1.0000 0.85222  0.74715  0.06617  Biso   1.000  Cu
  C1       1.0000 0.26640  0.51860  0.00070  Biso   1.000  C
  C2       1.0000 0.73360  0.48140  0.99930  Biso   1.000  C
  N1       1.0000 0.31530  0.91580  0.90250  Biso   1.000  N
  N2       1.0000 0.68470  0.08420  0.09750  Biso   1.000  N
  N3       1.0000 0.34850  0.63320  0.03560  Biso   1.000  N
  N4       1.0000 0.65150  0.36680  0.96440  Biso   1.000  N
  N5       1.0000 0.28940  0.41540  0.03920  Biso   1.000  N
  N6       1.0000 0.71060  0.58460  0.96080  Biso   1.000  N
  N7       1.0000 0.05560  0.39330  0.87300  Biso   1.000  N
  N8       1.0000 0.94440  0.60670  0.12700  Biso   1.000  N
  N9       1.0000 0.28530  0.06390  0.80850  Biso   1.000  N
  N10      1.0000 0.71470  0.93610  0.19150  Biso   1.000  N
  N11      1.0000 0.12660  0.59310  0.85430  Biso   1.000  N
  N12      1.0000 0.87340  0.40690  0.14570  Biso   1.000  N
  N13      1.0000 0.34200  0.92760  0.65480  Biso   1.000  N
  N14      1.0000 0.65800  0.07240  0.34520  Biso   1.000  N
  N15      1.0000 0.24360  0.10570  0.89190  Biso   1.000  N
  N16      1.0000 0.75640  0.89430  0.10810  Biso   1.000  N
  C3       1.0000 0.32660  0.95070  0.81740  Biso   1.000  C
  C4       1.0000 0.67340  0.04930  0.18260  Biso   1.000  C
  N17      1.0000 0.96810  0.41220  0.78600  Biso   1.000  N
  N18      1.0000 0.03190  0.58780  0.21400  Biso   1.000  N
  C5       1.0000 0.37710  0.88070  0.73810  Biso   1.000  C
  C6       1.0000 0.62290  0.11930  0.26190  Biso   1.000  C
  N19      1.0000 0.14860  0.12630  0.06210  Biso   1.000  N
  N20      1.0000 0.85140  0.87370  0.93790  Biso   1.000  N
  C7       1.0000 0.26330  0.01550  0.94610  Biso   1.000  C
  C8       1.0000 0.73670  0.98450  0.05390  Biso   1.000  C
  N21      1.0000 0.85460  0.49280  0.61920  Biso   1.000  N
  N22      1.0000 0.14540  0.50720  0.38080  Biso   1.000  N
  N23      1.0000 0.25070  0.93430  0.09160  Biso   1.000  N
  N24      1.0000 0.74930  0.06570  0.90840  Biso   1.000  N
  C9       1.0000 0.14620  0.50390  0.91030  Biso   1.000  C
  C10      1.0000 0.85380  0.49610  0.08970  Biso   1.000  C
  N25      1.0000 0.45520  0.78220  0.75270  Biso   1.000  N
  N26      1.0000 0.54480  0.21780  0.24730  Biso   1.000  N
  C11      1.0000 0.21960  0.02540  0.03970  Biso   1.000  C
  C12      1.0000 0.78040  0.97460  0.96030  Biso   1.000  C
  C13      1.0000 0.39390  0.87100  0.58130  Biso   1.000  C
  C14      1.0000 0.60610  0.12900  0.41870  Biso   1.000  C
  H1       1.0000 0.37250  0.90110  0.52290  Biso   1.000  H
  H2       1.0000 0.62750  0.09890  0.47710  Biso   1.000  H
  N27      1.0000 0.00740  0.69460  0.67750  Biso   1.000  N
  N28      1.0000 0.99260  0.30540  0.32250  Biso   1.000  N
  N29      1.0000 0.44200  0.21040  0.65220  Biso   1.000  N
  N30      1.0000 0.55800  0.78960  0.34780  Biso   1.000  N
  N31      1.0000 0.02650  0.13940  0.62200  Biso   1.000  N
  N32      1.0000 0.97350  0.86060  0.37800  Biso   1.000  N
  C15      1.0000 0.01600  0.53110  0.77730  Biso   1.000  C
  C16      1.0000 0.98400  0.46890  0.22270  Biso   1.000  C
  C17      1.0000 0.57100  0.25880  0.65650  Biso   1.000  C
  C18      1.0000 0.42900  0.74120  0.34350  Biso   1.000  C
  C19      1.0000 0.40410  0.42720  0.12020  Biso   1.000  C
  C20      1.0000 0.59590  0.57280  0.87980  Biso   1.000  C
  H3       1.0000 0.42730  0.35630  0.14780  Biso   1.000  H
  H4       1.0000 0.57270  0.64370  0.85220  Biso   1.000  H
  C21      1.0000 0.91650  0.18960  0.61450  Biso   1.000  C
  C22      1.0000 0.08350  0.81040  0.38550  Biso   1.000  C
  C23      1.0000 0.50390  0.72860  0.67740  Biso   1.000  C
  C24      1.0000 0.49610  0.27140  0.32260  Biso   1.000  C
  H5       1.0000 0.55870  0.65930  0.68440  Biso   1.000  H
  H6       1.0000 0.44130  0.34070  0.31560  Biso   1.000  H
  C25      1.0000 0.45690  0.64340  0.11890  Biso   1.000  C
  C26      1.0000 0.54310  0.35660  0.88110  Biso   1.000  C
  H7       1.0000 0.51240  0.72170  0.14730  Biso   1.000  H
  H8       1.0000 0.48760  0.27830  0.85270  Biso   1.000  H
  C27      1.0000 0.95560  0.57770  0.68670  Biso   1.000  C
  C28      1.0000 0.04440  0.42230  0.31330  Biso   1.000  C
  C29      1.0000 0.48900  0.54160  0.16400  Biso   1.000  C
  C30      1.0000 0.51100  0.45840  0.83600  Biso   1.000  C
  H9       1.0000 0.56520  0.54960  0.22190  Biso   1.000  H
  H10      1.0000 0.43480  0.45040  0.77810  Biso   1.000  H
  C31      1.0000 0.95230  0.72910  0.59140  Biso   1.000  C
  C32      1.0000 0.04770  0.27090  0.40860  Biso   1.000  C
  H11      1.0000 0.98440  0.81020  0.58170  Biso   1.000  H
  H12      1.0000 0.01560  0.18980  0.41830  Biso   1.000  H
  C33      1.0000 0.10710  0.13520  0.14660  Biso   1.000  C
  C34      1.0000 0.89290  0.86480  0.85340  Biso   1.000  C
  H13      1.0000 0.05930  0.20410  0.16620  Biso   1.000  H
  H14      1.0000 0.94070  0.79590  0.83380  Biso   1.000  H
  C35      1.0000 0.20560  0.94680  0.17630  Biso   1.000  C
  C36      1.0000 0.79440  0.05320  0.82370  Biso   1.000  C
  H15      1.0000 0.22490  0.88600  0.21600  Biso   1.000  H
  H16      1.0000 0.77510  0.11400  0.78400  Biso   1.000  H
  C37      1.0000 0.47740  0.77040  0.58950  Biso   1.000  C
  C38      1.0000 0.52260  0.22960  0.41050  Biso   1.000  C
  H17      1.0000 0.51450  0.73210  0.53840  Biso   1.000  H
  H18      1.0000 0.48550  0.26790  0.46160  Biso   1.000  H
  C39      1.0000 0.80290  0.53060  0.53430  Biso   1.000  C
  C40      1.0000 0.19710  0.46940  0.46570  Biso   1.000  C
  H19      1.0000 0.73280  0.47460  0.48540  Biso   1.000  H
  H20      1.0000 0.26720  0.52540  0.51460  Biso   1.000  H
  C41      1.0000 0.13260  0.04600  0.20590  Biso   1.000  C
  C42      1.0000 0.86740  0.95400  0.79410  Biso   1.000  C
  H21      1.0000 0.10110  0.05280  0.26430  Biso   1.000  H
  H22      1.0000 0.89890  0.94720  0.73570  Biso   1.000  H
  C43      1.0000 0.84960  0.64830  0.51700  Biso   1.000  C
  C44      1.0000 0.15040  0.35170  0.48300  Biso   1.000  C
  H23      1.0000 0.81360  0.67300  0.45740  Biso   1.000  H
  H24      1.0000 0.18640  0.32700  0.54260  Biso   1.000  H
