data_image0
_cell_length_a       16.039
_cell_length_b       9.0345
_cell_length_c       14.6031
_cell_angle_alpha    90
_cell_angle_beta     111.974
_cell_angle_gamma    90

_symmetry_space_group_name_H-M    "P 1"
_symmetry_int_tables_number       1

loop_
  _symmetry_equiv_pos_as_xyz
  'x, y, z'

loop_
  _atom_site_label
  _atom_site_occupancy
  _atom_site_fract_x
  _atom_site_fract_y
  _atom_site_fract_z
  _atom_site_thermal_displace_type
  _atom_site_B_iso_or_equiv
  _atom_site_type_symbol
  Cu1      1.0000 0.66161  0.00808  0.59620  Biso   1.000  Cu
  Cu2      1.0000 0.33839  0.00808  0.90380  Biso   1.000  Cu
  Cu3      1.0000 0.16161  0.50808  0.59620  Biso   1.000  Cu
  Cu4      1.0000 0.83839  0.50808  0.90380  Biso   1.000  Cu
  Cu5      1.0000 0.33839  0.99192  0.40380  Biso   1.000  Cu
  Cu6      1.0000 0.66161  0.99192  0.09620  Biso   1.000  Cu
  Cu7      1.0000 0.83839  0.49192  0.40380  Biso   1.000  Cu
  Cu8      1.0000 0.16161  0.49192  0.09620  Biso   1.000  Cu
  N1       1.0000 0.76940  0.96410  0.54780  Biso   1.000  N
  N2       1.0000 0.23060  0.96410  0.95220  Biso   1.000  N
  N3       1.0000 0.26940  0.46410  0.54780  Biso   1.000  N
  N4       1.0000 0.73060  0.46410  0.95220  Biso   1.000  N
  N5       1.0000 0.23060  0.03590  0.45220  Biso   1.000  N
  N6       1.0000 0.76940  0.03590  0.04780  Biso   1.000  N
  N7       1.0000 0.73060  0.53590  0.45220  Biso   1.000  N
  N8       1.0000 0.26940  0.53590  0.04780  Biso   1.000  N
  N9       1.0000 0.80530  0.68110  0.80710  Biso   1.000  N
  N10      1.0000 0.19470  0.68110  0.69290  Biso   1.000  N
  N11      1.0000 0.30530  0.18110  0.80710  Biso   1.000  N
  N12      1.0000 0.69470  0.18110  0.69290  Biso   1.000  N
  N13      1.0000 0.19470  0.31890  0.19290  Biso   1.000  N
  N14      1.0000 0.80530  0.31890  0.30710  Biso   1.000  N
  N15      1.0000 0.69470  0.81890  0.19290  Biso   1.000  N
  N16      1.0000 0.30530  0.81890  0.30710  Biso   1.000  N
  C1       1.0000 0.80690  0.80430  0.68530  Biso   1.000  C
  C2       1.0000 0.19310  0.80430  0.81470  Biso   1.000  C
  C3       1.0000 0.30690  0.30430  0.68530  Biso   1.000  C
  C4       1.0000 0.69310  0.30430  0.81470  Biso   1.000  C
  C5       1.0000 0.19310  0.19570  0.31470  Biso   1.000  C
  C6       1.0000 0.80690  0.19570  0.18530  Biso   1.000  C
  C7       1.0000 0.69310  0.69570  0.31470  Biso   1.000  C
  C8       1.0000 0.30690  0.69570  0.18530  Biso   1.000  C
  C9       1.0000 0.82910  0.86530  0.60490  Biso   1.000  C
  C10      1.0000 0.17090  0.86530  0.89510  Biso   1.000  C
  C11      1.0000 0.32910  0.36530  0.60490  Biso   1.000  C
  C12      1.0000 0.67090  0.36530  0.89510  Biso   1.000  C
  C13      1.0000 0.17090  0.13470  0.39510  Biso   1.000  C
  C14      1.0000 0.82910  0.13470  0.10490  Biso   1.000  C
  C15      1.0000 0.67090  0.63470  0.39510  Biso   1.000  C
  C16      1.0000 0.32910  0.63470  0.10490  Biso   1.000  C
  N17      1.0000 0.85490  0.70710  0.75260  Biso   1.000  N
  N18      1.0000 0.14510  0.70710  0.74740  Biso   1.000  N
  N19      1.0000 0.35490  0.20710  0.75260  Biso   1.000  N
  N20      1.0000 0.64510  0.20710  0.74740  Biso   1.000  N
  N21      1.0000 0.14510  0.29290  0.24740  Biso   1.000  N
  N22      1.0000 0.85490  0.29290  0.25260  Biso   1.000  N
  N23      1.0000 0.64510  0.79290  0.24740  Biso   1.000  N
  N24      1.0000 0.35490  0.79290  0.25260  Biso   1.000  N
  N25      1.0000 0.90230  0.81470  0.59260  Biso   1.000  N
  N26      1.0000 0.09770  0.81470  0.90740  Biso   1.000  N
  N27      1.0000 0.40230  0.31470  0.59260  Biso   1.000  N
  N28      1.0000 0.59770  0.31470  0.90740  Biso   1.000  N
  N29      1.0000 0.09770  0.18530  0.40740  Biso   1.000  N
  N30      1.0000 0.90230  0.18530  0.09260  Biso   1.000  N
  N31      1.0000 0.59770  0.68530  0.40740  Biso   1.000  N
  N32      1.0000 0.40230  0.68530  0.09260  Biso   1.000  N
  N33      1.0000 0.73090  0.75970  0.77420  Biso   1.000  N
  N34      1.0000 0.26910  0.75970  0.72580  Biso   1.000  N
  N35      1.0000 0.23090  0.25970  0.77420  Biso   1.000  N
  N36      1.0000 0.76910  0.25970  0.72580  Biso   1.000  N
  N37      1.0000 0.26910  0.24030  0.22580  Biso   1.000  N
  N38      1.0000 0.73090  0.24030  0.27420  Biso   1.000  N
  N39      1.0000 0.76910  0.74030  0.22580  Biso   1.000  N
  N40      1.0000 0.23090  0.74030  0.27420  Biso   1.000  N
  C17      1.0000 0.91440  0.86720  0.51370  Biso   1.000  C
  C18      1.0000 0.08560  0.86720  0.98630  Biso   1.000  C
  C19      1.0000 0.41440  0.36720  0.51370  Biso   1.000  C
  C20      1.0000 0.58560  0.36720  0.98630  Biso   1.000  C
  C21      1.0000 0.08560  0.13280  0.48630  Biso   1.000  C
  C22      1.0000 0.91440  0.13280  0.01370  Biso   1.000  C
  C23      1.0000 0.58560  0.63280  0.48630  Biso   1.000  C
  C24      1.0000 0.41440  0.63280  0.01370  Biso   1.000  C
  H1       1.0000 0.96360  0.83340  0.50060  Biso   1.000  H
  H2       1.0000 0.03640  0.83340  0.99940  Biso   1.000  H
  H3       1.0000 0.46360  0.33340  0.50060  Biso   1.000  H
  H4       1.0000 0.53640  0.33340  0.99940  Biso   1.000  H
  H5       1.0000 0.03640  0.16660  0.49940  Biso   1.000  H
  H6       1.0000 0.96360  0.16660  0.00060  Biso   1.000  H
  H7       1.0000 0.53640  0.66660  0.49940  Biso   1.000  H
  H8       1.0000 0.46360  0.66660  0.00060  Biso   1.000  H
  C25      1.0000 0.85820  0.96920  0.45000  Biso   1.000  C
  C26      1.0000 0.14180  0.96920  0.05000  Biso   1.000  C
  C27      1.0000 0.35820  0.46920  0.45000  Biso   1.000  C
  C28      1.0000 0.64180  0.46920  0.05000  Biso   1.000  C
  C29      1.0000 0.14180  0.03080  0.55000  Biso   1.000  C
  C30      1.0000 0.85820  0.03080  0.95000  Biso   1.000  C
  C31      1.0000 0.64180  0.53080  0.55000  Biso   1.000  C
  C32      1.0000 0.35820  0.53080  0.95000  Biso   1.000  C
  H9       1.0000 0.86860  0.00460  0.39540  Biso   1.000  H
  H10      1.0000 0.13140  0.00460  0.10460  Biso   1.000  H
  H11      1.0000 0.36860  0.50460  0.39540  Biso   1.000  H
  H12      1.0000 0.63140  0.50460  0.10460  Biso   1.000  H
  H13      1.0000 0.13140  0.99540  0.60460  Biso   1.000  H
  H14      1.0000 0.86860  0.99540  0.89540  Biso   1.000  H
  H15      1.0000 0.63140  0.49540  0.60460  Biso   1.000  H
  H16      1.0000 0.36860  0.49540  0.89540  Biso   1.000  H
  C33      1.0000 0.78590  0.01590  0.47140  Biso   1.000  C
  C34      1.0000 0.21410  0.01590  0.02860  Biso   1.000  C
  C35      1.0000 0.28590  0.51590  0.47140  Biso   1.000  C
  C36      1.0000 0.71410  0.51590  0.02860  Biso   1.000  C
  C37      1.0000 0.21410  0.98410  0.52860  Biso   1.000  C
  C38      1.0000 0.78590  0.98410  0.97140  Biso   1.000  C
  C39      1.0000 0.71410  0.48410  0.52860  Biso   1.000  C
  C40      1.0000 0.28590  0.48410  0.97140  Biso   1.000  C
  H17      1.0000 0.74720  0.08620  0.43070  Biso   1.000  H
  H18      1.0000 0.25280  0.08620  0.06930  Biso   1.000  H
  H19      1.0000 0.24720  0.58620  0.43070  Biso   1.000  H
  H20      1.0000 0.75280  0.58620  0.06930  Biso   1.000  H
  H21      1.0000 0.25280  0.91380  0.56930  Biso   1.000  H
  H22      1.0000 0.74720  0.91380  0.93070  Biso   1.000  H
  H23      1.0000 0.75280  0.41380  0.56930  Biso   1.000  H
  H24      1.0000 0.24720  0.41380  0.93070  Biso   1.000  H
  N41      1.0000 0.73070  0.83850  0.69710  Biso   1.000  N
  N42      1.0000 0.26930  0.83850  0.80290  Biso   1.000  N
  N43      1.0000 0.23070  0.33850  0.69710  Biso   1.000  N
  N44      1.0000 0.76930  0.33850  0.80290  Biso   1.000  N
  N45      1.0000 0.26930  0.16150  0.30290  Biso   1.000  N
  N46      1.0000 0.73070  0.16150  0.19710  Biso   1.000  N
  N47      1.0000 0.76930  0.66150  0.30290  Biso   1.000  N
  N48      1.0000 0.23070  0.66150  0.19710  Biso   1.000  N
  C41      1.0000 0.53850  0.99960  0.52050  Biso   1.000  C
  C42      1.0000 0.46150  0.99960  0.97950  Biso   1.000  C
  C43      1.0000 0.03850  0.49960  0.52050  Biso   1.000  C
  C44      1.0000 0.96150  0.49960  0.97950  Biso   1.000  C
  C45      1.0000 0.46150  0.00040  0.47950  Biso   1.000  C
  C46      1.0000 0.53850  0.00040  0.02050  Biso   1.000  C
  C47      1.0000 0.96150  0.50040  0.47950  Biso   1.000  C
  C48      1.0000 0.03850  0.50040  0.02050  Biso   1.000  C
