data_image0
_cell_length_a       17.0364
_cell_length_b       17.0364
_cell_length_c       17.6959
_cell_angle_alpha    90
_cell_angle_beta     90
_cell_angle_gamma    90

_symmetry_space_group_name_H-M    "P 1"
_symmetry_int_tables_number       1

loop_
  _symmetry_equiv_pos_as_xyz
  'x, y, z'

loop_
  _atom_site_label
  _atom_site_occupancy
  _atom_site_fract_x
  _atom_site_fract_y
  _atom_site_fract_z
  _atom_site_thermal_displace_type
  _atom_site_B_iso_or_equiv
  _atom_site_type_symbol
  Cu1      1.0000 0.18285  0.43285  0.12500  Biso   1.000  Cu
  Cu2      1.0000 0.81715  0.93285  0.37500  Biso   1.000  Cu
  Cu3      1.0000 0.68285  0.06715  0.87500  Biso   1.000  Cu
  Cu4      1.0000 0.68285  0.93285  0.62500  Biso   1.000  Cu
  Cu5      1.0000 0.81715  0.06715  0.12500  Biso   1.000  Cu
  Cu6      1.0000 0.31715  0.43285  0.87500  Biso   1.000  Cu
  Cu7      1.0000 0.18285  0.56715  0.37500  Biso   1.000  Cu
  Cu8      1.0000 0.31715  0.56715  0.62500  Biso   1.000  Cu
  Cu9      1.0000 0.81715  0.56715  0.87500  Biso   1.000  Cu
  Cu10     1.0000 0.68285  0.56715  0.12500  Biso   1.000  Cu
  Cu11     1.0000 0.81715  0.43285  0.62500  Biso   1.000  Cu
  Cu12     1.0000 0.68285  0.43285  0.37500  Biso   1.000  Cu
  Cu13     1.0000 0.31715  0.06715  0.37500  Biso   1.000  Cu
  Cu14     1.0000 0.18285  0.06715  0.62500  Biso   1.000  Cu
  Cu15     1.0000 0.31715  0.93285  0.12500  Biso   1.000  Cu
  Cu16     1.0000 0.18285  0.93285  0.87500  Biso   1.000  Cu
  Cl1      1.0000 0.92689  0.32680  0.94623  Biso   1.000  Cl
  Cl2      1.0000 0.92320  0.67689  0.19623  Biso   1.000  Cl
  Cl3      1.0000 0.57680  0.32311  0.69623  Biso   1.000  Cl
  Cl4      1.0000 0.57680  0.67689  0.80377  Biso   1.000  Cl
  Cl5      1.0000 0.92320  0.32311  0.30377  Biso   1.000  Cl
  Cl6      1.0000 0.42689  0.82680  0.44623  Biso   1.000  Cl
  Cl7      1.0000 0.42320  0.17689  0.69623  Biso   1.000  Cl
  Cl8      1.0000 0.07680  0.82311  0.19623  Biso   1.000  Cl
  Cl9      1.0000 0.07680  0.17689  0.30377  Biso   1.000  Cl
  Cl10     1.0000 0.57311  0.67320  0.44623  Biso   1.000  Cl
  Cl11     1.0000 0.57311  0.32680  0.05377  Biso   1.000  Cl
  Cl12     1.0000 0.92689  0.67320  0.55377  Biso   1.000  Cl
  Cl13     1.0000 0.07311  0.17320  0.94623  Biso   1.000  Cl
  Cl14     1.0000 0.07311  0.82680  0.55377  Biso   1.000  Cl
  Cl15     1.0000 0.42689  0.17320  0.05377  Biso   1.000  Cl
  Cl16     1.0000 0.42320  0.82311  0.80377  Biso   1.000  Cl
  Cl17     1.0000 0.07311  0.67320  0.05377  Biso   1.000  Cl
  Cl18     1.0000 0.57680  0.82311  0.30377  Biso   1.000  Cl
  Cl19     1.0000 0.92320  0.17689  0.80377  Biso   1.000  Cl
  Cl20     1.0000 0.92320  0.82311  0.69623  Biso   1.000  Cl
  Cl21     1.0000 0.57680  0.17689  0.19623  Biso   1.000  Cl
  Cl22     1.0000 0.57311  0.17320  0.55377  Biso   1.000  Cl
  Cl23     1.0000 0.07680  0.32311  0.80377  Biso   1.000  Cl
  Cl24     1.0000 0.42320  0.67689  0.30377  Biso   1.000  Cl
  Cl25     1.0000 0.42320  0.32311  0.19623  Biso   1.000  Cl
  Cl26     1.0000 0.42689  0.32680  0.55377  Biso   1.000  Cl
  Cl27     1.0000 0.42689  0.67320  0.94623  Biso   1.000  Cl
  Cl28     1.0000 0.07311  0.32680  0.44623  Biso   1.000  Cl
  Cl29     1.0000 0.92689  0.82680  0.05377  Biso   1.000  Cl
  Cl30     1.0000 0.92689  0.17320  0.44623  Biso   1.000  Cl
  Cl31     1.0000 0.57311  0.82680  0.94623  Biso   1.000  Cl
  Cl32     1.0000 0.07680  0.67689  0.69623  Biso   1.000  Cl
  N1       1.0000 0.23507  0.43732  0.02941  Biso   1.000  N
  N2       1.0000 0.81268  0.98507  0.27941  Biso   1.000  N
  N3       1.0000 0.68732  0.01493  0.77941  Biso   1.000  N
  N4       1.0000 0.68732  0.98507  0.72059  Biso   1.000  N
  N5       1.0000 0.81268  0.01493  0.22059  Biso   1.000  N
  N6       1.0000 0.73507  0.93732  0.52941  Biso   1.000  N
  N7       1.0000 0.31268  0.48507  0.77941  Biso   1.000  N
  N8       1.0000 0.18732  0.51493  0.27941  Biso   1.000  N
  N9       1.0000 0.18732  0.48507  0.22059  Biso   1.000  N
  N10      1.0000 0.26493  0.56268  0.52941  Biso   1.000  N
  N11      1.0000 0.26493  0.43732  0.97059  Biso   1.000  N
  N12      1.0000 0.23507  0.56268  0.47059  Biso   1.000  N
  N13      1.0000 0.76493  0.06268  0.02941  Biso   1.000  N
  N14      1.0000 0.76493  0.93732  0.47059  Biso   1.000  N
  N15      1.0000 0.73507  0.06268  0.97059  Biso   1.000  N
  N16      1.0000 0.31268  0.51493  0.72059  Biso   1.000  N
  N17      1.0000 0.76493  0.56268  0.97059  Biso   1.000  N
  N18      1.0000 0.68732  0.51493  0.22059  Biso   1.000  N
  N19      1.0000 0.81268  0.48507  0.72059  Biso   1.000  N
  N20      1.0000 0.81268  0.51493  0.77941  Biso   1.000  N
  N21      1.0000 0.68732  0.48507  0.27941  Biso   1.000  N
  N22      1.0000 0.26493  0.06268  0.47059  Biso   1.000  N
  N23      1.0000 0.18732  0.01493  0.72059  Biso   1.000  N
  N24      1.0000 0.31268  0.98507  0.22059  Biso   1.000  N
  N25      1.0000 0.31268  0.01493  0.27941  Biso   1.000  N
  N26      1.0000 0.73507  0.43732  0.47059  Biso   1.000  N
  N27      1.0000 0.73507  0.56268  0.02941  Biso   1.000  N
  N28      1.0000 0.76493  0.43732  0.52941  Biso   1.000  N
  N29      1.0000 0.23507  0.93732  0.97059  Biso   1.000  N
  N30      1.0000 0.23507  0.06268  0.52941  Biso   1.000  N
  N31      1.0000 0.26493  0.93732  0.02941  Biso   1.000  N
  N32      1.0000 0.18732  0.98507  0.77941  Biso   1.000  N
  N33      1.0000 0.05826  0.43196  0.10004  Biso   1.000  N
  N34      1.0000 0.81804  0.80826  0.35004  Biso   1.000  N
  N35      1.0000 0.68196  0.19174  0.85004  Biso   1.000  N
  N36      1.0000 0.68196  0.80826  0.64996  Biso   1.000  N
  N37      1.0000 0.81804  0.19174  0.14996  Biso   1.000  N
  N38      1.0000 0.55826  0.93196  0.60004  Biso   1.000  N
  N39      1.0000 0.31804  0.30826  0.85004  Biso   1.000  N
  N40      1.0000 0.18196  0.69174  0.35004  Biso   1.000  N
  N41      1.0000 0.18196  0.30826  0.14996  Biso   1.000  N
  N42      1.0000 0.44174  0.56804  0.60004  Biso   1.000  N
  N43      1.0000 0.44174  0.43196  0.89996  Biso   1.000  N
  N44      1.0000 0.05826  0.56804  0.39996  Biso   1.000  N
  N45      1.0000 0.94174  0.06804  0.10004  Biso   1.000  N
  N46      1.0000 0.94174  0.93196  0.39996  Biso   1.000  N
  N47      1.0000 0.55826  0.06804  0.89996  Biso   1.000  N
  N48      1.0000 0.31804  0.69174  0.64996  Biso   1.000  N
  N49      1.0000 0.94174  0.56804  0.89996  Biso   1.000  N
  N50      1.0000 0.68196  0.69174  0.14996  Biso   1.000  N
  N51      1.0000 0.81804  0.30826  0.64996  Biso   1.000  N
  N52      1.0000 0.81804  0.69174  0.85004  Biso   1.000  N
  N53      1.0000 0.68196  0.30826  0.35004  Biso   1.000  N
  N54      1.0000 0.44174  0.06804  0.39996  Biso   1.000  N
  N55      1.0000 0.18196  0.19174  0.64996  Biso   1.000  N
  N56      1.0000 0.31804  0.80826  0.14996  Biso   1.000  N
  N57      1.0000 0.31804  0.19174  0.35004  Biso   1.000  N
  N58      1.0000 0.55826  0.43196  0.39996  Biso   1.000  N
  N59      1.0000 0.55826  0.56804  0.10004  Biso   1.000  N
  N60      1.0000 0.94174  0.43196  0.60004  Biso   1.000  N
  N61      1.0000 0.05826  0.93196  0.89996  Biso   1.000  N
  N62      1.0000 0.05826  0.06804  0.60004  Biso   1.000  N
  N63      1.0000 0.44174  0.93196  0.10004  Biso   1.000  N
  N64      1.0000 0.18196  0.80826  0.85004  Biso   1.000  N
  C1       1.0000 0.03218  0.38547  0.04455  Biso   1.000  C
  C2       1.0000 0.86453  0.78218  0.29455  Biso   1.000  C
  C3       1.0000 0.63547  0.21782  0.79455  Biso   1.000  C
  C4       1.0000 0.63547  0.78218  0.70545  Biso   1.000  C
  C5       1.0000 0.86453  0.21782  0.20545  Biso   1.000  C
  C6       1.0000 0.53218  0.88547  0.54455  Biso   1.000  C
  C7       1.0000 0.36453  0.28218  0.79455  Biso   1.000  C
  C8       1.0000 0.13547  0.71782  0.29455  Biso   1.000  C
  C9       1.0000 0.13547  0.28218  0.20545  Biso   1.000  C
  C10      1.0000 0.46782  0.61453  0.54455  Biso   1.000  C
  C11      1.0000 0.46782  0.38547  0.95545  Biso   1.000  C
  C12      1.0000 0.03218  0.61453  0.45545  Biso   1.000  C
  C13      1.0000 0.96782  0.11453  0.04455  Biso   1.000  C
  C14      1.0000 0.96782  0.88547  0.45545  Biso   1.000  C
  C15      1.0000 0.53218  0.11453  0.95545  Biso   1.000  C
  C16      1.0000 0.36453  0.71782  0.70545  Biso   1.000  C
  C17      1.0000 0.96782  0.61453  0.95545  Biso   1.000  C
  C18      1.0000 0.63547  0.71782  0.20545  Biso   1.000  C
  C19      1.0000 0.86453  0.28218  0.70545  Biso   1.000  C
  C20      1.0000 0.86453  0.71782  0.79455  Biso   1.000  C
  C21      1.0000 0.63547  0.28218  0.29455  Biso   1.000  C
  C22      1.0000 0.46782  0.11453  0.45545  Biso   1.000  C
  C23      1.0000 0.13547  0.21782  0.70545  Biso   1.000  C
  C24      1.0000 0.36453  0.78218  0.20545  Biso   1.000  C
  C25      1.0000 0.36453  0.21782  0.29455  Biso   1.000  C
  C26      1.0000 0.53218  0.38547  0.45545  Biso   1.000  C
  C27      1.0000 0.53218  0.61453  0.04455  Biso   1.000  C
  C28      1.0000 0.96782  0.38547  0.54455  Biso   1.000  C
  C29      1.0000 0.03218  0.88547  0.95545  Biso   1.000  C
  C30      1.0000 0.03218  0.11453  0.54455  Biso   1.000  C
  C31      1.0000 0.46782  0.88547  0.04455  Biso   1.000  C
  C32      1.0000 0.13547  0.78218  0.79455  Biso   1.000  C
  H1       1.0000 0.06750  0.34950  0.02160  Biso   1.000  H
  H2       1.0000 0.90050  0.81750  0.27160  Biso   1.000  H
  H3       1.0000 0.59950  0.18250  0.77160  Biso   1.000  H
  H4       1.0000 0.59950  0.81750  0.72840  Biso   1.000  H
  H5       1.0000 0.90050  0.18250  0.22840  Biso   1.000  H
  H6       1.0000 0.56750  0.84950  0.52160  Biso   1.000  H
  H7       1.0000 0.40050  0.31750  0.77160  Biso   1.000  H
  H8       1.0000 0.09950  0.68250  0.27160  Biso   1.000  H
  H9       1.0000 0.09950  0.31750  0.22840  Biso   1.000  H
  H10      1.0000 0.43250  0.65050  0.52160  Biso   1.000  H
  H11      1.0000 0.43250  0.34950  0.97840  Biso   1.000  H
  H12      1.0000 0.06750  0.65050  0.47840  Biso   1.000  H
  H13      1.0000 0.93250  0.15050  0.02160  Biso   1.000  H
  H14      1.0000 0.93250  0.84950  0.47840  Biso   1.000  H
  H15      1.0000 0.56750  0.15050  0.97840  Biso   1.000  H
  H16      1.0000 0.40050  0.68250  0.72840  Biso   1.000  H
  H17      1.0000 0.93250  0.65050  0.97840  Biso   1.000  H
  H18      1.0000 0.59950  0.68250  0.22840  Biso   1.000  H
  H19      1.0000 0.90050  0.31750  0.72840  Biso   1.000  H
  H20      1.0000 0.90050  0.68250  0.77160  Biso   1.000  H
  H21      1.0000 0.59950  0.31750  0.27160  Biso   1.000  H
  H22      1.0000 0.43250  0.15050  0.47840  Biso   1.000  H
  H23      1.0000 0.09950  0.18250  0.72840  Biso   1.000  H
  H24      1.0000 0.40050  0.81750  0.22840  Biso   1.000  H
  H25      1.0000 0.40050  0.18250  0.27160  Biso   1.000  H
  H26      1.0000 0.56750  0.34950  0.47840  Biso   1.000  H
  H27      1.0000 0.56750  0.65050  0.02160  Biso   1.000  H
  H28      1.0000 0.93250  0.34950  0.52160  Biso   1.000  H
  H29      1.0000 0.06750  0.84950  0.97840  Biso   1.000  H
  H30      1.0000 0.06750  0.15050  0.52160  Biso   1.000  H
  H31      1.0000 0.43250  0.84950  0.02160  Biso   1.000  H
  H32      1.0000 0.09950  0.81750  0.77160  Biso   1.000  H
  C33      1.0000 0.95559  0.38813  0.01976  Biso   1.000  C
  C34      1.0000 0.86187  0.70559  0.26976  Biso   1.000  C
  C35      1.0000 0.63813  0.29441  0.76976  Biso   1.000  C
  C36      1.0000 0.63813  0.70559  0.73024  Biso   1.000  C
  C37      1.0000 0.86187  0.29441  0.23024  Biso   1.000  C
  C38      1.0000 0.45559  0.88813  0.51976  Biso   1.000  C
  C39      1.0000 0.36187  0.20559  0.76976  Biso   1.000  C
  C40      1.0000 0.13813  0.79441  0.26976  Biso   1.000  C
  C41      1.0000 0.13813  0.20559  0.23024  Biso   1.000  C
  C42      1.0000 0.54441  0.61187  0.51976  Biso   1.000  C
  C43      1.0000 0.54441  0.38813  0.98024  Biso   1.000  C
  C44      1.0000 0.95559  0.61187  0.48024  Biso   1.000  C
  C45      1.0000 0.04441  0.11187  0.01976  Biso   1.000  C
  C46      1.0000 0.04441  0.88813  0.48024  Biso   1.000  C
  C47      1.0000 0.45559  0.11187  0.98024  Biso   1.000  C
  C48      1.0000 0.36187  0.79441  0.73024  Biso   1.000  C
  C49      1.0000 0.04441  0.61187  0.98024  Biso   1.000  C
  C50      1.0000 0.63813  0.79441  0.23024  Biso   1.000  C
  C51      1.0000 0.86187  0.20559  0.73024  Biso   1.000  C
  C52      1.0000 0.86187  0.79441  0.76976  Biso   1.000  C
  C53      1.0000 0.63813  0.20559  0.26976  Biso   1.000  C
  C54      1.0000 0.54441  0.11187  0.48024  Biso   1.000  C
  C55      1.0000 0.13813  0.29441  0.73024  Biso   1.000  C
  C56      1.0000 0.36187  0.70559  0.23024  Biso   1.000  C
  C57      1.0000 0.36187  0.29441  0.26976  Biso   1.000  C
  C58      1.0000 0.45559  0.38813  0.48024  Biso   1.000  C
  C59      1.0000 0.45559  0.61187  0.01976  Biso   1.000  C
  C60      1.0000 0.04441  0.38813  0.51976  Biso   1.000  C
  C61      1.0000 0.95559  0.88813  0.98024  Biso   1.000  C
  C62      1.0000 0.95559  0.11187  0.51976  Biso   1.000  C
  C63      1.0000 0.54441  0.88813  0.01976  Biso   1.000  C
  C64      1.0000 0.13813  0.70559  0.76976  Biso   1.000  C
  C65      1.0000 0.90277  0.43955  0.05156  Biso   1.000  C
  C66      1.0000 0.81045  0.65277  0.30156  Biso   1.000  C
  C67      1.0000 0.68955  0.34723  0.80156  Biso   1.000  C
  C68      1.0000 0.68955  0.65277  0.69844  Biso   1.000  C
  C69      1.0000 0.81045  0.34723  0.19844  Biso   1.000  C
  C70      1.0000 0.40277  0.93955  0.55156  Biso   1.000  C
  C71      1.0000 0.31045  0.15277  0.80156  Biso   1.000  C
  C72      1.0000 0.18955  0.84723  0.30156  Biso   1.000  C
  C73      1.0000 0.18955  0.15277  0.19844  Biso   1.000  C
  C74      1.0000 0.59723  0.56045  0.55156  Biso   1.000  C
  C75      1.0000 0.59723  0.43955  0.94844  Biso   1.000  C
  C76      1.0000 0.90277  0.56045  0.44844  Biso   1.000  C
  C77      1.0000 0.09723  0.06045  0.05156  Biso   1.000  C
  C78      1.0000 0.09723  0.93955  0.44844  Biso   1.000  C
  C79      1.0000 0.40277  0.06045  0.94844  Biso   1.000  C
  C80      1.0000 0.31045  0.84723  0.69844  Biso   1.000  C
  C81      1.0000 0.09723  0.56045  0.94844  Biso   1.000  C
  C82      1.0000 0.68955  0.84723  0.19844  Biso   1.000  C
  C83      1.0000 0.81045  0.15277  0.69844  Biso   1.000  C
  C84      1.0000 0.81045  0.84723  0.80156  Biso   1.000  C
  C85      1.0000 0.68955  0.15277  0.30156  Biso   1.000  C
  C86      1.0000 0.59723  0.06045  0.44844  Biso   1.000  C
  C87      1.0000 0.18955  0.34723  0.69844  Biso   1.000  C
  C88      1.0000 0.31045  0.65277  0.19844  Biso   1.000  C
  C89      1.0000 0.31045  0.34723  0.30156  Biso   1.000  C
  C90      1.0000 0.40277  0.43955  0.44844  Biso   1.000  C
  C91      1.0000 0.40277  0.56045  0.05156  Biso   1.000  C
  C92      1.0000 0.09723  0.43955  0.55156  Biso   1.000  C
  C93      1.0000 0.90277  0.93955  0.94844  Biso   1.000  C
  C94      1.0000 0.90277  0.06045  0.55156  Biso   1.000  C
  C95      1.0000 0.59723  0.93955  0.05156  Biso   1.000  C
  C96      1.0000 0.18955  0.65277  0.80156  Biso   1.000  C
  H33      1.0000 0.85000  0.44240  0.03440  Biso   1.000  H
  H34      1.0000 0.80760  0.60000  0.28440  Biso   1.000  H
  H35      1.0000 0.69240  0.40000  0.78440  Biso   1.000  H
  H36      1.0000 0.69240  0.60000  0.71560  Biso   1.000  H
  H37      1.0000 0.80760  0.40000  0.21560  Biso   1.000  H
  H38      1.0000 0.35000  0.94240  0.53440  Biso   1.000  H
  H39      1.0000 0.30760  0.10000  0.78440  Biso   1.000  H
  H40      1.0000 0.19240  0.90000  0.28440  Biso   1.000  H
  H41      1.0000 0.19240  0.10000  0.21560  Biso   1.000  H
  H42      1.0000 0.65000  0.55760  0.53440  Biso   1.000  H
  H43      1.0000 0.65000  0.44240  0.96560  Biso   1.000  H
  H44      1.0000 0.85000  0.55760  0.46560  Biso   1.000  H
  H45      1.0000 0.15000  0.05760  0.03440  Biso   1.000  H
  H46      1.0000 0.15000  0.94240  0.46560  Biso   1.000  H
  H47      1.0000 0.35000  0.05760  0.96560  Biso   1.000  H
  H48      1.0000 0.30760  0.90000  0.71560  Biso   1.000  H
  H49      1.0000 0.15000  0.55760  0.96560  Biso   1.000  H
  H50      1.0000 0.69240  0.90000  0.21560  Biso   1.000  H
  H51      1.0000 0.80760  0.10000  0.71560  Biso   1.000  H
  H52      1.0000 0.80760  0.90000  0.78440  Biso   1.000  H
  H53      1.0000 0.69240  0.10000  0.28440  Biso   1.000  H
  H54      1.0000 0.65000  0.05760  0.46560  Biso   1.000  H
  H55      1.0000 0.19240  0.40000  0.71560  Biso   1.000  H
  H56      1.0000 0.30760  0.60000  0.21560  Biso   1.000  H
  H57      1.0000 0.30760  0.40000  0.28440  Biso   1.000  H
  H58      1.0000 0.35000  0.44240  0.46560  Biso   1.000  H
  H59      1.0000 0.35000  0.55760  0.03440  Biso   1.000  H
  H60      1.0000 0.15000  0.44240  0.53440  Biso   1.000  H
  H61      1.0000 0.85000  0.94240  0.96560  Biso   1.000  H
  H62      1.0000 0.85000  0.05760  0.53440  Biso   1.000  H
  H63      1.0000 0.65000  0.94240  0.03440  Biso   1.000  H
  H64      1.0000 0.19240  0.60000  0.78440  Biso   1.000  H
  C97      1.0000 0.92966  0.48660  0.10923  Biso   1.000  C
  C98      1.0000 0.76340  0.67966  0.35923  Biso   1.000  C
  C99      1.0000 0.73660  0.32034  0.85923  Biso   1.000  C
  C100     1.0000 0.73660  0.67966  0.64077  Biso   1.000  C
  C101     1.0000 0.76340  0.32034  0.14077  Biso   1.000  C
  C102     1.0000 0.42966  0.98660  0.60923  Biso   1.000  C
  C103     1.0000 0.26340  0.17966  0.85923  Biso   1.000  C
  C104     1.0000 0.23660  0.82034  0.35923  Biso   1.000  C
  C105     1.0000 0.23660  0.17966  0.14077  Biso   1.000  C
  C106     1.0000 0.57034  0.51340  0.60923  Biso   1.000  C
  C107     1.0000 0.57034  0.48660  0.89077  Biso   1.000  C
  C108     1.0000 0.92966  0.51340  0.39077  Biso   1.000  C
  C109     1.0000 0.07034  0.01340  0.10923  Biso   1.000  C
  C110     1.0000 0.07034  0.98660  0.39077  Biso   1.000  C
  C111     1.0000 0.42966  0.01340  0.89077  Biso   1.000  C
  C112     1.0000 0.26340  0.82034  0.64077  Biso   1.000  C
  C113     1.0000 0.07034  0.51340  0.89077  Biso   1.000  C
  C114     1.0000 0.73660  0.82034  0.14077  Biso   1.000  C
  C115     1.0000 0.76340  0.17966  0.64077  Biso   1.000  C
  C116     1.0000 0.76340  0.82034  0.85923  Biso   1.000  C
  C117     1.0000 0.73660  0.17966  0.35923  Biso   1.000  C
  C118     1.0000 0.57034  0.01340  0.39077  Biso   1.000  C
  C119     1.0000 0.23660  0.32034  0.64077  Biso   1.000  C
  C120     1.0000 0.26340  0.67966  0.14077  Biso   1.000  C
  C121     1.0000 0.26340  0.32034  0.35923  Biso   1.000  C
  C122     1.0000 0.42966  0.48660  0.39077  Biso   1.000  C
  C123     1.0000 0.42966  0.51340  0.10923  Biso   1.000  C
  C124     1.0000 0.07034  0.48660  0.60923  Biso   1.000  C
  C125     1.0000 0.92966  0.98660  0.89077  Biso   1.000  C
  C126     1.0000 0.92966  0.01340  0.60923  Biso   1.000  C
  C127     1.0000 0.57034  0.98660  0.10923  Biso   1.000  C
  C128     1.0000 0.23660  0.67966  0.85923  Biso   1.000  C
  H65      1.0000 0.89520  0.52260  0.13320  Biso   1.000  H
  H66      1.0000 0.72740  0.64520  0.38320  Biso   1.000  H
  H67      1.0000 0.77260  0.35480  0.88320  Biso   1.000  H
  H68      1.0000 0.77260  0.64520  0.61680  Biso   1.000  H
  H69      1.0000 0.72740  0.35480  0.11680  Biso   1.000  H
  H70      1.0000 0.39520  0.02260  0.63320  Biso   1.000  H
  H71      1.0000 0.22740  0.14520  0.88320  Biso   1.000  H
  H72      1.0000 0.27260  0.85480  0.38320  Biso   1.000  H
  H73      1.0000 0.27260  0.14520  0.11680  Biso   1.000  H
  H74      1.0000 0.60480  0.47740  0.63320  Biso   1.000  H
  H75      1.0000 0.60480  0.52260  0.86680  Biso   1.000  H
  H76      1.0000 0.89520  0.47740  0.36680  Biso   1.000  H
  H77      1.0000 0.10480  0.97740  0.13320  Biso   1.000  H
  H78      1.0000 0.10480  0.02260  0.36680  Biso   1.000  H
  H79      1.0000 0.39520  0.97740  0.86680  Biso   1.000  H
  H80      1.0000 0.22740  0.85480  0.61680  Biso   1.000  H
  H81      1.0000 0.10480  0.47740  0.86680  Biso   1.000  H
  H82      1.0000 0.77260  0.85480  0.11680  Biso   1.000  H
  H83      1.0000 0.72740  0.14520  0.61680  Biso   1.000  H
  H84      1.0000 0.72740  0.85480  0.88320  Biso   1.000  H
  H85      1.0000 0.77260  0.14520  0.38320  Biso   1.000  H
  H86      1.0000 0.60480  0.97740  0.36680  Biso   1.000  H
  H87      1.0000 0.27260  0.35480  0.61680  Biso   1.000  H
  H88      1.0000 0.22740  0.64520  0.11680  Biso   1.000  H
  H89      1.0000 0.22740  0.35480  0.38320  Biso   1.000  H
  H90      1.0000 0.39520  0.52260  0.36680  Biso   1.000  H
  H91      1.0000 0.39520  0.47740  0.13320  Biso   1.000  H
  H92      1.0000 0.10480  0.52260  0.63320  Biso   1.000  H
  H93      1.0000 0.89520  0.02260  0.86680  Biso   1.000  H
  H94      1.0000 0.89520  0.97740  0.63320  Biso   1.000  H
  H95      1.0000 0.60480  0.02260  0.13320  Biso   1.000  H
  H96      1.0000 0.27260  0.64520  0.88320  Biso   1.000  H
  C129     1.0000 0.00682  0.48125  0.13202  Biso   1.000  C
  C130     1.0000 0.76875  0.75682  0.38202  Biso   1.000  C
  C131     1.0000 0.73125  0.24318  0.88202  Biso   1.000  C
  C132     1.0000 0.73125  0.75682  0.61798  Biso   1.000  C
  C133     1.0000 0.76875  0.24318  0.11798  Biso   1.000  C
  C134     1.0000 0.50682  0.98125  0.63202  Biso   1.000  C
  C135     1.0000 0.26875  0.25682  0.88202  Biso   1.000  C
  C136     1.0000 0.23125  0.74318  0.38202  Biso   1.000  C
  C137     1.0000 0.23125  0.25682  0.11798  Biso   1.000  C
  C138     1.0000 0.49318  0.51875  0.63202  Biso   1.000  C
  C139     1.0000 0.49318  0.48125  0.86798  Biso   1.000  C
  C140     1.0000 0.00682  0.51875  0.36798  Biso   1.000  C
  C141     1.0000 0.99318  0.01875  0.13202  Biso   1.000  C
  C142     1.0000 0.99318  0.98125  0.36798  Biso   1.000  C
  C143     1.0000 0.50682  0.01875  0.86798  Biso   1.000  C
  C144     1.0000 0.26875  0.74318  0.61798  Biso   1.000  C
  C145     1.0000 0.99318  0.51875  0.86798  Biso   1.000  C
  C146     1.0000 0.73125  0.74318  0.11798  Biso   1.000  C
  C147     1.0000 0.76875  0.25682  0.61798  Biso   1.000  C
  C148     1.0000 0.76875  0.74318  0.88202  Biso   1.000  C
  C149     1.0000 0.73125  0.25682  0.38202  Biso   1.000  C
  C150     1.0000 0.49318  0.01875  0.36798  Biso   1.000  C
  C151     1.0000 0.23125  0.24318  0.61798  Biso   1.000  C
  C152     1.0000 0.26875  0.75682  0.11798  Biso   1.000  C
  C153     1.0000 0.26875  0.24318  0.38202  Biso   1.000  C
  C154     1.0000 0.50682  0.48125  0.36798  Biso   1.000  C
  C155     1.0000 0.50682  0.51875  0.13202  Biso   1.000  C
  C156     1.0000 0.99318  0.48125  0.63202  Biso   1.000  C
  C157     1.0000 0.00682  0.98125  0.86798  Biso   1.000  C
  C158     1.0000 0.00682  0.01875  0.63202  Biso   1.000  C
  C159     1.0000 0.49318  0.98125  0.13202  Biso   1.000  C
  C160     1.0000 0.23125  0.75682  0.88202  Biso   1.000  C
  H97      1.0000 0.02430  0.51390  0.17210  Biso   1.000  H
  H98      1.0000 0.73610  0.77430  0.42210  Biso   1.000  H
  H99      1.0000 0.76390  0.22570  0.92210  Biso   1.000  H
  H100     1.0000 0.76390  0.77430  0.57790  Biso   1.000  H
  H101     1.0000 0.73610  0.22570  0.07790  Biso   1.000  H
  H102     1.0000 0.52430  0.01390  0.67210  Biso   1.000  H
  H103     1.0000 0.23610  0.27430  0.92210  Biso   1.000  H
  H104     1.0000 0.26390  0.72570  0.42210  Biso   1.000  H
  H105     1.0000 0.26390  0.27430  0.07790  Biso   1.000  H
  H106     1.0000 0.47570  0.48610  0.67210  Biso   1.000  H
  H107     1.0000 0.47570  0.51390  0.82790  Biso   1.000  H
  H108     1.0000 0.02430  0.48610  0.32790  Biso   1.000  H
  H109     1.0000 0.97570  0.98610  0.17210  Biso   1.000  H
  H110     1.0000 0.97570  0.01390  0.32790  Biso   1.000  H
  H111     1.0000 0.52430  0.98610  0.82790  Biso   1.000  H
  H112     1.0000 0.23610  0.72570  0.57790  Biso   1.000  H
  H113     1.0000 0.97570  0.48610  0.82790  Biso   1.000  H
  H114     1.0000 0.76390  0.72570  0.07790  Biso   1.000  H
  H115     1.0000 0.73610  0.27430  0.57790  Biso   1.000  H
  H116     1.0000 0.73610  0.72570  0.92210  Biso   1.000  H
  H117     1.0000 0.76390  0.27430  0.42210  Biso   1.000  H
  H118     1.0000 0.47570  0.98610  0.32790  Biso   1.000  H
  H119     1.0000 0.26390  0.22570  0.57790  Biso   1.000  H
  H120     1.0000 0.23610  0.77430  0.07790  Biso   1.000  H
  H121     1.0000 0.23610  0.22570  0.42210  Biso   1.000  H
  H122     1.0000 0.52430  0.51390  0.32790  Biso   1.000  H
  H123     1.0000 0.52430  0.48610  0.17210  Biso   1.000  H
  H124     1.0000 0.97570  0.51390  0.67210  Biso   1.000  H
  H125     1.0000 0.02430  0.01390  0.82790  Biso   1.000  H
  H126     1.0000 0.02430  0.98610  0.67210  Biso   1.000  H
  H127     1.0000 0.47570  0.01390  0.17210  Biso   1.000  H
  H128     1.0000 0.26390  0.77430  0.92210  Biso   1.000  H
