data_image0
_cell_length_a       19.267
_cell_length_b       11.5445
_cell_length_c       11.559
_cell_angle_alpha    90
_cell_angle_beta     124.869
_cell_angle_gamma    90

_symmetry_space_group_name_H-M    "P 1"
_symmetry_int_tables_number       1

loop_
  _symmetry_equiv_pos_as_xyz
  'x, y, z'

loop_
  _atom_site_label
  _atom_site_occupancy
  _atom_site_fract_x
  _atom_site_fract_y
  _atom_site_fract_z
  _atom_site_thermal_displace_type
  _atom_site_B_iso_or_equiv
  _atom_site_type_symbol
  Cu1      1.0000 0.00000  0.14680  0.25000  Biso   1.000  Cu
  Cu2      1.0000 0.50000  0.64680  0.25000  Biso   1.000  Cu
  Cu3      1.0000 0.00000  0.85320  0.75000  Biso   1.000  Cu
  Cu4      1.0000 0.50000  0.35320  0.75000  Biso   1.000  Cu
  Cu5      1.0000 0.88479  0.80524  0.03019  Biso   1.000  Cu
  Cu6      1.0000 0.38479  0.30524  0.03019  Biso   1.000  Cu
  Cu7      1.0000 0.11521  0.80524  0.46981  Biso   1.000  Cu
  Cu8      1.0000 0.61521  0.30524  0.46981  Biso   1.000  Cu
  Cu9      1.0000 0.11521  0.19476  0.96981  Biso   1.000  Cu
  Cu10     1.0000 0.61521  0.69476  0.96981  Biso   1.000  Cu
  Cu11     1.0000 0.88479  0.19476  0.53019  Biso   1.000  Cu
  Cu12     1.0000 0.38479  0.69476  0.53019  Biso   1.000  Cu
  S1       1.0000 0.89326  0.01252  0.06824  Biso   1.000  S
  S2       1.0000 0.39326  0.51252  0.06824  Biso   1.000  S
  S3       1.0000 0.10674  0.01252  0.43176  Biso   1.000  S
  S4       1.0000 0.60674  0.51252  0.43176  Biso   1.000  S
  S5       1.0000 0.10674  0.98748  0.93176  Biso   1.000  S
  S6       1.0000 0.60674  0.48748  0.93176  Biso   1.000  S
  S7       1.0000 0.89326  0.98748  0.56824  Biso   1.000  S
  S8       1.0000 0.39326  0.48748  0.56824  Biso   1.000  S
  S9       1.0000 0.00000  0.72692  0.25000  Biso   1.000  S
  S10      1.0000 0.50000  0.22692  0.25000  Biso   1.000  S
  S11      1.0000 0.00000  0.27308  0.75000  Biso   1.000  S
  S12      1.0000 0.50000  0.77308  0.75000  Biso   1.000  S
  N1       1.0000 0.78165  0.76050  0.00670  Biso   1.000  N
  N2       1.0000 0.28165  0.26050  0.00670  Biso   1.000  N
  N3       1.0000 0.21835  0.76050  0.49330  Biso   1.000  N
  N4       1.0000 0.71835  0.26050  0.49330  Biso   1.000  N
  N5       1.0000 0.21835  0.23950  0.99330  Biso   1.000  N
  N6       1.0000 0.71835  0.73950  0.99330  Biso   1.000  N
  N7       1.0000 0.78165  0.23950  0.50670  Biso   1.000  N
  N8       1.0000 0.28165  0.73950  0.50670  Biso   1.000  N
  C1       1.0000 0.05216  0.20080  0.16070  Biso   1.000  C
  C2       1.0000 0.55216  0.70080  0.16070  Biso   1.000  C
  C3       1.0000 0.94784  0.20080  0.33930  Biso   1.000  C
  C4       1.0000 0.44784  0.70080  0.33930  Biso   1.000  C
  C5       1.0000 0.94784  0.79920  0.83930  Biso   1.000  C
  C6       1.0000 0.44784  0.29920  0.83930  Biso   1.000  C
  C7       1.0000 0.05216  0.79920  0.66070  Biso   1.000  C
  C8       1.0000 0.55216  0.29920  0.66070  Biso   1.000  C
  N9       1.0000 0.07991  0.21130  0.09500  Biso   1.000  N
  N10      1.0000 0.57991  0.71130  0.09500  Biso   1.000  N
  N11      1.0000 0.92009  0.21130  0.40500  Biso   1.000  N
  N12      1.0000 0.42009  0.71130  0.40500  Biso   1.000  N
  N13      1.0000 0.92009  0.78870  0.90500  Biso   1.000  N
  N14      1.0000 0.42009  0.28870  0.90500  Biso   1.000  N
  N15      1.0000 0.07991  0.78870  0.59500  Biso   1.000  N
  N16      1.0000 0.57991  0.28870  0.59500  Biso   1.000  N
  C9       1.0000 0.86841  0.07570  0.90280  Biso   1.000  C
  C10      1.0000 0.36841  0.57570  0.90280  Biso   1.000  C
  C11      1.0000 0.13159  0.07570  0.59720  Biso   1.000  C
  C12      1.0000 0.63159  0.57570  0.59720  Biso   1.000  C
  C13      1.0000 0.13159  0.92430  0.09720  Biso   1.000  C
  C14      1.0000 0.63159  0.42430  0.09720  Biso   1.000  C
  C15      1.0000 0.86841  0.92430  0.40280  Biso   1.000  C
  C16      1.0000 0.36841  0.42430  0.40280  Biso   1.000  C
  H1       1.0000 0.91900  0.11300  0.91680  Biso   1.000  H
  H2       1.0000 0.41900  0.61300  0.91680  Biso   1.000  H
  H3       1.0000 0.08100  0.11300  0.58320  Biso   1.000  H
  H4       1.0000 0.58100  0.61300  0.58320  Biso   1.000  H
  H5       1.0000 0.08100  0.88700  0.08320  Biso   1.000  H
  H6       1.0000 0.58100  0.38700  0.08320  Biso   1.000  H
  H7       1.0000 0.91900  0.88700  0.41680  Biso   1.000  H
  H8       1.0000 0.41900  0.38700  0.41680  Biso   1.000  H
  H9       1.0000 0.84740  0.01570  0.82870  Biso   1.000  H
  H10      1.0000 0.34740  0.51570  0.82870  Biso   1.000  H
  H11      1.0000 0.15260  0.01570  0.67130  Biso   1.000  H
  H12      1.0000 0.65260  0.51570  0.67130  Biso   1.000  H
  H13      1.0000 0.15260  0.98430  0.17130  Biso   1.000  H
  H14      1.0000 0.65260  0.48430  0.17130  Biso   1.000  H
  H15      1.0000 0.84740  0.98430  0.32870  Biso   1.000  H
  H16      1.0000 0.34740  0.48430  0.32870  Biso   1.000  H
  C17      1.0000 0.79980  0.16520  0.86280  Biso   1.000  C
  C18      1.0000 0.29980  0.66520  0.86280  Biso   1.000  C
  C19      1.0000 0.20020  0.16520  0.63720  Biso   1.000  C
  C20      1.0000 0.70020  0.66520  0.63720  Biso   1.000  C
  C21      1.0000 0.20020  0.83480  0.13720  Biso   1.000  C
  C22      1.0000 0.70020  0.33480  0.13720  Biso   1.000  C
  C23      1.0000 0.79980  0.83480  0.36280  Biso   1.000  C
  C24      1.0000 0.29980  0.33480  0.36280  Biso   1.000  C
  H17      1.0000 0.82490  0.23600  0.92080  Biso   1.000  H
  H18      1.0000 0.32490  0.73600  0.92080  Biso   1.000  H
  H19      1.0000 0.17510  0.23600  0.57920  Biso   1.000  H
  H20      1.0000 0.67510  0.73600  0.57920  Biso   1.000  H
  H21      1.0000 0.17510  0.76400  0.07920  Biso   1.000  H
  H22      1.0000 0.67510  0.26400  0.07920  Biso   1.000  H
  H23      1.0000 0.82490  0.76400  0.42080  Biso   1.000  H
  H24      1.0000 0.32490  0.26400  0.42080  Biso   1.000  H
  H25      1.0000 0.76970  0.18670  0.76220  Biso   1.000  H
  H26      1.0000 0.26970  0.68670  0.76220  Biso   1.000  H
  H27      1.0000 0.23030  0.18670  0.73780  Biso   1.000  H
  H28      1.0000 0.73030  0.68670  0.73780  Biso   1.000  H
  H29      1.0000 0.23030  0.81330  0.23780  Biso   1.000  H
  H30      1.0000 0.73030  0.31330  0.23780  Biso   1.000  H
  H31      1.0000 0.76970  0.81330  0.26220  Biso   1.000  H
  H32      1.0000 0.26970  0.31330  0.26220  Biso   1.000  H
  C25      1.0000 0.73993  0.10850  0.89040  Biso   1.000  C
  C26      1.0000 0.23993  0.60850  0.89040  Biso   1.000  C
  C27      1.0000 0.26007  0.10850  0.60960  Biso   1.000  C
  C28      1.0000 0.76007  0.60850  0.60960  Biso   1.000  C
  C29      1.0000 0.26007  0.89150  0.10960  Biso   1.000  C
  C30      1.0000 0.76007  0.39150  0.10960  Biso   1.000  C
  C31      1.0000 0.73993  0.89150  0.39040  Biso   1.000  C
  C32      1.0000 0.23993  0.39150  0.39040  Biso   1.000  C
  H33      1.0000 0.70670  0.04740  0.81940  Biso   1.000  H
  H34      1.0000 0.20670  0.54740  0.81940  Biso   1.000  H
  H35      1.0000 0.29330  0.04740  0.68060  Biso   1.000  H
  H36      1.0000 0.79330  0.54740  0.68060  Biso   1.000  H
  H37      1.0000 0.29330  0.95260  0.18060  Biso   1.000  H
  H38      1.0000 0.79330  0.45260  0.18060  Biso   1.000  H
  H39      1.0000 0.70670  0.95260  0.31940  Biso   1.000  H
  H40      1.0000 0.20670  0.45260  0.31940  Biso   1.000  H
  H41      1.0000 0.70010  0.16680  0.88410  Biso   1.000  H
  H42      1.0000 0.20010  0.66680  0.88410  Biso   1.000  H
  H43      1.0000 0.29990  0.16680  0.61590  Biso   1.000  H
  H44      1.0000 0.79990  0.66680  0.61590  Biso   1.000  H
  H45      1.0000 0.29990  0.83320  0.11590  Biso   1.000  H
  H46      1.0000 0.79990  0.33320  0.11590  Biso   1.000  H
  H47      1.0000 0.70010  0.83320  0.38410  Biso   1.000  H
  H48      1.0000 0.20010  0.33320  0.38410  Biso   1.000  H
  C33      1.0000 0.79207  0.05610  0.03720  Biso   1.000  C
  C34      1.0000 0.29207  0.55610  0.03720  Biso   1.000  C
  C35      1.0000 0.20793  0.05610  0.46280  Biso   1.000  C
  C36      1.0000 0.70793  0.55610  0.46280  Biso   1.000  C
  C37      1.0000 0.20793  0.94390  0.96280  Biso   1.000  C
  C38      1.0000 0.70793  0.44390  0.96280  Biso   1.000  C
  C39      1.0000 0.79207  0.94390  0.53720  Biso   1.000  C
  C40      1.0000 0.29207  0.44390  0.53720  Biso   1.000  C
  H49      1.0000 0.76280  0.98810  0.04270  Biso   1.000  H
  H50      1.0000 0.26280  0.48810  0.04270  Biso   1.000  H
  H51      1.0000 0.23720  0.98810  0.45730  Biso   1.000  H
  H52      1.0000 0.73720  0.48810  0.45730  Biso   1.000  H
  H53      1.0000 0.23720  0.01190  0.95730  Biso   1.000  H
  H54      1.0000 0.73720  0.51190  0.95730  Biso   1.000  H
  H55      1.0000 0.76280  0.01190  0.54270  Biso   1.000  H
  H56      1.0000 0.26280  0.51190  0.54270  Biso   1.000  H
  H57      1.0000 0.80150  0.11370  0.10830  Biso   1.000  H
  H58      1.0000 0.30150  0.61370  0.10830  Biso   1.000  H
  H59      1.0000 0.19850  0.11370  0.39170  Biso   1.000  H
  H60      1.0000 0.69850  0.61370  0.39170  Biso   1.000  H
  H61      1.0000 0.19850  0.88630  0.89170  Biso   1.000  H
  H62      1.0000 0.69850  0.38630  0.89170  Biso   1.000  H
  H63      1.0000 0.80150  0.88630  0.60830  Biso   1.000  H
  H64      1.0000 0.30150  0.38630  0.60830  Biso   1.000  H
  C41      1.0000 0.04670  0.61900  0.19710  Biso   1.000  C
  C42      1.0000 0.54670  0.11900  0.19710  Biso   1.000  C
  C43      1.0000 0.95330  0.61900  0.30290  Biso   1.000  C
  C44      1.0000 0.45330  0.11900  0.30290  Biso   1.000  C
  C45      1.0000 0.95330  0.38100  0.80290  Biso   1.000  C
  C46      1.0000 0.45330  0.88100  0.80290  Biso   1.000  C
  C47      1.0000 0.04670  0.38100  0.69710  Biso   1.000  C
  C48      1.0000 0.54670  0.88100  0.69710  Biso   1.000  C
  H65      1.0000 0.03490  0.63870  0.10400  Biso   1.000  H
  H66      1.0000 0.53490  0.13870  0.10400  Biso   1.000  H
  H67      1.0000 0.96510  0.63870  0.39600  Biso   1.000  H
  H68      1.0000 0.46510  0.13870  0.39600  Biso   1.000  H
  H69      1.0000 0.96510  0.36130  0.89600  Biso   1.000  H
  H70      1.0000 0.46510  0.86130  0.89600  Biso   1.000  H
  H71      1.0000 0.03490  0.36130  0.60400  Biso   1.000  H
  H72      1.0000 0.53490  0.86130  0.60400  Biso   1.000  H
  H73      1.0000 0.10870  0.61440  0.26730  Biso   1.000  H
  H74      1.0000 0.60870  0.11440  0.26730  Biso   1.000  H
  H75      1.0000 0.89130  0.61440  0.23270  Biso   1.000  H
  H76      1.0000 0.39130  0.11440  0.23270  Biso   1.000  H
  H77      1.0000 0.89130  0.38560  0.73270  Biso   1.000  H
  H78      1.0000 0.39130  0.88560  0.73270  Biso   1.000  H
  H79      1.0000 0.10870  0.38560  0.76730  Biso   1.000  H
  H80      1.0000 0.60870  0.88560  0.76730  Biso   1.000  H
  C49      1.0000 0.00450  0.50560  0.18990  Biso   1.000  C
  C50      1.0000 0.50450  0.00560  0.18990  Biso   1.000  C
  C51      1.0000 0.99550  0.50560  0.31010  Biso   1.000  C
  C52      1.0000 0.49550  0.00560  0.31010  Biso   1.000  C
  C53      1.0000 0.99550  0.49440  0.81010  Biso   1.000  C
  C54      1.0000 0.49550  0.99440  0.81010  Biso   1.000  C
  C55      1.0000 0.00450  0.49440  0.68990  Biso   1.000  C
  C56      1.0000 0.50450  0.99440  0.68990  Biso   1.000  C
  H81      1.0000 0.94820  0.49950  0.09920  Biso   1.000  H
  H82      1.0000 0.44820  0.99950  0.09920  Biso   1.000  H
  H83      1.0000 0.05180  0.49950  0.40080  Biso   1.000  H
  H84      1.0000 0.55180  0.99950  0.40080  Biso   1.000  H
  H85      1.0000 0.05180  0.50050  0.90080  Biso   1.000  H
  H86      1.0000 0.55180  0.00050  0.90080  Biso   1.000  H
  H87      1.0000 0.94820  0.50050  0.59920  Biso   1.000  H
  H88      1.0000 0.44820  0.00050  0.59920  Biso   1.000  H
  H89      1.0000 0.03950  0.43920  0.19800  Biso   1.000  H
  H90      1.0000 0.53950  0.93920  0.19800  Biso   1.000  H
  H91      1.0000 0.96050  0.43920  0.30200  Biso   1.000  H
  H92      1.0000 0.46050  0.93920  0.30200  Biso   1.000  H
  H93      1.0000 0.96050  0.56080  0.80200  Biso   1.000  H
  H94      1.0000 0.46050  0.06080  0.80200  Biso   1.000  H
  H95      1.0000 0.03950  0.56080  0.69800  Biso   1.000  H
  H96      1.0000 0.53950  0.06080  0.69800  Biso   1.000  H
