data_image0
_cell_length_a       15.8262
_cell_length_b       13.1421
_cell_length_c       20.2522
_cell_angle_alpha    90
_cell_angle_beta     104.859
_cell_angle_gamma    90

_symmetry_space_group_name_H-M    "P 1"
_symmetry_int_tables_number       1

loop_
  _symmetry_equiv_pos_as_xyz
  'x, y, z'

loop_
  _atom_site_label
  _atom_site_occupancy
  _atom_site_fract_x
  _atom_site_fract_y
  _atom_site_fract_z
  _atom_site_thermal_displace_type
  _atom_site_B_iso_or_equiv
  _atom_site_type_symbol
  N1       1.0000 0.88770  0.12430  0.43640  Biso   1.000  N
  N2       1.0000 0.11230  0.12430  0.06360  Biso   1.000  N
  N3       1.0000 0.38770  0.62430  0.43640  Biso   1.000  N
  N4       1.0000 0.61230  0.62430  0.06360  Biso   1.000  N
  N5       1.0000 0.11230  0.87570  0.56360  Biso   1.000  N
  N6       1.0000 0.88770  0.87570  0.93640  Biso   1.000  N
  N7       1.0000 0.61230  0.37570  0.56360  Biso   1.000  N
  N8       1.0000 0.38770  0.37570  0.93640  Biso   1.000  N
  N9       1.0000 0.96390  0.16480  0.46080  Biso   1.000  N
  N10      1.0000 0.03610  0.16480  0.03920  Biso   1.000  N
  N11      1.0000 0.46390  0.66480  0.46080  Biso   1.000  N
  N12      1.0000 0.53610  0.66480  0.03920  Biso   1.000  N
  N13      1.0000 0.03610  0.83520  0.53920  Biso   1.000  N
  N14      1.0000 0.96390  0.83520  0.96080  Biso   1.000  N
  N15      1.0000 0.53610  0.33520  0.53920  Biso   1.000  N
  N16      1.0000 0.46390  0.33520  0.96080  Biso   1.000  N
  N17      1.0000 0.02450  0.10560  0.44420  Biso   1.000  N
  N18      1.0000 0.97550  0.10560  0.05580  Biso   1.000  N
  N19      1.0000 0.52450  0.60560  0.44420  Biso   1.000  N
  N20      1.0000 0.47550  0.60560  0.05580  Biso   1.000  N
  N21      1.0000 0.97550  0.89440  0.55580  Biso   1.000  N
  N22      1.0000 0.02450  0.89440  0.94420  Biso   1.000  N
  N23      1.0000 0.47550  0.39440  0.55580  Biso   1.000  N
  N24      1.0000 0.52450  0.39440  0.94420  Biso   1.000  N
  C1       1.0000 0.11580  0.13830  0.46080  Biso   1.000  C
  C2       1.0000 0.88420  0.13830  0.03920  Biso   1.000  C
  C3       1.0000 0.61580  0.63830  0.46080  Biso   1.000  C
  C4       1.0000 0.38420  0.63830  0.03920  Biso   1.000  C
  C5       1.0000 0.88420  0.86170  0.53920  Biso   1.000  C
  C6       1.0000 0.11580  0.86170  0.96080  Biso   1.000  C
  C7       1.0000 0.38420  0.36170  0.53920  Biso   1.000  C
  C8       1.0000 0.61580  0.36170  0.96080  Biso   1.000  C
  H1       1.0000 0.13620  0.15060  0.50950  Biso   1.000  H
  H2       1.0000 0.86380  0.15060  0.99050  Biso   1.000  H
  H3       1.0000 0.63620  0.65060  0.50950  Biso   1.000  H
  H4       1.0000 0.36380  0.65060  0.99050  Biso   1.000  H
  H5       1.0000 0.86380  0.84940  0.49050  Biso   1.000  H
  H6       1.0000 0.13620  0.84940  0.00950  Biso   1.000  H
  H7       1.0000 0.36380  0.34940  0.49050  Biso   1.000  H
  H8       1.0000 0.63620  0.34940  0.00950  Biso   1.000  H
  H9       1.0000 0.15150  0.08500  0.44880  Biso   1.000  H
  H10      1.0000 0.84850  0.08500  0.05120  Biso   1.000  H
  H11      1.0000 0.65150  0.58500  0.44880  Biso   1.000  H
  H12      1.0000 0.34850  0.58500  0.05120  Biso   1.000  H
  H13      1.0000 0.84850  0.91500  0.55120  Biso   1.000  H
  H14      1.0000 0.15150  0.91500  0.94880  Biso   1.000  H
  H15      1.0000 0.34850  0.41500  0.55120  Biso   1.000  H
  H16      1.0000 0.65150  0.41500  0.94880  Biso   1.000  H
  N25      1.0000 0.00770  0.40590  0.57790  Biso   1.000  N
  N26      1.0000 0.99230  0.40590  0.92210  Biso   1.000  N
  N27      1.0000 0.50770  0.90590  0.57790  Biso   1.000  N
  N28      1.0000 0.49230  0.90590  0.92210  Biso   1.000  N
  N29      1.0000 0.99230  0.59410  0.42210  Biso   1.000  N
  N30      1.0000 0.00770  0.59410  0.07790  Biso   1.000  N
  N31      1.0000 0.49230  0.09410  0.42210  Biso   1.000  N
  N32      1.0000 0.50770  0.09410  0.07790  Biso   1.000  N
  C9       1.0000 0.07250  0.39260  0.63380  Biso   1.000  C
  C10      1.0000 0.92750  0.39260  0.86620  Biso   1.000  C
  C11      1.0000 0.57250  0.89260  0.63380  Biso   1.000  C
  C12      1.0000 0.42750  0.89260  0.86620  Biso   1.000  C
  C13      1.0000 0.92750  0.60740  0.36620  Biso   1.000  C
  C14      1.0000 0.07250  0.60740  0.13380  Biso   1.000  C
  C15      1.0000 0.42750  0.10740  0.36620  Biso   1.000  C
  C16      1.0000 0.57250  0.10740  0.13380  Biso   1.000  C
  H17      1.0000 0.06310  0.40750  0.67620  Biso   1.000  H
  H18      1.0000 0.93690  0.40750  0.82380  Biso   1.000  H
  H19      1.0000 0.56310  0.90750  0.67620  Biso   1.000  H
  H20      1.0000 0.43690  0.90750  0.82380  Biso   1.000  H
  H21      1.0000 0.93690  0.59250  0.32380  Biso   1.000  H
  H22      1.0000 0.06310  0.59250  0.17620  Biso   1.000  H
  H23      1.0000 0.43690  0.09250  0.32380  Biso   1.000  H
  H24      1.0000 0.56310  0.09250  0.17620  Biso   1.000  H
  I1       1.0000 0.15010  0.67656  0.32502  Biso   1.000  I
  I2       1.0000 0.84990  0.67656  0.17498  Biso   1.000  I
  I3       1.0000 0.65010  0.17656  0.32502  Biso   1.000  I
  I4       1.0000 0.34990  0.17656  0.17498  Biso   1.000  I
  I5       1.0000 0.84990  0.32344  0.67498  Biso   1.000  I
  I6       1.0000 0.15010  0.32344  0.82502  Biso   1.000  I
  I7       1.0000 0.34990  0.82344  0.67498  Biso   1.000  I
  I8       1.0000 0.65010  0.82344  0.82502  Biso   1.000  I
  I9       1.0000 0.28333  0.89706  0.45842  Biso   1.000  I
  I10      1.0000 0.71667  0.89706  0.04158  Biso   1.000  I
  I11      1.0000 0.78333  0.39706  0.45842  Biso   1.000  I
  I12      1.0000 0.21667  0.39706  0.04158  Biso   1.000  I
  I13      1.0000 0.71667  0.10294  0.54158  Biso   1.000  I
  I14      1.0000 0.28333  0.10294  0.95842  Biso   1.000  I
  I15      1.0000 0.21667  0.60294  0.54158  Biso   1.000  I
  I16      1.0000 0.78333  0.60294  0.95842  Biso   1.000  I
  Cu1      1.0000 0.11642  0.55012  0.41469  Biso   1.000  Cu
  Cu2      1.0000 0.88358  0.55012  0.08531  Biso   1.000  Cu
  Cu3      1.0000 0.61642  0.05012  0.41469  Biso   1.000  Cu
  Cu4      1.0000 0.38358  0.05012  0.08531  Biso   1.000  Cu
  Cu5      1.0000 0.88358  0.44988  0.58531  Biso   1.000  Cu
  Cu6      1.0000 0.11642  0.44988  0.91469  Biso   1.000  Cu
  Cu7      1.0000 0.38358  0.94988  0.58531  Biso   1.000  Cu
  Cu8      1.0000 0.61642  0.94988  0.91469  Biso   1.000  Cu
  Cu9      1.0000 0.27222  0.69321  0.44219  Biso   1.000  Cu
  Cu10     1.0000 0.72778  0.69321  0.05781  Biso   1.000  Cu
  Cu11     1.0000 0.77222  0.19321  0.44219  Biso   1.000  Cu
  Cu12     1.0000 0.22778  0.19321  0.05781  Biso   1.000  Cu
  Cu13     1.0000 0.72778  0.30679  0.55781  Biso   1.000  Cu
  Cu14     1.0000 0.27222  0.30679  0.94219  Biso   1.000  Cu
  Cu15     1.0000 0.22778  0.80679  0.55781  Biso   1.000  Cu
  Cu16     1.0000 0.77222  0.80679  0.94219  Biso   1.000  Cu
  N33      1.0000 0.11990  0.39750  0.40000  Biso   1.000  N
  N34      1.0000 0.88010  0.39750  0.10000  Biso   1.000  N
  N35      1.0000 0.61990  0.89750  0.40000  Biso   1.000  N
  N36      1.0000 0.38010  0.89750  0.10000  Biso   1.000  N
  N37      1.0000 0.88010  0.60250  0.60000  Biso   1.000  N
  N38      1.0000 0.11990  0.60250  0.90000  Biso   1.000  N
  N39      1.0000 0.38010  0.10250  0.60000  Biso   1.000  N
  N40      1.0000 0.61990  0.10250  0.90000  Biso   1.000  N
  C17      1.0000 0.02530  0.38610  0.51860  Biso   1.000  C
  C18      1.0000 0.97470  0.38610  0.98140  Biso   1.000  C
  C19      1.0000 0.52530  0.88610  0.51860  Biso   1.000  C
  C20      1.0000 0.47470  0.88610  0.98140  Biso   1.000  C
  C21      1.0000 0.97470  0.61390  0.48140  Biso   1.000  C
  C22      1.0000 0.02530  0.61390  0.01860  Biso   1.000  C
  C23      1.0000 0.47470  0.11390  0.48140  Biso   1.000  C
  C24      1.0000 0.52530  0.11390  0.01860  Biso   1.000  C
  H25      1.0000 0.98210  0.39660  0.47830  Biso   1.000  H
  H26      1.0000 0.01790  0.39660  0.02170  Biso   1.000  H
  H27      1.0000 0.48210  0.89660  0.47830  Biso   1.000  H
  H28      1.0000 0.51790  0.89660  0.02170  Biso   1.000  H
  H29      1.0000 0.01790  0.60340  0.52170  Biso   1.000  H
  H30      1.0000 0.98210  0.60340  0.97830  Biso   1.000  H
  H31      1.0000 0.51790  0.10340  0.52170  Biso   1.000  H
  H32      1.0000 0.48210  0.10340  0.97830  Biso   1.000  H
  N41      1.0000 0.17200  0.33270  0.57090  Biso   1.000  N
  N42      1.0000 0.82800  0.33270  0.92910  Biso   1.000  N
  N43      1.0000 0.67200  0.83270  0.57090  Biso   1.000  N
  N44      1.0000 0.32800  0.83270  0.92910  Biso   1.000  N
  N45      1.0000 0.82800  0.66730  0.42910  Biso   1.000  N
  N46      1.0000 0.17200  0.66730  0.07090  Biso   1.000  N
  N47      1.0000 0.32800  0.16730  0.42910  Biso   1.000  N
  N48      1.0000 0.67200  0.16730  0.07090  Biso   1.000  N
  N49      1.0000 0.12400  0.23110  0.42340  Biso   1.000  N
  N50      1.0000 0.87600  0.23110  0.07660  Biso   1.000  N
  N51      1.0000 0.62400  0.73110  0.42340  Biso   1.000  N
  N52      1.0000 0.37600  0.73110  0.07660  Biso   1.000  N
  N53      1.0000 0.87600  0.76890  0.57660  Biso   1.000  N
  N54      1.0000 0.12400  0.76890  0.92340  Biso   1.000  N
  N55      1.0000 0.37600  0.26890  0.57660  Biso   1.000  N
  N56      1.0000 0.62400  0.26890  0.92340  Biso   1.000  N
  C25      1.0000 0.98530  0.02390  0.40630  Biso   1.000  C
  C26      1.0000 0.01470  0.02390  0.09370  Biso   1.000  C
  C27      1.0000 0.48530  0.52390  0.40630  Biso   1.000  C
  C28      1.0000 0.51470  0.52390  0.09370  Biso   1.000  C
  C29      1.0000 0.01470  0.97610  0.59370  Biso   1.000  C
  C30      1.0000 0.98530  0.97610  0.90630  Biso   1.000  C
  C31      1.0000 0.51470  0.47610  0.59370  Biso   1.000  C
  C32      1.0000 0.48530  0.47610  0.90630  Biso   1.000  C
  C33      1.0000 0.12180  0.34400  0.34100  Biso   1.000  C
  C34      1.0000 0.87820  0.34400  0.15900  Biso   1.000  C
  C35      1.0000 0.62180  0.84400  0.34100  Biso   1.000  C
  C36      1.0000 0.37820  0.84400  0.15900  Biso   1.000  C
  C37      1.0000 0.87820  0.65600  0.65900  Biso   1.000  C
  C38      1.0000 0.12180  0.65600  0.84100  Biso   1.000  C
  C39      1.0000 0.37820  0.15600  0.65900  Biso   1.000  C
  C40      1.0000 0.62180  0.15600  0.84100  Biso   1.000  C
  C41      1.0000 0.12370  0.23950  0.35500  Biso   1.000  C
  C42      1.0000 0.87630  0.23950  0.14500  Biso   1.000  C
  C43      1.0000 0.62370  0.73950  0.35500  Biso   1.000  C
  C44      1.0000 0.37630  0.73950  0.14500  Biso   1.000  C
  C45      1.0000 0.87630  0.76050  0.64500  Biso   1.000  C
  C46      1.0000 0.12370  0.76050  0.85500  Biso   1.000  C
  C47      1.0000 0.37630  0.26050  0.64500  Biso   1.000  C
  C48      1.0000 0.62370  0.26050  0.85500  Biso   1.000  C
  C49      1.0000 0.89660  0.03740  0.40220  Biso   1.000  C
  C50      1.0000 0.10340  0.03740  0.09780  Biso   1.000  C
  C51      1.0000 0.39660  0.53740  0.40220  Biso   1.000  C
  C52      1.0000 0.60340  0.53740  0.09780  Biso   1.000  C
  C53      1.0000 0.10340  0.96260  0.59780  Biso   1.000  C
  C54      1.0000 0.89660  0.96260  0.90220  Biso   1.000  C
  C55      1.0000 0.60340  0.46260  0.59780  Biso   1.000  C
  C56      1.0000 0.39660  0.46260  0.90220  Biso   1.000  C
  C57      1.0000 0.10610  0.35050  0.51500  Biso   1.000  C
  C58      1.0000 0.89390  0.35050  0.98500  Biso   1.000  C
  C59      1.0000 0.60610  0.85050  0.51500  Biso   1.000  C
  C60      1.0000 0.39390  0.85050  0.98500  Biso   1.000  C
  C61      1.0000 0.89390  0.64950  0.48500  Biso   1.000  C
  C62      1.0000 0.10610  0.64950  0.01500  Biso   1.000  C
  C63      1.0000 0.39390  0.14950  0.48500  Biso   1.000  C
  C64      1.0000 0.60610  0.14950  0.01500  Biso   1.000  C
  C65      1.0000 0.95480  0.87770  0.33710  Biso   1.000  C
  C66      1.0000 0.04520  0.87770  0.16290  Biso   1.000  C
  C67      1.0000 0.45480  0.37770  0.33710  Biso   1.000  C
  C68      1.0000 0.54520  0.37770  0.16290  Biso   1.000  C
  C69      1.0000 0.04520  0.12230  0.66290  Biso   1.000  C
  C70      1.0000 0.95480  0.12230  0.83710  Biso   1.000  C
  C71      1.0000 0.54520  0.62230  0.66290  Biso   1.000  C
  C72      1.0000 0.45480  0.62230  0.83710  Biso   1.000  C
  H33      1.0000 0.97210  0.82260  0.31490  Biso   1.000  H
  H34      1.0000 0.02790  0.82260  0.18510  Biso   1.000  H
  H35      1.0000 0.47210  0.32260  0.31490  Biso   1.000  H
  H36      1.0000 0.52790  0.32260  0.18510  Biso   1.000  H
  H37      1.0000 0.02790  0.17740  0.68510  Biso   1.000  H
  H38      1.0000 0.97210  0.17740  0.81490  Biso   1.000  H
  H39      1.0000 0.52790  0.67740  0.68510  Biso   1.000  H
  H40      1.0000 0.47210  0.67740  0.81490  Biso   1.000  H
  C73      1.0000 0.01760  0.94350  0.37490  Biso   1.000  C
  C74      1.0000 0.98240  0.94350  0.12510  Biso   1.000  C
  C75      1.0000 0.51760  0.44350  0.37490  Biso   1.000  C
  C76      1.0000 0.48240  0.44350  0.12510  Biso   1.000  C
  C77      1.0000 0.98240  0.05650  0.62510  Biso   1.000  C
  C78      1.0000 0.01760  0.05650  0.87490  Biso   1.000  C
  C79      1.0000 0.48240  0.55650  0.62510  Biso   1.000  C
  C80      1.0000 0.51760  0.55650  0.87490  Biso   1.000  C
  H41      1.0000 0.07710  0.93470  0.37900  Biso   1.000  H
  H42      1.0000 0.92290  0.93470  0.12100  Biso   1.000  H
  H43      1.0000 0.57710  0.43470  0.37900  Biso   1.000  H
  H44      1.0000 0.42290  0.43470  0.12100  Biso   1.000  H
  H45      1.0000 0.92290  0.06530  0.62100  Biso   1.000  H
  H46      1.0000 0.07710  0.06530  0.87900  Biso   1.000  H
  H47      1.0000 0.42290  0.56530  0.62100  Biso   1.000  H
  H48      1.0000 0.57710  0.56530  0.87900  Biso   1.000  H
  C81      1.0000 0.11920  0.32740  0.44630  Biso   1.000  C
  C82      1.0000 0.88080  0.32740  0.05370  Biso   1.000  C
  C83      1.0000 0.61920  0.82740  0.44630  Biso   1.000  C
  C84      1.0000 0.38080  0.82740  0.05370  Biso   1.000  C
  C85      1.0000 0.88080  0.67260  0.55370  Biso   1.000  C
  C86      1.0000 0.11920  0.67260  0.94630  Biso   1.000  C
  C87      1.0000 0.38080  0.17260  0.55370  Biso   1.000  C
  C88      1.0000 0.61920  0.17260  0.94630  Biso   1.000  C
  C89      1.0000 0.12270  0.37650  0.27690  Biso   1.000  C
  C90      1.0000 0.87730  0.37650  0.22310  Biso   1.000  C
  C91      1.0000 0.62270  0.87650  0.27690  Biso   1.000  C
  C92      1.0000 0.37730  0.87650  0.22310  Biso   1.000  C
  C93      1.0000 0.87730  0.62350  0.72310  Biso   1.000  C
  C94      1.0000 0.12270  0.62350  0.77690  Biso   1.000  C
  C95      1.0000 0.37730  0.12350  0.72310  Biso   1.000  C
  C96      1.0000 0.62270  0.12350  0.77690  Biso   1.000  C
  H49      1.0000 0.12230  0.44570  0.26710  Biso   1.000  H
  H50      1.0000 0.87770  0.44570  0.23290  Biso   1.000  H
  H51      1.0000 0.62230  0.94570  0.26710  Biso   1.000  H
  H52      1.0000 0.37770  0.94570  0.23290  Biso   1.000  H
  H53      1.0000 0.87770  0.55430  0.73290  Biso   1.000  H
  H54      1.0000 0.12230  0.55430  0.76710  Biso   1.000  H
  H55      1.0000 0.37770  0.05430  0.73290  Biso   1.000  H
  H56      1.0000 0.62230  0.05430  0.76710  Biso   1.000  H
  C97      1.0000 0.83560  0.96970  0.36540  Biso   1.000  C
  C98      1.0000 0.16440  0.96970  0.13460  Biso   1.000  C
  C99      1.0000 0.33560  0.46970  0.36540  Biso   1.000  C
  C100     1.0000 0.66440  0.46970  0.13460  Biso   1.000  C
  C101     1.0000 0.16440  0.03030  0.63460  Biso   1.000  C
  C102     1.0000 0.83560  0.03030  0.86540  Biso   1.000  C
  C103     1.0000 0.66440  0.53030  0.63460  Biso   1.000  C
  C104     1.0000 0.33560  0.53030  0.86540  Biso   1.000  C
  H57      1.0000 0.77650  0.97620  0.36380  Biso   1.000  H
  H58      1.0000 0.22350  0.97620  0.13620  Biso   1.000  H
  H59      1.0000 0.27650  0.47620  0.36380  Biso   1.000  H
  H60      1.0000 0.72350  0.47620  0.13620  Biso   1.000  H
  H61      1.0000 0.22350  0.02380  0.63620  Biso   1.000  H
  H62      1.0000 0.77650  0.02380  0.86380  Biso   1.000  H
  H63      1.0000 0.72350  0.52380  0.63620  Biso   1.000  H
  H64      1.0000 0.27650  0.52380  0.86380  Biso   1.000  H
  C105     1.0000 0.12410  0.16750  0.30590  Biso   1.000  C
  C106     1.0000 0.87590  0.16750  0.19410  Biso   1.000  C
  C107     1.0000 0.62410  0.66750  0.30590  Biso   1.000  C
  C108     1.0000 0.37590  0.66750  0.19410  Biso   1.000  C
  C109     1.0000 0.87590  0.83250  0.69410  Biso   1.000  C
  C110     1.0000 0.12410  0.83250  0.80590  Biso   1.000  C
  C111     1.0000 0.37590  0.33250  0.69410  Biso   1.000  C
  C112     1.0000 0.62410  0.33250  0.80590  Biso   1.000  C
  H65      1.0000 0.12280  0.09820  0.31490  Biso   1.000  H
  H66      1.0000 0.87720  0.09820  0.18510  Biso   1.000  H
  H67      1.0000 0.62280  0.59820  0.31490  Biso   1.000  H
  H68      1.0000 0.37720  0.59820  0.18510  Biso   1.000  H
  H69      1.0000 0.87720  0.90180  0.68510  Biso   1.000  H
  H70      1.0000 0.12280  0.90180  0.81490  Biso   1.000  H
  H71      1.0000 0.37720  0.40180  0.68510  Biso   1.000  H
  H72      1.0000 0.62280  0.40180  0.81490  Biso   1.000  H
  C113     1.0000 0.86480  0.89330  0.33180  Biso   1.000  C
  C114     1.0000 0.13520  0.89330  0.16820  Biso   1.000  C
  C115     1.0000 0.36480  0.39330  0.33180  Biso   1.000  C
  C116     1.0000 0.63520  0.39330  0.16820  Biso   1.000  C
  C117     1.0000 0.13520  0.10670  0.66820  Biso   1.000  C
  C118     1.0000 0.86480  0.10670  0.83180  Biso   1.000  C
  C119     1.0000 0.63520  0.60670  0.66820  Biso   1.000  C
  C120     1.0000 0.36480  0.60670  0.83180  Biso   1.000  C
  H73      1.0000 0.82430  0.84980  0.30440  Biso   1.000  H
  H74      1.0000 0.17570  0.84980  0.19560  Biso   1.000  H
  H75      1.0000 0.32430  0.34980  0.30440  Biso   1.000  H
  H76      1.0000 0.67570  0.34980  0.19560  Biso   1.000  H
  H77      1.0000 0.17570  0.15020  0.69560  Biso   1.000  H
  H78      1.0000 0.82430  0.15020  0.80440  Biso   1.000  H
  H79      1.0000 0.67570  0.65020  0.69560  Biso   1.000  H
  H80      1.0000 0.32430  0.65020  0.80440  Biso   1.000  H
  C121     1.0000 0.12410  0.30560  0.22680  Biso   1.000  C
  C122     1.0000 0.87590  0.30560  0.27320  Biso   1.000  C
  C123     1.0000 0.62410  0.80560  0.22680  Biso   1.000  C
  C124     1.0000 0.37590  0.80560  0.27320  Biso   1.000  C
  C125     1.0000 0.87590  0.69440  0.77320  Biso   1.000  C
  C126     1.0000 0.12410  0.69440  0.72680  Biso   1.000  C
  C127     1.0000 0.37590  0.19440  0.77320  Biso   1.000  C
  C128     1.0000 0.62410  0.19440  0.72680  Biso   1.000  C
  H81      1.0000 0.12350  0.32640  0.18280  Biso   1.000  H
  H82      1.0000 0.87650  0.32640  0.31720  Biso   1.000  H
  H83      1.0000 0.62350  0.82640  0.18280  Biso   1.000  H
  H84      1.0000 0.37650  0.82640  0.31720  Biso   1.000  H
  H85      1.0000 0.87650  0.67360  0.81720  Biso   1.000  H
  H86      1.0000 0.12350  0.67360  0.68280  Biso   1.000  H
  H87      1.0000 0.37650  0.17360  0.81720  Biso   1.000  H
  H88      1.0000 0.62350  0.17360  0.68280  Biso   1.000  H
  C129     1.0000 0.12660  0.20300  0.24310  Biso   1.000  C
  C130     1.0000 0.87340  0.20300  0.25690  Biso   1.000  C
  C131     1.0000 0.62660  0.70300  0.24310  Biso   1.000  C
  C132     1.0000 0.37340  0.70300  0.25690  Biso   1.000  C
  C133     1.0000 0.87340  0.79700  0.75690  Biso   1.000  C
  C134     1.0000 0.12660  0.79700  0.74310  Biso   1.000  C
  C135     1.0000 0.37340  0.29700  0.75690  Biso   1.000  C
  C136     1.0000 0.62660  0.29700  0.74310  Biso   1.000  C
  H89      1.0000 0.13000  0.15600  0.20950  Biso   1.000  H
  H90      1.0000 0.87000  0.15600  0.29050  Biso   1.000  H
  H91      1.0000 0.63000  0.65600  0.20950  Biso   1.000  H
  H92      1.0000 0.37000  0.65600  0.29050  Biso   1.000  H
  H93      1.0000 0.87000  0.84400  0.79050  Biso   1.000  H
  H94      1.0000 0.13000  0.84400  0.70950  Biso   1.000  H
  H95      1.0000 0.37000  0.34400  0.79050  Biso   1.000  H
  H96      1.0000 0.63000  0.34400  0.70950  Biso   1.000  H
  C137     1.0000 0.15430  0.35700  0.63050  Biso   1.000  C
  C138     1.0000 0.84570  0.35700  0.86950  Biso   1.000  C
  C139     1.0000 0.65430  0.85700  0.63050  Biso   1.000  C
  C140     1.0000 0.34570  0.85700  0.86950  Biso   1.000  C
  C141     1.0000 0.84570  0.64300  0.36950  Biso   1.000  C
  C142     1.0000 0.15430  0.64300  0.13050  Biso   1.000  C
  C143     1.0000 0.34570  0.14300  0.36950  Biso   1.000  C
  C144     1.0000 0.65430  0.14300  0.13050  Biso   1.000  C
  H97      1.0000 0.19800  0.34980  0.67080  Biso   1.000  H
  H98      1.0000 0.80200  0.34980  0.82920  Biso   1.000  H
  H99      1.0000 0.69800  0.84980  0.67080  Biso   1.000  H
  H100     1.0000 0.30200  0.84980  0.82920  Biso   1.000  H
  H101     1.0000 0.80200  0.65020  0.32920  Biso   1.000  H
  H102     1.0000 0.19800  0.65020  0.17080  Biso   1.000  H
  H103     1.0000 0.30200  0.15020  0.32920  Biso   1.000  H
  H104     1.0000 0.69800  0.15020  0.17080  Biso   1.000  H
