data_image0
_cell_length_a       12.8274
_cell_length_b       12.8274
_cell_length_c       8.574
_cell_angle_alpha    90
_cell_angle_beta     90
_cell_angle_gamma    90

_symmetry_space_group_name_H-M    "P 1"
_symmetry_int_tables_number       1

loop_
  _symmetry_equiv_pos_as_xyz
  'x, y, z'

loop_
  _atom_site_label
  _atom_site_occupancy
  _atom_site_fract_x
  _atom_site_fract_y
  _atom_site_fract_z
  _atom_site_thermal_displace_type
  _atom_site_B_iso_or_equiv
  _atom_site_type_symbol
  I1       1.0000 0.67067  0.58408  0.41545  Biso   1.000  I
  I2       1.0000 0.82933  0.91592  0.41545  Biso   1.000  I
  I3       1.0000 0.41592  0.17067  0.91545  Biso   1.000  I
  I4       1.0000 0.08408  0.32933  0.91545  Biso   1.000  I
  I5       1.0000 0.32933  0.41592  0.58455  Biso   1.000  I
  I6       1.0000 0.17067  0.08408  0.58455  Biso   1.000  I
  I7       1.0000 0.58408  0.82933  0.08455  Biso   1.000  I
  I8       1.0000 0.91592  0.67067  0.08455  Biso   1.000  I
  Cu1      1.0000 0.66356  0.80307  0.37100  Biso   1.000  Cu
  Cu2      1.0000 0.83644  0.69693  0.37100  Biso   1.000  Cu
  Cu3      1.0000 0.19693  0.16356  0.87100  Biso   1.000  Cu
  Cu4      1.0000 0.30307  0.33644  0.87100  Biso   1.000  Cu
  Cu5      1.0000 0.33644  0.19693  0.62900  Biso   1.000  Cu
  Cu6      1.0000 0.16356  0.30307  0.62900  Biso   1.000  Cu
  Cu7      1.0000 0.80307  0.83644  0.12900  Biso   1.000  Cu
  Cu8      1.0000 0.69693  0.66356  0.12900  Biso   1.000  Cu
  Cu9      1.0000 0.44690  0.65633  0.34280  Biso   1.000  Cu
  Cu10     1.0000 0.05310  0.84367  0.34280  Biso   1.000  Cu
  Cu11     1.0000 0.34367  0.94690  0.84280  Biso   1.000  Cu
  Cu12     1.0000 0.15633  0.55310  0.84280  Biso   1.000  Cu
  Cu13     1.0000 0.55310  0.34367  0.65720  Biso   1.000  Cu
  Cu14     1.0000 0.94690  0.15633  0.65720  Biso   1.000  Cu
  Cu15     1.0000 0.65633  0.05310  0.15720  Biso   1.000  Cu
  Cu16     1.0000 0.84367  0.44690  0.15720  Biso   1.000  Cu
  C1       1.0000 0.52160  0.89240  0.63260  Biso   1.000  C
  C2       1.0000 0.97840  0.60760  0.63260  Biso   1.000  C
  C3       1.0000 0.10760  0.02160  0.13260  Biso   1.000  C
  C4       1.0000 0.39240  0.47840  0.13260  Biso   1.000  C
  C5       1.0000 0.47840  0.10760  0.36740  Biso   1.000  C
  C6       1.0000 0.02160  0.39240  0.36740  Biso   1.000  C
  C7       1.0000 0.89240  0.97840  0.86740  Biso   1.000  C
  C8       1.0000 0.60760  0.52160  0.86740  Biso   1.000  C
  N1       1.0000 0.54390  0.82640  0.51730  Biso   1.000  N
  N2       1.0000 0.95610  0.67360  0.51730  Biso   1.000  N
  N3       1.0000 0.17360  0.04390  0.01730  Biso   1.000  N
  N4       1.0000 0.32640  0.45610  0.01730  Biso   1.000  N
  N5       1.0000 0.45610  0.17360  0.48270  Biso   1.000  N
  N6       1.0000 0.04390  0.32640  0.48270  Biso   1.000  N
  N7       1.0000 0.82640  0.95610  0.98270  Biso   1.000  N
  N8       1.0000 0.67360  0.54390  0.98270  Biso   1.000  N
  N9       1.0000 0.45910  0.76410  0.49920  Biso   1.000  N
  N10      1.0000 0.04090  0.73590  0.49920  Biso   1.000  N
  N11      1.0000 0.23590  0.95910  0.99920  Biso   1.000  N
  N12      1.0000 0.26410  0.54090  0.99920  Biso   1.000  N
  N13      1.0000 0.54090  0.23590  0.50080  Biso   1.000  N
  N14      1.0000 0.95910  0.26410  0.50080  Biso   1.000  N
  N15      1.0000 0.76410  0.04090  0.00080  Biso   1.000  N
  N16      1.0000 0.73590  0.45910  0.00080  Biso   1.000  N
  N17      1.0000 0.42350  0.87640  0.68700  Biso   1.000  N
  N18      1.0000 0.07650  0.62360  0.68700  Biso   1.000  N
  N19      1.0000 0.12360  0.92350  0.18700  Biso   1.000  N
  N20      1.0000 0.37640  0.57650  0.18700  Biso   1.000  N
  N21      1.0000 0.57650  0.12360  0.31300  Biso   1.000  N
  N22      1.0000 0.92350  0.37640  0.31300  Biso   1.000  N
  N23      1.0000 0.87640  0.07650  0.81300  Biso   1.000  N
  N24      1.0000 0.62360  0.42350  0.81300  Biso   1.000  N
  C9       1.0000 0.39340  0.79040  0.60700  Biso   1.000  C
  C10      1.0000 0.10660  0.70960  0.60700  Biso   1.000  C
  C11      1.0000 0.20960  0.89340  0.10700  Biso   1.000  C
  C12      1.0000 0.29040  0.60660  0.10700  Biso   1.000  C
  C13      1.0000 0.60660  0.20960  0.39300  Biso   1.000  C
  C14      1.0000 0.89340  0.29040  0.39300  Biso   1.000  C
  C15      1.0000 0.79040  0.10660  0.89300  Biso   1.000  C
  C16      1.0000 0.70960  0.39340  0.89300  Biso   1.000  C
  C17      1.0000 0.59350  0.97640  0.68600  Biso   1.000  C
  C18      1.0000 0.90650  0.52360  0.68600  Biso   1.000  C
  C19      1.0000 0.02360  0.09350  0.18600  Biso   1.000  C
  C20      1.0000 0.47640  0.40650  0.18600  Biso   1.000  C
  C21      1.0000 0.40650  0.02360  0.31400  Biso   1.000  C
  C22      1.0000 0.09350  0.47640  0.31400  Biso   1.000  C
  C23      1.0000 0.97640  0.90650  0.81400  Biso   1.000  C
  C24      1.0000 0.52360  0.59350  0.81400  Biso   1.000  C
  H1       1.0000 0.65870  0.97060  0.63160  Biso   1.000  H
  H2       1.0000 0.84130  0.52940  0.63160  Biso   1.000  H
  H3       1.0000 0.02940  0.15870  0.13160  Biso   1.000  H
  H4       1.0000 0.47060  0.34130  0.13160  Biso   1.000  H
  H5       1.0000 0.34130  0.02940  0.36840  Biso   1.000  H
  H6       1.0000 0.15870  0.47060  0.36840  Biso   1.000  H
  H7       1.0000 0.97060  0.84130  0.86840  Biso   1.000  H
  H8       1.0000 0.52940  0.65870  0.86840  Biso   1.000  H
  H9       1.0000 0.60530  0.96950  0.79610  Biso   1.000  H
  H10      1.0000 0.89470  0.53050  0.79610  Biso   1.000  H
  H11      1.0000 0.03050  0.10530  0.29610  Biso   1.000  H
  H12      1.0000 0.46950  0.39470  0.29610  Biso   1.000  H
  H13      1.0000 0.39470  0.03050  0.20390  Biso   1.000  H
  H14      1.0000 0.10530  0.46950  0.20390  Biso   1.000  H
  H15      1.0000 0.96950  0.89470  0.70390  Biso   1.000  H
  H16      1.0000 0.53050  0.60530  0.70390  Biso   1.000  H
  H17      1.0000 0.56290  0.04320  0.66470  Biso   1.000  H
  H18      1.0000 0.93710  0.45680  0.66470  Biso   1.000  H
  H19      1.0000 0.95680  0.06290  0.16470  Biso   1.000  H
  H20      1.0000 0.54320  0.43710  0.16470  Biso   1.000  H
  H21      1.0000 0.43710  0.95680  0.33530  Biso   1.000  H
  H22      1.0000 0.06290  0.54320  0.33530  Biso   1.000  H
  H23      1.0000 0.04320  0.93710  0.83530  Biso   1.000  H
  H24      1.0000 0.45680  0.56290  0.83530  Biso   1.000  H
  C25      1.0000 0.29460  0.72200  0.63800  Biso   1.000  C
  C26      1.0000 0.20540  0.77800  0.63800  Biso   1.000  C
  C27      1.0000 0.27800  0.79460  0.13800  Biso   1.000  C
  C28      1.0000 0.22200  0.70540  0.13800  Biso   1.000  C
  C29      1.0000 0.70540  0.27800  0.36200  Biso   1.000  C
  C30      1.0000 0.79460  0.22200  0.36200  Biso   1.000  C
  C31      1.0000 0.72200  0.20540  0.86200  Biso   1.000  C
  C32      1.0000 0.77800  0.29460  0.86200  Biso   1.000  C
  H25      1.0000 0.29000  0.66810  0.55870  Biso   1.000  H
  H26      1.0000 0.21000  0.83190  0.55870  Biso   1.000  H
  H27      1.0000 0.33190  0.79000  0.05870  Biso   1.000  H
  H28      1.0000 0.16810  0.71000  0.05870  Biso   1.000  H
  H29      1.0000 0.71000  0.33190  0.44130  Biso   1.000  H
  H30      1.0000 0.79000  0.16810  0.44130  Biso   1.000  H
  H31      1.0000 0.66810  0.21000  0.94130  Biso   1.000  H
  H32      1.0000 0.83190  0.29000  0.94130  Biso   1.000  H
  H33      1.0000 0.30220  0.68740  0.73840  Biso   1.000  H
  H34      1.0000 0.19780  0.81260  0.73840  Biso   1.000  H
  H35      1.0000 0.31260  0.80220  0.23840  Biso   1.000  H
  H36      1.0000 0.18740  0.69780  0.23840  Biso   1.000  H
  H37      1.0000 0.69780  0.31260  0.26160  Biso   1.000  H
  H38      1.0000 0.80220  0.18740  0.26160  Biso   1.000  H
  H39      1.0000 0.68740  0.19780  0.76160  Biso   1.000  H
  H40      1.0000 0.81260  0.30220  0.76160  Biso   1.000  H
