data_image0
_cell_length_a       10.4612
_cell_length_b       11.6733
_cell_length_c       15.4745
_cell_angle_alpha    80.696
_cell_angle_beta     70.225
_cell_angle_gamma    83.182

_symmetry_space_group_name_H-M    "P 1"
_symmetry_int_tables_number       1

loop_
  _symmetry_equiv_pos_as_xyz
  'x, y, z'

loop_
  _atom_site_label
  _atom_site_occupancy
  _atom_site_fract_x
  _atom_site_fract_y
  _atom_site_fract_z
  _atom_site_thermal_displace_type
  _atom_site_B_iso_or_equiv
  _atom_site_type_symbol
  C1       1.0000 0.74290  0.55550  0.06540  Biso   1.000  C
  C2       1.0000 0.25710  0.44450  0.93460  Biso   1.000  C
  H1       1.0000 0.68710  0.49100  0.09730  Biso   1.000  H
  H2       1.0000 0.31290  0.50900  0.90270  Biso   1.000  H
  H3       1.0000 0.83740  0.52820  0.05540  Biso   1.000  H
  H4       1.0000 0.16260  0.47180  0.94460  Biso   1.000  H
  C3       1.0000 0.81470  0.73300  0.91530  Biso   1.000  C
  C4       1.0000 0.18530  0.26700  0.08470  Biso   1.000  C
  H5       1.0000 0.91120  0.71120  0.90170  Biso   1.000  H
  H6       1.0000 0.08880  0.28880  0.09830  Biso   1.000  H
  H7       1.0000 0.80020  0.77450  0.85940  Biso   1.000  H
  H8       1.0000 0.19980  0.22550  0.14060  Biso   1.000  H
  C5       1.0000 0.54490  0.66730  0.99020  Biso   1.000  C
  C6       1.0000 0.45510  0.33270  0.00980  Biso   1.000  C
  H9       1.0000 0.52260  0.70740  0.93660  Biso   1.000  H
  H10      1.0000 0.47740  0.29260  0.06340  Biso   1.000  H
  H11      1.0000 0.48210  0.60680  0.01970  Biso   1.000  H
  H12      1.0000 0.51790  0.39320  0.98030  Biso   1.000  H
  C7       1.0000 0.56120  0.69390  0.13940  Biso   1.000  C
  C8       1.0000 0.43880  0.30610  0.86060  Biso   1.000  C
  H13      1.0000 0.50520  0.62820  0.16560  Biso   1.000  H
  H14      1.0000 0.49480  0.37180  0.83440  Biso   1.000  H
  H15      1.0000 0.53500  0.74840  0.18450  Biso   1.000  H
  H16      1.0000 0.46500  0.25160  0.81550  Biso   1.000  H
  C9       1.0000 0.62210  0.84530  0.01200  Biso   1.000  C
  C10      1.0000 0.37790  0.15470  0.98800  Biso   1.000  C
  H17      1.0000 0.60010  0.90470  0.05300  Biso   1.000  H
  H18      1.0000 0.39990  0.09530  0.94700  Biso   1.000  H
  H19      1.0000 0.60510  0.88010  0.95530  Biso   1.000  H
  H20      1.0000 0.39490  0.11990  0.04470  Biso   1.000  H
  C11      1.0000 0.79300  0.75110  0.07460  Biso   1.000  C
  C12      1.0000 0.20700  0.24890  0.92540  Biso   1.000  C
  H21      1.0000 0.77790  0.80860  0.11640  Biso   1.000  H
  H22      1.0000 0.22210  0.19140  0.88360  Biso   1.000  H
  H23      1.0000 0.88790  0.72260  0.05880  Biso   1.000  H
  H24      1.0000 0.11210  0.27740  0.94120  Biso   1.000  H
  C13      1.0000 0.80220  0.22220  0.92910  Biso   1.000  C
  C14      1.0000 0.19780  0.77780  0.07090  Biso   1.000  C
  H25      1.0000 0.73740  0.23920  0.89550  Biso   1.000  H
  H26      1.0000 0.26260  0.76080  0.10450  Biso   1.000  H
  H27      1.0000 0.75230  0.21840  0.99480  Biso   1.000  H
  H28      1.0000 0.24770  0.78160  0.00520  Biso   1.000  H
  C15      1.0000 0.88080  0.10890  0.90820  Biso   1.000  C
  C16      1.0000 0.11920  0.89110  0.09180  Biso   1.000  C
  H29      1.0000 0.82120  0.04660  0.93400  Biso   1.000  H
  H30      1.0000 0.17880  0.95340  0.06600  Biso   1.000  H
  H31      1.0000 0.95260  0.09770  0.93500  Biso   1.000  H
  H32      1.0000 0.04740  0.90230  0.06500  Biso   1.000  H
  H33      1.0000 0.91920  0.10940  0.84240  Biso   1.000  H
  H34      1.0000 0.08080  0.89060  0.15760  Biso   1.000  H
  C17      1.0000 0.79560  0.45960  0.69250  Biso   1.000  C
  C18      1.0000 0.20440  0.54040  0.30750  Biso   1.000  C
  H35      1.0000 0.85780  0.51940  0.65920  Biso   1.000  H
  H36      1.0000 0.14220  0.48060  0.34080  Biso   1.000  H
  H37      1.0000 0.70800  0.49700  0.72430  Biso   1.000  H
  H38      1.0000 0.29200  0.50300  0.27570  Biso   1.000  H
  C19      1.0000 0.78080  0.38510  0.62680  Biso   1.000  C
  C20      1.0000 0.21920  0.61490  0.37320  Biso   1.000  C
  H39      1.0000 0.73450  0.43020  0.58730  Biso   1.000  H
  H40      1.0000 0.26550  0.56980  0.41270  Biso   1.000  H
  H41      1.0000 0.72920  0.32020  0.66110  Biso   1.000  H
  H42      1.0000 0.27080  0.67980  0.33890  Biso   1.000  H
  H43      1.0000 0.86940  0.35730  0.58970  Biso   1.000  H
  H44      1.0000 0.13060  0.64270  0.41030  Biso   1.000  H
  C21      1.0000 0.41170  0.30850  0.58280  Biso   1.000  C
  C22      1.0000 0.58830  0.69150  0.41720  Biso   1.000  C
  H45      1.0000 0.43570  0.38700  0.55500  Biso   1.000  H
  H46      1.0000 0.56430  0.61300  0.44500  Biso   1.000  H
  H47      1.0000 0.47450  0.27610  0.61580  Biso   1.000  H
  H48      1.0000 0.52550  0.72390  0.38420  Biso   1.000  H
  C23      1.0000 0.35780  0.08790  0.56130  Biso   1.000  C
  C24      1.0000 0.64220  0.91210  0.43870  Biso   1.000  C
  H49      1.0000 0.41850  0.04950  0.59430  Biso   1.000  H
  H50      1.0000 0.58150  0.95050  0.40570  Biso   1.000  H
  H51      1.0000 0.34880  0.03530  0.52150  Biso   1.000  H
  H52      1.0000 0.65120  0.96470  0.47850  Biso   1.000  H
  C25      1.0000 0.28760  0.28610  0.45200  Biso   1.000  C
  C26      1.0000 0.71240  0.71390  0.54800  Biso   1.000  C
  H53      1.0000 0.27580  0.24010  0.40870  Biso   1.000  H
  H54      1.0000 0.72420  0.75990  0.59130  Biso   1.000  H
  H55      1.0000 0.30770  0.36390  0.42040  Biso   1.000  H
  H56      1.0000 0.69230  0.63610  0.57960  Biso   1.000  H
  C27      1.0000 0.23170  0.19180  0.69280  Biso   1.000  C
  C28      1.0000 0.76830  0.80820  0.30720  Biso   1.000  C
  H57      1.0000 0.14440  0.19670  0.74150  Biso   1.000  H
  H58      1.0000 0.85560  0.80330  0.25850  Biso   1.000  H
  H59      1.0000 0.29860  0.15590  0.72130  Biso   1.000  H
  H60      1.0000 0.70140  0.84410  0.27870  Biso   1.000  H
  C29      1.0000 0.12680  0.17360  0.58120  Biso   1.000  C
  C30      1.0000 0.87320  0.82640  0.41880  Biso   1.000  C
  H61      1.0000 0.12390  0.12520  0.53660  Biso   1.000  H
  H62      1.0000 0.87610  0.87480  0.46340  Biso   1.000  H
  H63      1.0000 0.03650  0.17900  0.62650  Biso   1.000  H
  H64      1.0000 0.96350  0.82100  0.37350  Biso   1.000  H
  C31      1.0000 0.17290  0.36190  0.59930  Biso   1.000  C
  C32      1.0000 0.82710  0.63810  0.40070  Biso   1.000  C
  H65      1.0000 0.20110  0.43760  0.56670  Biso   1.000  H
  H66      1.0000 0.79890  0.56240  0.43330  Biso   1.000  H
  H67      1.0000 0.08340  0.37360  0.64450  Biso   1.000  H
  H68      1.0000 0.91660  0.62640  0.35550  Biso   1.000  H
  C33      1.0000 0.71880  0.18050  0.21660  Biso   1.000  C
  C34      1.0000 0.28120  0.81950  0.78340  Biso   1.000  C
  H69      1.0000 0.68510  0.23680  0.17450  Biso   1.000  H
  H70      1.0000 0.31490  0.76320  0.82550  Biso   1.000  H
  H71      1.0000 0.64400  0.13550  0.25710  Biso   1.000  H
  H72      1.0000 0.35600  0.86450  0.74290  Biso   1.000  H
  C35      1.0000 0.83050  0.10220  0.16320  Biso   1.000  C
  C36      1.0000 0.16950  0.89780  0.83680  Biso   1.000  C
  H73      1.0000 0.86760  0.05060  0.20500  Biso   1.000  H
  H74      1.0000 0.13240  0.94940  0.79500  Biso   1.000  H
  H75      1.0000 0.90080  0.14810  0.11970  Biso   1.000  H
  H76      1.0000 0.09920  0.85190  0.88030  Biso   1.000  H
  H77      1.0000 0.79520  0.05760  0.13050  Biso   1.000  H
  H78      1.0000 0.20480  0.94240  0.86950  Biso   1.000  H
  C37      1.0000 0.92370  0.25390  0.39620  Biso   1.000  C
  C38      1.0000 0.07630  0.74610  0.60380  Biso   1.000  C
  H79      1.0000 0.97830  0.24720  0.33230  Biso   1.000  H
  H80      1.0000 0.02170  0.75280  0.66770  Biso   1.000  H
  H81      1.0000 0.97480  0.29000  0.42510  Biso   1.000  H
  H82      1.0000 0.02520  0.71000  0.57490  Biso   1.000  H
  C39      1.0000 0.88410  0.15230  0.44230  Biso   1.000  C
  C40      1.0000 0.11590  0.84770  0.55770  Biso   1.000  C
  H83      1.0000 0.96240  0.09960  0.44060  Biso   1.000  H
  H84      1.0000 0.03760  0.90040  0.55940  Biso   1.000  H
  H85      1.0000 0.82840  0.12160  0.41450  Biso   1.000  H
  H86      1.0000 0.17160  0.87840  0.58550  Biso   1.000  H
  H87      1.0000 0.83240  0.16160  0.50550  Biso   1.000  H
  H88      1.0000 0.16760  0.83840  0.49450  Biso   1.000  H
  N1       1.0000 0.70630  0.65180  0.12417  Biso   1.000  N
  N2       1.0000 0.29370  0.34820  0.87583  Biso   1.000  N
  N3       1.0000 0.76720  0.80780  0.99027  Biso   1.000  N
  N4       1.0000 0.23280  0.19220  0.00973  Biso   1.000  N
  N5       1.0000 0.53190  0.75050  0.05600  Biso   1.000  N
  N6       1.0000 0.46810  0.24950  0.94400  Biso   1.000  N
  N7       1.0000 0.73560  0.50310  0.89190  Biso   1.000  N
  N8       1.0000 0.26440  0.49690  0.10810  Biso   1.000  N
  N9       1.0000 0.26960  0.31210  0.64942  Biso   1.000  N
  N10      1.0000 0.73040  0.68790  0.35058  Biso   1.000  N
  N11      1.0000 0.22260  0.11690  0.62828  Biso   1.000  N
  N12      1.0000 0.77740  0.88310  0.37172  Biso   1.000  N
  N13      1.0000 0.16140  0.29110  0.53280  Biso   1.000  N
  N14      1.0000 0.83860  0.70890  0.46720  Biso   1.000  N
  N15      1.0000 0.57440  0.20270  0.42090  Biso   1.000  N
  N16      1.0000 0.42560  0.79730  0.57910  Biso   1.000  N
  O1       1.0000 0.89890  0.31360  0.90066  Biso   1.000  O
  O2       1.0000 0.10110  0.68640  0.09934  Biso   1.000  O
  O3       1.0000 0.84850  0.38360  0.75856  Biso   1.000  O
  O4       1.0000 0.15150  0.61640  0.24144  Biso   1.000  O
  O5       1.0000 0.77310  0.23990  0.27080  Biso   1.000  O
  O6       1.0000 0.22690  0.76010  0.72920  Biso   1.000  O
  O7       1.0000 0.77820  0.32510  0.40352  Biso   1.000  O
  O8       1.0000 0.22180  0.67490  0.59648  Biso   1.000  O
  F1       1.0000 0.39090  0.04560  0.35140  Biso   1.000  F
  F2       1.0000 0.60910  0.95440  0.64860  Biso   1.000  F
  F3       1.0000 0.20890  0.01400  0.31690  Biso   1.000  F
  F4       1.0000 0.79110  0.98600  0.68310  Biso   1.000  F
  F5       1.0000 0.37330  0.87100  0.31480  Biso   1.000  F
  F6       1.0000 0.62670  0.12900  0.68520  Biso   1.000  F
  F7       1.0000 0.34360  0.95750  0.18250  Biso   1.000  F
  F8       1.0000 0.65640  0.04250  0.81750  Biso   1.000  F
  F9       1.0000 0.36580  0.12930  0.22110  Biso   1.000  F
  F10      1.0000 0.63420  0.87070  0.77890  Biso   1.000  F
  F11      1.0000 0.52160  0.98370  0.21920  Biso   1.000  F
  F12      1.0000 0.47840  0.01630  0.78080  Biso   1.000  F
  P1       1.0000 0.71794  0.60321  0.95435  Biso   1.000  P
  P2       1.0000 0.28206  0.39679  0.04565  Biso   1.000  P
  P3       1.0000 0.87444  0.43229  0.84074  Biso   1.000  P
  P4       1.0000 0.12556  0.56771  0.15926  Biso   1.000  P
  P5       1.0000 0.67411  0.29841  0.35683  Biso   1.000  P
  P6       1.0000 0.32589  0.70159  0.64317  Biso   1.000  P
  P7       1.0000 0.42723  0.22061  0.49242  Biso   1.000  P
  P8       1.0000 0.57277  0.77939  0.50758  Biso   1.000  P
  P9       1.0000 0.36032  0.00046  0.26978  Biso   1.000  P
  P10      1.0000 0.63968  0.99954  0.73022  Biso   1.000  P
  S1       1.0000 0.03796  0.52049  0.80334  Biso   1.000  S
  S2       1.0000 0.96204  0.47951  0.19666  Biso   1.000  S
  S3       1.0000 0.58036  0.44732  0.32099  Biso   1.000  S
  S4       1.0000 0.41964  0.55268  0.67901  Biso   1.000  S
  Cu1      1.0000 0.74964  0.57607  0.25016  Biso   1.000  Cu
  Cu2      1.0000 0.25036  0.42393  0.74984  Biso   1.000  Cu
