data_image0
_cell_length_a       4.101
_cell_length_b       21.088
_cell_length_c       8.713
_cell_angle_alpha    90
_cell_angle_beta     92
_cell_angle_gamma    90

_symmetry_space_group_name_H-M    "P 1"
_symmetry_int_tables_number       1

loop_
  _symmetry_equiv_pos_as_xyz
  'x, y, z'

loop_
  _atom_site_label
  _atom_site_occupancy
  _atom_site_fract_x
  _atom_site_fract_y
  _atom_site_fract_z
  _atom_site_thermal_displace_type
  _atom_site_B_iso_or_equiv
  _atom_site_type_symbol
  Cu1      1.0000 0.95680  0.25000  0.41190  Biso   1.000  Cu
  Cu2      1.0000 0.04320  0.75000  0.58810  Biso   1.000  Cu
  Br1      1.0000 0.44420  0.25000  0.25829  Biso   1.000  Br
  Br2      1.0000 0.55580  0.75000  0.74171  Biso   1.000  Br
  Br3      1.0000 0.30860  0.47363  0.81786  Biso   1.000  Br
  Br4      1.0000 0.69140  0.97363  0.18214  Biso   1.000  Br
  Br5      1.0000 0.69140  0.52637  0.18214  Biso   1.000  Br
  Br6      1.0000 0.30860  0.02637  0.81786  Biso   1.000  Br
  N1       1.0000 0.97600  0.32130  0.57600  Biso   1.000  N
  N2       1.0000 0.02400  0.82130  0.42400  Biso   1.000  N
  N3       1.0000 0.02400  0.67870  0.42400  Biso   1.000  N
  N4       1.0000 0.97600  0.17870  0.57600  Biso   1.000  N
  N5       1.0000 0.88800  0.30640  0.72180  Biso   1.000  N
  N6       1.0000 0.11200  0.80640  0.27820  Biso   1.000  N
  N7       1.0000 0.11200  0.69360  0.27820  Biso   1.000  N
  N8       1.0000 0.88800  0.19360  0.72180  Biso   1.000  N
  C1       1.0000 0.26700  0.40900  0.45020  Biso   1.000  C
  C2       1.0000 0.73300  0.90900  0.54980  Biso   1.000  C
  C3       1.0000 0.73300  0.59100  0.54980  Biso   1.000  C
  C4       1.0000 0.26700  0.09100  0.45020  Biso   1.000  C
  H1       1.0000 0.25840  0.38010  0.36360  Biso   1.000  H
  H2       1.0000 0.74160  0.88010  0.63640  Biso   1.000  H
  H3       1.0000 0.74160  0.61990  0.63640  Biso   1.000  H
  H4       1.0000 0.25840  0.11990  0.36360  Biso   1.000  H
  H5       1.0000 0.49100  0.42130  0.47290  Biso   1.000  H
  H6       1.0000 0.50900  0.92130  0.52710  Biso   1.000  H
  H7       1.0000 0.50900  0.57870  0.52710  Biso   1.000  H
  H8       1.0000 0.49100  0.07870  0.47290  Biso   1.000  H
  H9       1.0000 0.13770  0.44650  0.42530  Biso   1.000  H
  H10      1.0000 0.86230  0.94650  0.57470  Biso   1.000  H
  H11      1.0000 0.86230  0.55350  0.57470  Biso   1.000  H
  H12      1.0000 0.13770  0.05350  0.42530  Biso   1.000  H
  C5       1.0000 0.13000  0.37650  0.58950  Biso   1.000  C
  C6       1.0000 0.87000  0.87650  0.41050  Biso   1.000  C
  C7       1.0000 0.87000  0.62350  0.41050  Biso   1.000  C
  C8       1.0000 0.13000  0.12350  0.58950  Biso   1.000  C
  C9       1.0000 0.12900  0.39720  0.74100  Biso   1.000  C
  C10      1.0000 0.87100  0.89720  0.25900  Biso   1.000  C
  C11      1.0000 0.87100  0.60280  0.25900  Biso   1.000  C
  C12      1.0000 0.12900  0.10280  0.74100  Biso   1.000  C
  C13      1.0000 0.97200  0.35260  0.82540  Biso   1.000  C
  C14      1.0000 0.02800  0.85260  0.17460  Biso   1.000  C
  C15      1.0000 0.02800  0.64740  0.17460  Biso   1.000  C
  C16      1.0000 0.97200  0.14740  0.82540  Biso   1.000  C
  C17      1.0000 0.90100  0.35120  0.99230  Biso   1.000  C
  C18      1.0000 0.09900  0.85120  0.00770  Biso   1.000  C
  C19      1.0000 0.09900  0.64880  0.00770  Biso   1.000  C
  C20      1.0000 0.90100  0.14880  0.99230  Biso   1.000  C
  H13      1.0000 0.96410  0.39130  0.03900  Biso   1.000  H
  H14      1.0000 0.03590  0.89130  0.96100  Biso   1.000  H
  H15      1.0000 0.03590  0.60870  0.96100  Biso   1.000  H
  H16      1.0000 0.96410  0.10870  0.03900  Biso   1.000  H
  H17      1.0000 0.02400  0.31710  0.04190  Biso   1.000  H
  H18      1.0000 0.97600  0.81710  0.95810  Biso   1.000  H
  H19      1.0000 0.97600  0.68290  0.95810  Biso   1.000  H
  H20      1.0000 0.02400  0.18290  0.04190  Biso   1.000  H
  H21      1.0000 0.66980  0.34420  0.00450  Biso   1.000  H
  H22      1.0000 0.33020  0.84420  0.99550  Biso   1.000  H
  H23      1.0000 0.33020  0.65580  0.99550  Biso   1.000  H
  H24      1.0000 0.66980  0.15580  0.00450  Biso   1.000  H
  C21      1.0000 0.69800  0.25000  0.74000  Biso   1.000  C
  C22      1.0000 0.30200  0.75000  0.26000  Biso   1.000  C
  H25      1.0000 0.51580  0.25000  0.66390  Biso   1.000  H
  H26      1.0000 0.48420  0.75000  0.33610  Biso   1.000  H
  H27      1.0000 0.60550  0.25000  0.84230  Biso   1.000  H
  H28      1.0000 0.39450  0.75000  0.15770  Biso   1.000  H
