data_image0
_cell_length_a       4.2751
_cell_length_b       20.54
_cell_length_c       9.072
_cell_angle_alpha    90
_cell_angle_beta     93.893
_cell_angle_gamma    90

_symmetry_space_group_name_H-M    "P 1"
_symmetry_int_tables_number       1

loop_
  _symmetry_equiv_pos_as_xyz
  'x, y, z'

loop_
  _atom_site_label
  _atom_site_occupancy
  _atom_site_fract_x
  _atom_site_fract_y
  _atom_site_fract_z
  _atom_site_thermal_displace_type
  _atom_site_B_iso_or_equiv
  _atom_site_type_symbol
  I1       1.0000 0.45078  0.75000  0.25133  Biso   1.000  I
  I2       1.0000 0.54922  0.25000  0.74867  Biso   1.000  I
  Br1      1.0000 0.29903  0.52123  0.81501  Biso   1.000  Br
  Br2      1.0000 0.70097  0.02123  0.18499  Biso   1.000  Br
  Br3      1.0000 0.70097  0.47877  0.18499  Biso   1.000  Br
  Br4      1.0000 0.29903  0.97877  0.81501  Biso   1.000  Br
  Cu1      1.0000 0.97740  0.75000  0.41179  Biso   1.000  Cu
  Cu2      1.0000 0.02260  0.25000  0.58821  Biso   1.000  Cu
  N1       1.0000 0.99190  0.67640  0.57210  Biso   1.000  N
  N2       1.0000 0.00810  0.17640  0.42790  Biso   1.000  N
  N3       1.0000 0.00810  0.32360  0.42790  Biso   1.000  N
  N4       1.0000 0.99190  0.82360  0.57210  Biso   1.000  N
  N5       1.0000 0.89080  0.69130  0.70880  Biso   1.000  N
  N6       1.0000 0.10920  0.19130  0.29120  Biso   1.000  N
  N7       1.0000 0.10920  0.30870  0.29120  Biso   1.000  N
  N8       1.0000 0.89080  0.80870  0.70880  Biso   1.000  N
  C1       1.0000 0.28050  0.58710  0.46170  Biso   1.000  C
  C2       1.0000 0.71950  0.08710  0.53830  Biso   1.000  C
  C3       1.0000 0.71950  0.41290  0.53830  Biso   1.000  C
  C4       1.0000 0.28050  0.91290  0.46170  Biso   1.000  C
  H1       1.0000 0.21770  0.60990  0.37080  Biso   1.000  H
  H2       1.0000 0.78230  0.10990  0.62920  Biso   1.000  H
  H3       1.0000 0.78230  0.39010  0.62920  Biso   1.000  H
  H4       1.0000 0.21770  0.89010  0.37080  Biso   1.000  H
  H5       1.0000 0.20910  0.54240  0.45470  Biso   1.000  H
  H6       1.0000 0.79090  0.04240  0.54530  Biso   1.000  H
  H7       1.0000 0.79090  0.45760  0.54530  Biso   1.000  H
  H8       1.0000 0.20910  0.95760  0.45470  Biso   1.000  H
  H9       1.0000 0.50720  0.58800  0.47750  Biso   1.000  H
  H10      1.0000 0.49280  0.08800  0.52250  Biso   1.000  H
  H11      1.0000 0.49280  0.41200  0.52250  Biso   1.000  H
  H12      1.0000 0.50720  0.91200  0.47750  Biso   1.000  H
  C5       1.0000 0.13820  0.61980  0.58830  Biso   1.000  C
  C6       1.0000 0.86180  0.11980  0.41170  Biso   1.000  C
  C7       1.0000 0.86180  0.38020  0.41170  Biso   1.000  C
  C8       1.0000 0.13820  0.88020  0.58830  Biso   1.000  C
  C9       1.0000 0.12780  0.59910  0.73470  Biso   1.000  C
  C10      1.0000 0.87220  0.09910  0.26530  Biso   1.000  C
  C11      1.0000 0.87220  0.40090  0.26530  Biso   1.000  C
  C12      1.0000 0.12780  0.90090  0.73470  Biso   1.000  C
  C13      1.0000 0.96700  0.64470  0.80940  Biso   1.000  C
  C14      1.0000 0.03300  0.14470  0.19060  Biso   1.000  C
  C15      1.0000 0.03300  0.35530  0.19060  Biso   1.000  C
  C16      1.0000 0.96700  0.85530  0.80940  Biso   1.000  C
  C17      1.0000 0.88280  0.64720  0.96610  Biso   1.000  C
  C18      1.0000 0.11720  0.14720  0.03390  Biso   1.000  C
  C19      1.0000 0.11720  0.35280  0.03390  Biso   1.000  C
  C20      1.0000 0.88280  0.85280  0.96610  Biso   1.000  C
  H13      1.0000 0.00290  0.68130  0.01800  Biso   1.000  H
  H14      1.0000 0.99710  0.18130  0.98200  Biso   1.000  H
  H15      1.0000 0.99710  0.31870  0.98200  Biso   1.000  H
  H16      1.0000 0.00290  0.81870  0.01800  Biso   1.000  H
  H17      1.0000 0.93000  0.60570  0.01330  Biso   1.000  H
  H18      1.0000 0.07000  0.10570  0.98670  Biso   1.000  H
  H19      1.0000 0.07000  0.39430  0.98670  Biso   1.000  H
  H20      1.0000 0.93000  0.89430  0.01330  Biso   1.000  H
  H21      1.0000 0.66070  0.65640  0.96910  Biso   1.000  H
  H22      1.0000 0.33930  0.15640  0.03090  Biso   1.000  H
  H23      1.0000 0.33930  0.34360  0.03090  Biso   1.000  H
  H24      1.0000 0.66070  0.84360  0.96910  Biso   1.000  H
  C21      1.0000 0.70900  0.75000  0.72290  Biso   1.000  C
  C22      1.0000 0.29100  0.25000  0.27710  Biso   1.000  C
  H25      1.0000 0.53490  0.75000  0.64680  Biso   1.000  H
  H26      1.0000 0.46510  0.25000  0.35320  Biso   1.000  H
  H27      1.0000 0.61920  0.75000  0.81950  Biso   1.000  H
  H28      1.0000 0.38080  0.25000  0.18050  Biso   1.000  H
