data_image0
_cell_length_a       12.9036
_cell_length_b       11.9095
_cell_length_c       22.3016
_cell_angle_alpha    90
_cell_angle_beta     91.791
_cell_angle_gamma    90

_symmetry_space_group_name_H-M    "P 1"
_symmetry_int_tables_number       1

loop_
  _symmetry_equiv_pos_as_xyz
  'x, y, z'

loop_
  _atom_site_label
  _atom_site_occupancy
  _atom_site_fract_x
  _atom_site_fract_y
  _atom_site_fract_z
  _atom_site_thermal_displace_type
  _atom_site_B_iso_or_equiv
  _atom_site_type_symbol
  Cu1      1.0000 0.76980  0.51990  0.05743  Biso   1.000  Cu
  Cu2      1.0000 0.73020  0.01990  0.44257  Biso   1.000  Cu
  Cu3      1.0000 0.23020  0.48010  0.94257  Biso   1.000  Cu
  Cu4      1.0000 0.26980  0.98010  0.55743  Biso   1.000  Cu
  Cu5      1.0000 0.35610  0.49590  0.22546  Biso   1.000  Cu
  Cu6      1.0000 0.14390  0.99590  0.27454  Biso   1.000  Cu
  Cu7      1.0000 0.64390  0.50410  0.77454  Biso   1.000  Cu
  Cu8      1.0000 0.85610  0.00410  0.72546  Biso   1.000  Cu
  W1       1.0000 0.56729  0.09752  0.85672  Biso   1.000  W
  W2       1.0000 0.93271  0.59752  0.64328  Biso   1.000  W
  W3       1.0000 0.43271  0.90248  0.14328  Biso   1.000  W
  W4       1.0000 0.06729  0.40248  0.35672  Biso   1.000  W
  W5       1.0000 0.30518  0.09253  0.89699  Biso   1.000  W
  W6       1.0000 0.19482  0.59253  0.60301  Biso   1.000  W
  W7       1.0000 0.69482  0.90747  0.10301  Biso   1.000  W
  W8       1.0000 0.80518  0.40747  0.39699  Biso   1.000  W
  W9       1.0000 0.43724  0.83914  0.87025  Biso   1.000  W
  W10      1.0000 0.06276  0.33914  0.62975  Biso   1.000  W
  W11      1.0000 0.56276  0.16086  0.12975  Biso   1.000  W
  W12      1.0000 0.93724  0.66086  0.37025  Biso   1.000  W
  W13      1.0000 0.76254  0.00145  0.95824  Biso   1.000  W
  W14      1.0000 0.73746  0.50145  0.54176  Biso   1.000  W
  W15      1.0000 0.23746  0.99855  0.04176  Biso   1.000  W
  W16      1.0000 0.26254  0.49855  0.45824  Biso   1.000  W
  W17      1.0000 0.63274  0.25397  0.98512  Biso   1.000  W
  W18      1.0000 0.86726  0.75397  0.51488  Biso   1.000  W
  W19      1.0000 0.36726  0.74603  0.01488  Biso   1.000  W
  W20      1.0000 0.13274  0.24603  0.48512  Biso   1.000  W
  W21      1.0000 0.36918  0.25292  0.02523  Biso   1.000  W
  W22      1.0000 0.13082  0.75292  0.47477  Biso   1.000  W
  W23      1.0000 0.63082  0.74708  0.97477  Biso   1.000  W
  W24      1.0000 0.86918  0.24708  0.52523  Biso   1.000  W
  C1       1.0000 0.56000  0.50800  0.08640  Biso   1.000  C
  C2       1.0000 0.94000  0.00800  0.41360  Biso   1.000  C
  C3       1.0000 0.44000  0.49200  0.91360  Biso   1.000  C
  C4       1.0000 0.06000  0.99200  0.58640  Biso   1.000  C
  H1       1.0000 0.54910  0.49210  0.04590  Biso   1.000  H
  H2       1.0000 0.95090  0.99210  0.45410  Biso   1.000  H
  H3       1.0000 0.45090  0.50790  0.95410  Biso   1.000  H
  H4       1.0000 0.04910  0.00790  0.54590  Biso   1.000  H
  C5       1.0000 0.48200  0.50900  0.12490  Biso   1.000  C
  C6       1.0000 0.01800  0.00900  0.37510  Biso   1.000  C
  C7       1.0000 0.51800  0.49100  0.87510  Biso   1.000  C
  C8       1.0000 0.98200  0.99100  0.62490  Biso   1.000  C
  H5       1.0000 0.41630  0.49300  0.10840  Biso   1.000  H
  H6       1.0000 0.08370  0.99300  0.39160  Biso   1.000  H
  H7       1.0000 0.58370  0.50700  0.89160  Biso   1.000  H
  H8       1.0000 0.91630  0.00700  0.60840  Biso   1.000  H
  C9       1.0000 0.57790  0.55790  0.20430  Biso   1.000  C
  C10      1.0000 0.92210  0.05790  0.29570  Biso   1.000  C
  C11      1.0000 0.42210  0.44210  0.79570  Biso   1.000  C
  C12      1.0000 0.07790  0.94210  0.70430  Biso   1.000  C
  C13      1.0000 0.58300  0.59300  0.27040  Biso   1.000  C
  C14      1.0000 0.91700  0.09300  0.22960  Biso   1.000  C
  C15      1.0000 0.41700  0.40700  0.72960  Biso   1.000  C
  C16      1.0000 0.08300  0.90700  0.77040  Biso   1.000  C
  H9       1.0000 0.60160  0.67040  0.27350  Biso   1.000  H
  H10      1.0000 0.89840  0.17040  0.22650  Biso   1.000  H
  H11      1.0000 0.39840  0.32960  0.72650  Biso   1.000  H
  H12      1.0000 0.10160  0.82960  0.77350  Biso   1.000  H
  H13      1.0000 0.63420  0.54790  0.29160  Biso   1.000  H
  H14      1.0000 0.86580  0.04790  0.20840  Biso   1.000  H
  H15      1.0000 0.36580  0.45210  0.70840  Biso   1.000  H
  H16      1.0000 0.13420  0.95210  0.79160  Biso   1.000  H
  H17      1.0000 0.51660  0.58100  0.28760  Biso   1.000  H
  H18      1.0000 0.98340  0.08100  0.21240  Biso   1.000  H
  H19      1.0000 0.48340  0.41900  0.71240  Biso   1.000  H
  H20      1.0000 0.01660  0.91900  0.78760  Biso   1.000  H
  C17      1.0000 0.66520  0.55290  0.16970  Biso   1.000  C
  C18      1.0000 0.83480  0.05290  0.33030  Biso   1.000  C
  C19      1.0000 0.33480  0.44710  0.83030  Biso   1.000  C
  C20      1.0000 0.16520  0.94710  0.66970  Biso   1.000  C
  C21      1.0000 0.77300  0.57600  0.19340  Biso   1.000  C
  C22      1.0000 0.72700  0.07600  0.30660  Biso   1.000  C
  C23      1.0000 0.22700  0.42400  0.80660  Biso   1.000  C
  C24      1.0000 0.27300  0.92400  0.69340  Biso   1.000  C
  H21      1.0000 0.81210  0.61260  0.16260  Biso   1.000  H
  H22      1.0000 0.68790  0.11260  0.33740  Biso   1.000  H
  H23      1.0000 0.18790  0.38740  0.83740  Biso   1.000  H
  H24      1.0000 0.31210  0.88740  0.66260  Biso   1.000  H
  H25      1.0000 0.77020  0.62570  0.22760  Biso   1.000  H
  H26      1.0000 0.72980  0.12570  0.27240  Biso   1.000  H
  H27      1.0000 0.22980  0.37430  0.77240  Biso   1.000  H
  H28      1.0000 0.27020  0.87430  0.72760  Biso   1.000  H
  C25      1.0000 0.82300  0.47500  0.21100  Biso   1.000  C
  C26      1.0000 0.67700  0.97500  0.28900  Biso   1.000  C
  C27      1.0000 0.17700  0.52500  0.78900  Biso   1.000  C
  C28      1.0000 0.32300  0.02500  0.71100  Biso   1.000  C
  H29      1.0000 0.78110  0.43590  0.23880  Biso   1.000  H
  H30      1.0000 0.71890  0.93590  0.26120  Biso   1.000  H
  H31      1.0000 0.21890  0.56410  0.76120  Biso   1.000  H
  H32      1.0000 0.28110  0.06410  0.73880  Biso   1.000  H
  H33      1.0000 0.88920  0.49190  0.22900  Biso   1.000  H
  H34      1.0000 0.61080  0.99190  0.27100  Biso   1.000  H
  H35      1.0000 0.11080  0.50810  0.77100  Biso   1.000  H
  H36      1.0000 0.38920  0.00810  0.72900  Biso   1.000  H
  H37      1.0000 0.83180  0.42890  0.17590  Biso   1.000  H
  H38      1.0000 0.66820  0.92890  0.32410  Biso   1.000  H
  H39      1.0000 0.16820  0.57110  0.82410  Biso   1.000  H
  H40      1.0000 0.33180  0.07110  0.67590  Biso   1.000  H
  C29      1.0000 0.28450  0.68220  0.30060  Biso   1.000  C
  C30      1.0000 0.21550  0.18220  0.19940  Biso   1.000  C
  C31      1.0000 0.71550  0.31780  0.69940  Biso   1.000  C
  C32      1.0000 0.78450  0.81780  0.80060  Biso   1.000  C
  H41      1.0000 0.32550  0.64920  0.33080  Biso   1.000  H
  H42      1.0000 0.17450  0.14920  0.16920  Biso   1.000  H
  H43      1.0000 0.67450  0.35080  0.66920  Biso   1.000  H
  H44      1.0000 0.82550  0.85080  0.83080  Biso   1.000  H
  C33      1.0000 0.20040  0.67340  0.20710  Biso   1.000  C
  C34      1.0000 0.29960  0.17340  0.29290  Biso   1.000  C
  C35      1.0000 0.79960  0.32660  0.79290  Biso   1.000  C
  C36      1.0000 0.70040  0.82660  0.70710  Biso   1.000  C
  C37      1.0000 0.24440  0.78420  0.31080  Biso   1.000  C
  C38      1.0000 0.25560  0.28420  0.18920  Biso   1.000  C
  C39      1.0000 0.75560  0.21580  0.68920  Biso   1.000  C
  C40      1.0000 0.74440  0.71580  0.81080  Biso   1.000  C
  H45      1.0000 0.26030  0.82090  0.34670  Biso   1.000  H
  H46      1.0000 0.23970  0.32090  0.15330  Biso   1.000  H
  H47      1.0000 0.73970  0.17910  0.65330  Biso   1.000  H
  H48      1.0000 0.76030  0.67910  0.84670  Biso   1.000  H
  C41      1.0000 0.15690  0.77830  0.21890  Biso   1.000  C
  C42      1.0000 0.34310  0.27830  0.28110  Biso   1.000  C
  C43      1.0000 0.84310  0.22170  0.78110  Biso   1.000  C
  C44      1.0000 0.65690  0.72170  0.71890  Biso   1.000  C
  C45      1.0000 0.07800  0.83100  0.17310  Biso   1.000  C
  C46      1.0000 0.42200  0.33100  0.32690  Biso   1.000  C
  C47      1.0000 0.92200  0.16900  0.82690  Biso   1.000  C
  C48      1.0000 0.57800  0.66900  0.67310  Biso   1.000  C
  H49      1.0000 0.09180  0.91020  0.16930  Biso   1.000  H
  H50      1.0000 0.40820  0.41020  0.33070  Biso   1.000  H
  H51      1.0000 0.90820  0.08980  0.83070  Biso   1.000  H
  H52      1.0000 0.59180  0.58980  0.66930  Biso   1.000  H
  H53      1.0000 0.00870  0.82100  0.18690  Biso   1.000  H
  H54      1.0000 0.49130  0.32100  0.31310  Biso   1.000  H
  H55      1.0000 0.99130  0.17900  0.81310  Biso   1.000  H
  H56      1.0000 0.50870  0.67900  0.68690  Biso   1.000  H
  H57      1.0000 0.08410  0.79570  0.13480  Biso   1.000  H
  H58      1.0000 0.41590  0.29570  0.36520  Biso   1.000  H
  H59      1.0000 0.91590  0.20430  0.86520  Biso   1.000  H
  H60      1.0000 0.58410  0.70430  0.63480  Biso   1.000  H
  C49      1.0000 0.18000  0.60300  0.15140  Biso   1.000  C
  C50      1.0000 0.32000  0.10300  0.34860  Biso   1.000  C
  C51      1.0000 0.82000  0.39700  0.84860  Biso   1.000  C
  C52      1.0000 0.68000  0.89700  0.65140  Biso   1.000  C
  H61      1.0000 0.23750  0.55190  0.14530  Biso   1.000  H
  H62      1.0000 0.26250  0.05190  0.35470  Biso   1.000  H
  H63      1.0000 0.76250  0.44810  0.85470  Biso   1.000  H
  H64      1.0000 0.73750  0.94810  0.64530  Biso   1.000  H
  H65      1.0000 0.17190  0.65050  0.11630  Biso   1.000  H
  H66      1.0000 0.32810  0.15050  0.38370  Biso   1.000  H
  H67      1.0000 0.82810  0.34950  0.88370  Biso   1.000  H
  H68      1.0000 0.67190  0.84950  0.61630  Biso   1.000  H
  C53      1.0000 0.08000  0.53500  0.16030  Biso   1.000  C
  C54      1.0000 0.42000  0.03500  0.33970  Biso   1.000  C
  C55      1.0000 0.92000  0.46500  0.83970  Biso   1.000  C
  C56      1.0000 0.58000  0.96500  0.66030  Biso   1.000  C
  H69      1.0000 0.08460  0.49690  0.19820  Biso   1.000  H
  H70      1.0000 0.41540  0.99690  0.30180  Biso   1.000  H
  H71      1.0000 0.91540  0.50310  0.80180  Biso   1.000  H
  H72      1.0000 0.58460  0.00310  0.69820  Biso   1.000  H
  H73      1.0000 0.07110  0.48130  0.12860  Biso   1.000  H
  H74      1.0000 0.42890  0.98130  0.37140  Biso   1.000  H
  H75      1.0000 0.92890  0.51870  0.87140  Biso   1.000  H
  H76      1.0000 0.57110  0.01870  0.62860  Biso   1.000  H
  H77      1.0000 0.02170  0.58540  0.15990  Biso   1.000  H
  H78      1.0000 0.47830  0.08540  0.34010  Biso   1.000  H
  H79      1.0000 0.97830  0.41460  0.84010  Biso   1.000  H
  H80      1.0000 0.52170  0.91460  0.65990  Biso   1.000  H
  C57      1.0000 0.95010  0.40700  0.02050  Biso   1.000  C
  C58      1.0000 0.54990  0.90700  0.47950  Biso   1.000  C
  C59      1.0000 0.04990  0.59300  0.97950  Biso   1.000  C
  C60      1.0000 0.45010  0.09300  0.52050  Biso   1.000  C
  C61      1.0000 0.04690  0.39900  0.99370  Biso   1.000  C
  C62      1.0000 0.45310  0.89900  0.50630  Biso   1.000  C
  C63      1.0000 0.95310  0.60100  0.00630  Biso   1.000  C
  C64      1.0000 0.54690  0.10100  0.49370  Biso   1.000  C
  C65      1.0000 0.90100  0.30300  0.04900  Biso   1.000  C
  C66      1.0000 0.59900  0.80300  0.45100  Biso   1.000  C
  C67      1.0000 0.09900  0.69700  0.95100  Biso   1.000  C
  C68      1.0000 0.40100  0.19700  0.54900  Biso   1.000  C
  H81      1.0000 0.84370  0.33280  0.07090  Biso   1.000  H
  H82      1.0000 0.65630  0.83280  0.42910  Biso   1.000  H
  H83      1.0000 0.15630  0.66720  0.92910  Biso   1.000  H
  H84      1.0000 0.34370  0.16720  0.57090  Biso   1.000  H
  H85      1.0000 0.87030  0.26240  0.01520  Biso   1.000  H
  H86      1.0000 0.62970  0.76240  0.48480  Biso   1.000  H
  H87      1.0000 0.12970  0.73760  0.98480  Biso   1.000  H
  H88      1.0000 0.37030  0.23760  0.51520  Biso   1.000  H
  C69      1.0000 0.94700  0.21300  0.08900  Biso   1.000  C
  C70      1.0000 0.55300  0.71300  0.41100  Biso   1.000  C
  C71      1.0000 0.05300  0.78700  0.91100  Biso   1.000  C
  C72      1.0000 0.44700  0.28700  0.58900  Biso   1.000  C
  H89      1.0000 0.01240  0.23870  0.10590  Biso   1.000  H
  H90      1.0000 0.48760  0.73870  0.39410  Biso   1.000  H
  H91      1.0000 0.98760  0.76130  0.89410  Biso   1.000  H
  H92      1.0000 0.51240  0.26130  0.60590  Biso   1.000  H
  H93      1.0000 0.95730  0.14640  0.06620  Biso   1.000  H
  H94      1.0000 0.54270  0.64640  0.43380  Biso   1.000  H
  H95      1.0000 0.04270  0.85360  0.93380  Biso   1.000  H
  H96      1.0000 0.45730  0.35360  0.56620  Biso   1.000  H
  H97      1.0000 0.90060  0.19810  0.12080  Biso   1.000  H
  H98      1.0000 0.59940  0.69810  0.37920  Biso   1.000  H
  H99      1.0000 0.09940  0.80190  0.87920  Biso   1.000  H
  H100     1.0000 0.40060  0.30190  0.62080  Biso   1.000  H
  C73      1.0000 0.09200  0.28100  0.97400  Biso   1.000  C
  C74      1.0000 0.40800  0.78100  0.52600  Biso   1.000  C
  C75      1.0000 0.90800  0.71900  0.02600  Biso   1.000  C
  C76      1.0000 0.59200  0.21900  0.47400  Biso   1.000  C
  H101     1.0000 0.12930  0.28950  0.93830  Biso   1.000  H
  H102     1.0000 0.37070  0.78950  0.56170  Biso   1.000  H
  H103     1.0000 0.87070  0.71050  0.06170  Biso   1.000  H
  H104     1.0000 0.62930  0.21050  0.43830  Biso   1.000  H
  H105     1.0000 0.13710  0.25280  0.00580  Biso   1.000  H
  H106     1.0000 0.36290  0.75280  0.49420  Biso   1.000  H
  H107     1.0000 0.86290  0.74720  0.99420  Biso   1.000  H
  H108     1.0000 0.63710  0.24720  0.50580  Biso   1.000  H
  H109     1.0000 0.03540  0.22940  0.96750  Biso   1.000  H
  H110     1.0000 0.46460  0.72940  0.53250  Biso   1.000  H
  H111     1.0000 0.96460  0.77060  0.03250  Biso   1.000  H
  H112     1.0000 0.53540  0.27060  0.46750  Biso   1.000  H
  N1       1.0000 0.65730  0.53120  0.10980  Biso   1.000  N
  N2       1.0000 0.84270  0.03120  0.39020  Biso   1.000  N
  N3       1.0000 0.34270  0.46880  0.89020  Biso   1.000  N
  N4       1.0000 0.15730  0.96880  0.60980  Biso   1.000  N
  N5       1.0000 0.48580  0.52960  0.18270  Biso   1.000  N
  N6       1.0000 0.01420  0.02960  0.31730  Biso   1.000  N
  N7       1.0000 0.51420  0.47040  0.81730  Biso   1.000  N
  N8       1.0000 0.98580  0.97040  0.68270  Biso   1.000  N
  N9       1.0000 0.26790  0.62480  0.24850  Biso   1.000  N
  N10      1.0000 0.23210  0.12480  0.25150  Biso   1.000  N
  N11      1.0000 0.73210  0.37520  0.75150  Biso   1.000  N
  N12      1.0000 0.76790  0.87520  0.74850  Biso   1.000  N
  N13      1.0000 0.18000  0.83510  0.26850  Biso   1.000  N
  N14      1.0000 0.32000  0.33510  0.23150  Biso   1.000  N
  N15      1.0000 0.82000  0.16490  0.73150  Biso   1.000  N
  N16      1.0000 0.68000  0.66490  0.76850  Biso   1.000  N
  N17      1.0000 0.90440  0.50960  0.02730  Biso   1.000  N
  N18      1.0000 0.59560  0.00960  0.47270  Biso   1.000  N
  N19      1.0000 0.09560  0.49040  0.97270  Biso   1.000  N
  N20      1.0000 0.40440  0.99040  0.52730  Biso   1.000  N
  O1       1.0000 0.47570  0.00780  0.93570  Biso   1.000  O
  O2       1.0000 0.02430  0.50780  0.56430  Biso   1.000  O
  O3       1.0000 0.52430  0.99220  0.06430  Biso   1.000  O
  O4       1.0000 0.97570  0.49220  0.43570  Biso   1.000  O
  O5       1.0000 0.57570  0.06790  0.95350  Biso   1.000  O
  O6       1.0000 0.92430  0.56790  0.54650  Biso   1.000  O
  O7       1.0000 0.42430  0.93210  0.04650  Biso   1.000  O
  O8       1.0000 0.07570  0.43210  0.45350  Biso   1.000  O
  O9       1.0000 0.37940  0.06640  0.98380  Biso   1.000  O
  O10      1.0000 0.12060  0.56640  0.51620  Biso   1.000  O
  O11      1.0000 0.62060  0.93360  0.01620  Biso   1.000  O
  O12      1.0000 0.87940  0.43360  0.48380  Biso   1.000  O
  O13      1.0000 0.47900  0.87350  0.96520  Biso   1.000  O
  O14      1.0000 0.02100  0.37350  0.53480  Biso   1.000  O
  O15      1.0000 0.52100  0.12650  0.03480  Biso   1.000  O
  O16      1.0000 0.97900  0.62650  0.46520  Biso   1.000  O
  O17      1.0000 0.69410  0.03870  0.87780  Biso   1.000  O
  O18      1.0000 0.80590  0.53870  0.62220  Biso   1.000  O
  O19      1.0000 0.30590  0.96130  0.12220  Biso   1.000  O
  O20      1.0000 0.19410  0.46130  0.37780  Biso   1.000  O
  O21      1.0000 0.88520  0.99940  0.93840  Biso   1.000  O
  O22      1.0000 0.61480  0.49940  0.56160  Biso   1.000  O
  O23      1.0000 0.11480  0.00060  0.06160  Biso   1.000  O
  O24      1.0000 0.38520  0.50060  0.43840  Biso   1.000  O
  O25      1.0000 0.59820  0.14520  0.78820  Biso   1.000  O
  O26      1.0000 0.90180  0.64520  0.71180  Biso   1.000  O
  O27      1.0000 0.40180  0.85480  0.21180  Biso   1.000  O
  O28      1.0000 0.09820  0.35480  0.28820  Biso   1.000  O
  O29      1.0000 0.42940  0.13890  0.85940  Biso   1.000  O
  O30      1.0000 0.07060  0.63890  0.64060  Biso   1.000  O
  O31      1.0000 0.57060  0.86110  0.14060  Biso   1.000  O
  O32      1.0000 0.92940  0.36110  0.35940  Biso   1.000  O
  O33      1.0000 0.32730  0.94470  0.86770  Biso   1.000  O
  O34      1.0000 0.17270  0.44470  0.63230  Biso   1.000  O
  O35      1.0000 0.67270  0.05530  0.13230  Biso   1.000  O
  O36      1.0000 0.82730  0.55530  0.36770  Biso   1.000  O
  O37      1.0000 0.21090  0.13800  0.84730  Biso   1.000  O
  O38      1.0000 0.28910  0.63800  0.65270  Biso   1.000  O
  O39      1.0000 0.78910  0.86200  0.15270  Biso   1.000  O
  O40      1.0000 0.71090  0.36200  0.34730  Biso   1.000  O
  O41      1.0000 0.52290  0.94740  0.83880  Biso   1.000  O
  O42      1.0000 0.97710  0.44740  0.66120  Biso   1.000  O
  O43      1.0000 0.47710  0.05260  0.16120  Biso   1.000  O
  O44      1.0000 0.02290  0.55260  0.33880  Biso   1.000  O
  O45      1.0000 0.48100  0.27600  0.97800  Biso   1.000  O
  O46      1.0000 0.01900  0.77600  0.52200  Biso   1.000  O
  O47      1.0000 0.51900  0.72400  0.02200  Biso   1.000  O
  O48      1.0000 0.98100  0.22400  0.47800  Biso   1.000  O
  O49      1.0000 0.51130  0.33300  0.00880  Biso   1.000  O
  O50      1.0000 0.98870  0.83300  0.49120  Biso   1.000  O
  O51      1.0000 0.48870  0.66700  0.99120  Biso   1.000  O
  O52      1.0000 0.01130  0.16700  0.50880  Biso   1.000  O
  O53      1.0000 0.30510  0.37550  0.03630  Biso   1.000  O
  O54      1.0000 0.19490  0.87550  0.46370  Biso   1.000  O
  O55      1.0000 0.69490  0.62450  0.96370  Biso   1.000  O
  O56      1.0000 0.80510  0.12450  0.53630  Biso   1.000  O
  O57      1.0000 0.74400  0.15410  0.97900  Biso   1.000  O
  O58      1.0000 0.75600  0.65410  0.52100  Biso   1.000  O
  O59      1.0000 0.25600  0.84590  0.02100  Biso   1.000  O
  O60      1.0000 0.24400  0.34590  0.47900  Biso   1.000  O
  O61      1.0000 0.59800  0.22510  0.89780  Biso   1.000  O
  O62      1.0000 0.90200  0.72510  0.60220  Biso   1.000  O
  O63      1.0000 0.40200  0.77490  0.10220  Biso   1.000  O
  O64      1.0000 0.09800  0.27490  0.39780  Biso   1.000  O
  O65      1.0000 0.40520  0.76000  0.80870  Biso   1.000  O
  O66      1.0000 0.09480  0.26000  0.69130  Biso   1.000  O
  O67      1.0000 0.59480  0.24000  0.19130  Biso   1.000  O
  O68      1.0000 0.90520  0.74000  0.30870  Biso   1.000  O
  O69      1.0000 0.69540  0.37630  0.97910  Biso   1.000  O
  O70      1.0000 0.80460  0.87630  0.52090  Biso   1.000  O
  O71      1.0000 0.30460  0.62370  0.02090  Biso   1.000  O
  O72      1.0000 0.19540  0.12370  0.47910  Biso   1.000  O
  O73      1.0000 0.56010  0.76820  0.90110  Biso   1.000  O
  O74      1.0000 0.93990  0.26820  0.59890  Biso   1.000  O
  O75      1.0000 0.43990  0.23180  0.09890  Biso   1.000  O
  O76      1.0000 0.06010  0.73180  0.40110  Biso   1.000  O
  Si1      1.0000 0.50000  0.00000  0.00000  Biso   1.000  Si
  Si2      1.0000 0.00000  0.50000  0.50000  Biso   1.000  Si
  O77      1.0000 0.37700  0.79100  0.94780  Biso   1.000  O
  O78      1.0000 0.12300  0.29100  0.55220  Biso   1.000  O
  O79      1.0000 0.62300  0.20900  0.05220  Biso   1.000  O
  O80      1.0000 0.87700  0.70900  0.44780  Biso   1.000  O
  O81      1.0000 0.69500  0.85890  0.93510  Biso   1.000  O
  O82      1.0000 0.80500  0.35890  0.56490  Biso   1.000  O
  O83      1.0000 0.30500  0.14110  0.06490  Biso   1.000  O
  O84      1.0000 0.19500  0.64110  0.43510  Biso   1.000  O
  O85      1.0000 0.19500  0.04000  0.94570  Biso   1.000  O
  O86      1.0000 0.30500  0.54000  0.55430  Biso   1.000  O
  O87      1.0000 0.80500  0.96000  0.05430  Biso   1.000  O
  O88      1.0000 0.69500  0.46000  0.44570  Biso   1.000  O
  O89      1.0000 0.28600  0.23030  0.93630  Biso   1.000  O
  O90      1.0000 0.21400  0.73030  0.56370  Biso   1.000  O
  O91      1.0000 0.71400  0.76970  0.06370  Biso   1.000  O
  O92      1.0000 0.78600  0.26970  0.43630  Biso   1.000  O
  O93      1.0000 0.65400  0.26300  0.08650  Biso   1.000  O
  O94      1.0000 0.84600  0.76300  0.41350  Biso   1.000  O
  O95      1.0000 0.34600  0.73700  0.91350  Biso   1.000  O
  O96      1.0000 0.15400  0.23700  0.58650  Biso   1.000  O
  O97      1.0000 0.23600  0.16170  0.04470  Biso   1.000  O
  O98      1.0000 0.26400  0.66170  0.45530  Biso   1.000  O
  O99      1.0000 0.76400  0.83830  0.95530  Biso   1.000  O
  O100     1.0000 0.73600  0.33830  0.54470  Biso   1.000  O
  O101     1.0000 0.73800  0.98480  0.02540  Biso   1.000  O
  O102     1.0000 0.76200  0.48480  0.47460  Biso   1.000  O
  O103     1.0000 0.26200  0.01520  0.97460  Biso   1.000  O
  O104     1.0000 0.23800  0.51520  0.52540  Biso   1.000  O
  O105     1.0000 0.64300  0.79300  0.04620  Biso   1.000  O
  O106     1.0000 0.85700  0.29300  0.45380  Biso   1.000  O
  O107     1.0000 0.35700  0.20700  0.95380  Biso   1.000  O
  O108     1.0000 0.14300  0.70700  0.54620  Biso   1.000  O
