data_image0
_cell_length_a       22.254
_cell_length_b       11.464
_cell_length_c       23.344
_cell_angle_alpha    90
_cell_angle_beta     90
_cell_angle_gamma    90

_symmetry_space_group_name_H-M    "P 1"
_symmetry_int_tables_number       1

loop_
  _symmetry_equiv_pos_as_xyz
  'x, y, z'

loop_
  _atom_site_label
  _atom_site_occupancy
  _atom_site_fract_x
  _atom_site_fract_y
  _atom_site_fract_z
  _atom_site_thermal_displace_type
  _atom_site_B_iso_or_equiv
  _atom_site_type_symbol
  Cu1      1.0000 0.19450  0.00010  0.53181  Biso   1.000  Cu
  Cu2      1.0000 0.30550  0.99990  0.03181  Biso   1.000  Cu
  Cu3      1.0000 0.69450  0.49990  0.46819  Biso   1.000  Cu
  Cu4      1.0000 0.80550  0.50010  0.96819  Biso   1.000  Cu
  Cu5      1.0000 0.80550  0.99990  0.46819  Biso   1.000  Cu
  Cu6      1.0000 0.69450  0.00010  0.96819  Biso   1.000  Cu
  Cu7      1.0000 0.30550  0.50010  0.53181  Biso   1.000  Cu
  Cu8      1.0000 0.19450  0.49990  0.03181  Biso   1.000  Cu
  Cu9      1.0000 0.14110  0.78480  0.27320  Biso   1.000  Cu
  Cu10     1.0000 0.35890  0.21520  0.77320  Biso   1.000  Cu
  Cu11     1.0000 0.64110  0.71520  0.72680  Biso   1.000  Cu
  Cu12     1.0000 0.85890  0.28480  0.22680  Biso   1.000  Cu
  Cu13     1.0000 0.85890  0.21520  0.72680  Biso   1.000  Cu
  Cu14     1.0000 0.64110  0.78480  0.22680  Biso   1.000  Cu
  Cu15     1.0000 0.35890  0.28480  0.27320  Biso   1.000  Cu
  Cu16     1.0000 0.14110  0.71520  0.77320  Biso   1.000  Cu
  C1       1.0000 0.09180  0.01600  0.32400  Biso   1.000  C
  C2       1.0000 0.40820  0.98400  0.82400  Biso   1.000  C
  C3       1.0000 0.59180  0.48400  0.67600  Biso   1.000  C
  C4       1.0000 0.90820  0.51600  0.17600  Biso   1.000  C
  C5       1.0000 0.90820  0.98400  0.67600  Biso   1.000  C
  C6       1.0000 0.59180  0.01600  0.17600  Biso   1.000  C
  C7       1.0000 0.40820  0.51600  0.32400  Biso   1.000  C
  C8       1.0000 0.09180  0.48400  0.82400  Biso   1.000  C
  H1       1.0000 0.08540  0.96800  0.29070  Biso   1.000  H
  H2       1.0000 0.41460  0.03200  0.79070  Biso   1.000  H
  H3       1.0000 0.58540  0.53200  0.70930  Biso   1.000  H
  H4       1.0000 0.91460  0.46800  0.20930  Biso   1.000  H
  H5       1.0000 0.91460  0.03200  0.70930  Biso   1.000  H
  H6       1.0000 0.58540  0.96800  0.20930  Biso   1.000  H
  H7       1.0000 0.41460  0.46800  0.29070  Biso   1.000  H
  H8       1.0000 0.08540  0.53200  0.79070  Biso   1.000  H
  H9       1.0000 0.10900  0.08880  0.31270  Biso   1.000  H
  H10      1.0000 0.39100  0.91120  0.81270  Biso   1.000  H
  H11      1.0000 0.60900  0.41120  0.68730  Biso   1.000  H
  H12      1.0000 0.89100  0.58880  0.18730  Biso   1.000  H
  H13      1.0000 0.89100  0.91120  0.68730  Biso   1.000  H
  H14      1.0000 0.60900  0.08880  0.18730  Biso   1.000  H
  H15      1.0000 0.39100  0.58880  0.31270  Biso   1.000  H
  H16      1.0000 0.10900  0.41120  0.81270  Biso   1.000  H
  H17      1.0000 0.05410  0.02910  0.34290  Biso   1.000  H
  H18      1.0000 0.44590  0.97090  0.84290  Biso   1.000  H
  H19      1.0000 0.55410  0.47090  0.65710  Biso   1.000  H
  H20      1.0000 0.94590  0.52910  0.15710  Biso   1.000  H
  H21      1.0000 0.94590  0.97090  0.65710  Biso   1.000  H
  H22      1.0000 0.55410  0.02910  0.15710  Biso   1.000  H
  H23      1.0000 0.44590  0.52910  0.34290  Biso   1.000  H
  H24      1.0000 0.05410  0.47090  0.84290  Biso   1.000  H
  C9       1.0000 0.13390  0.95410  0.36450  Biso   1.000  C
  C10      1.0000 0.36610  0.04590  0.86450  Biso   1.000  C
  C11      1.0000 0.63390  0.54590  0.63550  Biso   1.000  C
  C12      1.0000 0.86610  0.45410  0.13550  Biso   1.000  C
  C13      1.0000 0.86610  0.04590  0.63550  Biso   1.000  C
  C14      1.0000 0.63390  0.95410  0.13550  Biso   1.000  C
  C15      1.0000 0.36610  0.45410  0.36450  Biso   1.000  C
  C16      1.0000 0.13390  0.54590  0.86450  Biso   1.000  C
  C17      1.0000 0.20290  0.80730  0.37990  Biso   1.000  C
  C18      1.0000 0.29710  0.19270  0.87990  Biso   1.000  C
  C19      1.0000 0.70290  0.69270  0.62010  Biso   1.000  C
  C20      1.0000 0.79710  0.30730  0.12010  Biso   1.000  C
  C21      1.0000 0.79710  0.19270  0.62010  Biso   1.000  C
  C22      1.0000 0.70290  0.80730  0.12010  Biso   1.000  C
  C23      1.0000 0.29710  0.30730  0.37990  Biso   1.000  C
  C24      1.0000 0.20290  0.69270  0.87990  Biso   1.000  C
  C25      1.0000 0.23590  0.70500  0.35720  Biso   1.000  C
  C26      1.0000 0.26410  0.29500  0.85720  Biso   1.000  C
  C27      1.0000 0.73590  0.79500  0.64280  Biso   1.000  C
  C28      1.0000 0.76410  0.20500  0.14280  Biso   1.000  C
  C29      1.0000 0.76410  0.29500  0.64280  Biso   1.000  C
  C30      1.0000 0.73590  0.70500  0.14280  Biso   1.000  C
  C31      1.0000 0.26410  0.20500  0.35720  Biso   1.000  C
  C32      1.0000 0.23590  0.79500  0.85720  Biso   1.000  C
  H25      1.0000 0.25650  0.66640  0.38800  Biso   1.000  H
  H26      1.0000 0.24350  0.33360  0.88800  Biso   1.000  H
  H27      1.0000 0.75650  0.83360  0.61200  Biso   1.000  H
  H28      1.0000 0.74350  0.16640  0.11200  Biso   1.000  H
  H29      1.0000 0.74350  0.33360  0.61200  Biso   1.000  H
  H30      1.0000 0.75650  0.66640  0.11200  Biso   1.000  H
  H31      1.0000 0.24350  0.16640  0.38800  Biso   1.000  H
  H32      1.0000 0.25650  0.83360  0.88800  Biso   1.000  H
  H33      1.0000 0.26460  0.73030  0.32910  Biso   1.000  H
  H34      1.0000 0.23540  0.26970  0.82910  Biso   1.000  H
  H35      1.0000 0.76460  0.76970  0.67090  Biso   1.000  H
  H36      1.0000 0.73540  0.23030  0.17090  Biso   1.000  H
  H37      1.0000 0.73540  0.26970  0.67090  Biso   1.000  H
  H38      1.0000 0.76460  0.73030  0.17090  Biso   1.000  H
  H39      1.0000 0.23540  0.23030  0.32910  Biso   1.000  H
  H40      1.0000 0.26460  0.76970  0.82910  Biso   1.000  H
  H41      1.0000 0.20800  0.65170  0.33980  Biso   1.000  H
  H42      1.0000 0.29200  0.34830  0.83980  Biso   1.000  H
  H43      1.0000 0.70800  0.84830  0.66020  Biso   1.000  H
  H44      1.0000 0.79200  0.15170  0.16020  Biso   1.000  H
  H45      1.0000 0.79200  0.34830  0.66020  Biso   1.000  H
  H46      1.0000 0.70800  0.65170  0.16020  Biso   1.000  H
  H47      1.0000 0.29200  0.15170  0.33980  Biso   1.000  H
  H48      1.0000 0.20800  0.84830  0.83980  Biso   1.000  H
  C33      1.0000 0.21320  0.85130  0.43380  Biso   1.000  C
  C34      1.0000 0.28680  0.14870  0.93380  Biso   1.000  C
  C35      1.0000 0.71320  0.64870  0.56620  Biso   1.000  C
  C36      1.0000 0.78680  0.35130  0.06620  Biso   1.000  C
  C37      1.0000 0.78680  0.14870  0.56620  Biso   1.000  C
  C38      1.0000 0.71320  0.85130  0.06620  Biso   1.000  C
  C39      1.0000 0.28680  0.35130  0.43380  Biso   1.000  C
  C40      1.0000 0.21320  0.64870  0.93380  Biso   1.000  C
  H49      1.0000 0.24150  0.81500  0.45720  Biso   1.000  H
  H50      1.0000 0.25850  0.18500  0.95720  Biso   1.000  H
  H51      1.0000 0.74150  0.68500  0.54280  Biso   1.000  H
  H52      1.0000 0.75850  0.31500  0.04280  Biso   1.000  H
  H53      1.0000 0.75850  0.18500  0.54280  Biso   1.000  H
  H54      1.0000 0.74150  0.81500  0.04280  Biso   1.000  H
  H55      1.0000 0.25850  0.31500  0.45720  Biso   1.000  H
  H56      1.0000 0.24150  0.68500  0.95720  Biso   1.000  H
  C41      1.0000 0.14340  0.99880  0.41750  Biso   1.000  C
  C42      1.0000 0.35660  0.00120  0.91750  Biso   1.000  C
  C43      1.0000 0.64340  0.50120  0.58250  Biso   1.000  C
  C44      1.0000 0.85660  0.49880  0.08250  Biso   1.000  C
  C45      1.0000 0.85660  0.00120  0.58250  Biso   1.000  C
  C46      1.0000 0.64340  0.99880  0.08250  Biso   1.000  C
  C47      1.0000 0.35660  0.49880  0.41750  Biso   1.000  C
  C48      1.0000 0.14340  0.50120  0.91750  Biso   1.000  C
  H57      1.0000 0.12280  0.06510  0.42950  Biso   1.000  H
  H58      1.0000 0.37720  0.93490  0.92950  Biso   1.000  H
  H59      1.0000 0.62280  0.43490  0.57050  Biso   1.000  H
  H60      1.0000 0.87720  0.56510  0.07050  Biso   1.000  H
  H61      1.0000 0.87720  0.93490  0.57050  Biso   1.000  H
  H62      1.0000 0.62280  0.06510  0.07050  Biso   1.000  H
  H63      1.0000 0.37720  0.56510  0.42950  Biso   1.000  H
  H64      1.0000 0.12280  0.43490  0.92950  Biso   1.000  H
  C49      1.0000 0.07320  0.93600  0.72690  Biso   1.000  C
  C50      1.0000 0.42680  0.06400  0.22690  Biso   1.000  C
  C51      1.0000 0.57320  0.56400  0.27310  Biso   1.000  C
  C52      1.0000 0.92680  0.43600  0.77310  Biso   1.000  C
  C53      1.0000 0.92680  0.06400  0.27310  Biso   1.000  C
  C54      1.0000 0.57320  0.93600  0.77310  Biso   1.000  C
  C55      1.0000 0.42680  0.43600  0.72690  Biso   1.000  C
  C56      1.0000 0.07320  0.56400  0.22690  Biso   1.000  C
  H65      1.0000 0.07770  0.90490  0.76490  Biso   1.000  H
  H66      1.0000 0.42230  0.09510  0.26490  Biso   1.000  H
  H67      1.0000 0.57770  0.59510  0.23510  Biso   1.000  H
  H68      1.0000 0.92230  0.40490  0.73510  Biso   1.000  H
  H69      1.0000 0.92230  0.09510  0.23510  Biso   1.000  H
  H70      1.0000 0.57770  0.90490  0.73510  Biso   1.000  H
  H71      1.0000 0.42230  0.40490  0.76490  Biso   1.000  H
  H72      1.0000 0.07770  0.59510  0.26490  Biso   1.000  H
  H73      1.0000 0.07130  0.01920  0.72850  Biso   1.000  H
  H74      1.0000 0.42870  0.98080  0.22850  Biso   1.000  H
  H75      1.0000 0.57130  0.48080  0.27150  Biso   1.000  H
  H76      1.0000 0.92870  0.51920  0.77150  Biso   1.000  H
  H77      1.0000 0.92870  0.98080  0.27150  Biso   1.000  H
  H78      1.0000 0.57130  0.01920  0.77150  Biso   1.000  H
  H79      1.0000 0.42870  0.51920  0.72850  Biso   1.000  H
  H80      1.0000 0.07130  0.48080  0.22850  Biso   1.000  H
  H81      1.0000 0.03680  0.90590  0.71020  Biso   1.000  H
  H82      1.0000 0.46320  0.09410  0.21020  Biso   1.000  H
  H83      1.0000 0.53680  0.59410  0.28980  Biso   1.000  H
  H84      1.0000 0.96320  0.40590  0.78980  Biso   1.000  H
  H85      1.0000 0.96320  0.09410  0.28980  Biso   1.000  H
  H86      1.0000 0.53680  0.90590  0.78980  Biso   1.000  H
  H87      1.0000 0.46320  0.40590  0.71020  Biso   1.000  H
  H88      1.0000 0.03680  0.59410  0.21020  Biso   1.000  H
  C57      1.0000 0.12490  0.89990  0.69160  Biso   1.000  C
  C58      1.0000 0.37510  0.10010  0.19160  Biso   1.000  C
  C59      1.0000 0.62490  0.60010  0.30840  Biso   1.000  C
  C60      1.0000 0.87510  0.39990  0.80840  Biso   1.000  C
  C61      1.0000 0.87510  0.10010  0.30840  Biso   1.000  C
  C62      1.0000 0.62490  0.89990  0.80840  Biso   1.000  C
  C63      1.0000 0.37510  0.39990  0.69160  Biso   1.000  C
  C64      1.0000 0.12490  0.60010  0.19160  Biso   1.000  C
  C65      1.0000 0.20640  0.78090  0.67230  Biso   1.000  C
  C66      1.0000 0.29360  0.21910  0.17230  Biso   1.000  C
  C67      1.0000 0.70640  0.71910  0.32770  Biso   1.000  C
  C68      1.0000 0.79360  0.28090  0.82770  Biso   1.000  C
  C69      1.0000 0.79360  0.21910  0.32770  Biso   1.000  C
  C70      1.0000 0.70640  0.78090  0.82770  Biso   1.000  C
  C71      1.0000 0.29360  0.28090  0.67230  Biso   1.000  C
  C72      1.0000 0.20640  0.71910  0.17230  Biso   1.000  C
  C73      1.0000 0.24450  0.67500  0.68870  Biso   1.000  C
  C74      1.0000 0.25550  0.32500  0.18870  Biso   1.000  C
  C75      1.0000 0.74450  0.82500  0.31130  Biso   1.000  C
  C76      1.0000 0.75550  0.17500  0.81130  Biso   1.000  C
  C77      1.0000 0.75550  0.32500  0.31130  Biso   1.000  C
  C78      1.0000 0.74450  0.67500  0.81130  Biso   1.000  C
  C79      1.0000 0.25550  0.17500  0.68870  Biso   1.000  C
  C80      1.0000 0.24450  0.82500  0.18870  Biso   1.000  C
  H89      1.0000 0.27580  0.66430  0.66090  Biso   1.000  H
  H90      1.0000 0.22420  0.33570  0.16090  Biso   1.000  H
  H91      1.0000 0.77580  0.83570  0.33910  Biso   1.000  H
  H92      1.0000 0.72420  0.16430  0.83910  Biso   1.000  H
  H93      1.0000 0.72420  0.33570  0.33910  Biso   1.000  H
  H94      1.0000 0.77580  0.66430  0.83910  Biso   1.000  H
  H95      1.0000 0.22420  0.16430  0.66090  Biso   1.000  H
  H96      1.0000 0.27580  0.83570  0.16090  Biso   1.000  H
  H97      1.0000 0.26210  0.68730  0.72580  Biso   1.000  H
  H98      1.0000 0.23790  0.31270  0.22580  Biso   1.000  H
  H99      1.0000 0.76210  0.81270  0.27420  Biso   1.000  H
  H100     1.0000 0.73790  0.18730  0.77420  Biso   1.000  H
  H101     1.0000 0.73790  0.31270  0.27420  Biso   1.000  H
  H102     1.0000 0.76210  0.68730  0.77420  Biso   1.000  H
  H103     1.0000 0.23790  0.18730  0.72580  Biso   1.000  H
  H104     1.0000 0.26210  0.81270  0.22580  Biso   1.000  H
  H105     1.0000 0.21960  0.60660  0.68980  Biso   1.000  H
  H106     1.0000 0.28040  0.39340  0.18980  Biso   1.000  H
  H107     1.0000 0.71960  0.89340  0.31020  Biso   1.000  H
  H108     1.0000 0.78040  0.10660  0.81020  Biso   1.000  H
  H109     1.0000 0.78040  0.39340  0.31020  Biso   1.000  H
  H110     1.0000 0.71960  0.60660  0.81020  Biso   1.000  H
  H111     1.0000 0.28040  0.10660  0.68980  Biso   1.000  H
  H112     1.0000 0.21960  0.89340  0.18980  Biso   1.000  H
  C81      1.0000 0.21760  0.83590  0.62490  Biso   1.000  C
  C82      1.0000 0.28240  0.16410  0.12490  Biso   1.000  C
  C83      1.0000 0.71760  0.66410  0.37510  Biso   1.000  C
  C84      1.0000 0.78240  0.33590  0.87510  Biso   1.000  C
  C85      1.0000 0.78240  0.16410  0.37510  Biso   1.000  C
  C86      1.0000 0.71760  0.83590  0.87510  Biso   1.000  C
  C87      1.0000 0.28240  0.33590  0.62490  Biso   1.000  C
  C88      1.0000 0.21760  0.66410  0.12490  Biso   1.000  C
  H113     1.0000 0.24850  0.80960  0.60130  Biso   1.000  H
  H114     1.0000 0.25150  0.19040  0.10130  Biso   1.000  H
  H115     1.0000 0.74850  0.69040  0.39870  Biso   1.000  H
  H116     1.0000 0.75150  0.30960  0.89870  Biso   1.000  H
  H117     1.0000 0.75150  0.19040  0.39870  Biso   1.000  H
  H118     1.0000 0.74850  0.80960  0.89870  Biso   1.000  H
  H119     1.0000 0.25150  0.30960  0.60130  Biso   1.000  H
  H120     1.0000 0.24850  0.69040  0.10130  Biso   1.000  H
  C89      1.0000 0.13810  0.96250  0.64080  Biso   1.000  C
  C90      1.0000 0.36190  0.03750  0.14080  Biso   1.000  C
  C91      1.0000 0.63810  0.53750  0.35920  Biso   1.000  C
  C92      1.0000 0.86190  0.46250  0.85920  Biso   1.000  C
  C93      1.0000 0.86190  0.03750  0.35920  Biso   1.000  C
  C94      1.0000 0.63810  0.96250  0.85920  Biso   1.000  C
  C95      1.0000 0.36190  0.46250  0.64080  Biso   1.000  C
  C96      1.0000 0.13810  0.53750  0.14080  Biso   1.000  C
  H121     1.0000 0.11390  0.02490  0.63000  Biso   1.000  H
  H122     1.0000 0.38610  0.97510  0.13000  Biso   1.000  H
  H123     1.0000 0.61390  0.47510  0.37000  Biso   1.000  H
  H124     1.0000 0.88610  0.52490  0.87000  Biso   1.000  H
  H125     1.0000 0.88610  0.97510  0.37000  Biso   1.000  H
  H126     1.0000 0.61390  0.02490  0.87000  Biso   1.000  H
  H127     1.0000 0.38610  0.52490  0.63000  Biso   1.000  H
  H128     1.0000 0.11390  0.47510  0.13000  Biso   1.000  H
  O1       1.0000 0.05580  0.85720  0.20490  Biso   1.000  O
  O2       1.0000 0.44420  0.14280  0.70490  Biso   1.000  O
  O3       1.0000 0.55580  0.64280  0.79510  Biso   1.000  O
  O4       1.0000 0.94420  0.35720  0.29510  Biso   1.000  O
  O5       1.0000 0.94420  0.14280  0.79510  Biso   1.000  O
  O6       1.0000 0.55580  0.85720  0.29510  Biso   1.000  O
  O7       1.0000 0.44420  0.35720  0.20490  Biso   1.000  O
  O8       1.0000 0.05580  0.64280  0.70490  Biso   1.000  O
  O9       1.0000 0.06220  0.56540  0.03090  Biso   1.000  O
  O10      1.0000 0.43780  0.43460  0.53090  Biso   1.000  O
  O11      1.0000 0.56220  0.93460  0.96910  Biso   1.000  O
  O12      1.0000 0.93780  0.06540  0.46910  Biso   1.000  O
  O13      1.0000 0.93780  0.43460  0.96910  Biso   1.000  O
  O14      1.0000 0.56220  0.56540  0.46910  Biso   1.000  O
  O15      1.0000 0.43780  0.06540  0.03090  Biso   1.000  O
  O16      1.0000 0.06220  0.93460  0.53090  Biso   1.000  O
  O17      1.0000 0.95260  0.28300  0.05840  Biso   1.000  O
  O18      1.0000 0.54740  0.71700  0.55840  Biso   1.000  O
  O19      1.0000 0.45260  0.21700  0.94160  Biso   1.000  O
  O20      1.0000 0.04740  0.78300  0.44160  Biso   1.000  O
  O21      1.0000 0.04740  0.71700  0.94160  Biso   1.000  O
  O22      1.0000 0.45260  0.28300  0.44160  Biso   1.000  O
  O23      1.0000 0.54740  0.78300  0.05840  Biso   1.000  O
  O24      1.0000 0.95260  0.21700  0.55840  Biso   1.000  O
  O25      1.0000 0.91630  0.10740  0.12420  Biso   1.000  O
  O26      1.0000 0.58370  0.89260  0.62420  Biso   1.000  O
  O27      1.0000 0.41630  0.39260  0.87580  Biso   1.000  O
  O28      1.0000 0.08370  0.60740  0.37580  Biso   1.000  O
  O29      1.0000 0.08370  0.89260  0.87580  Biso   1.000  O
  O30      1.0000 0.41630  0.10740  0.37580  Biso   1.000  O
  O31      1.0000 0.58370  0.60740  0.12420  Biso   1.000  O
  O32      1.0000 0.91630  0.39260  0.62420  Biso   1.000  O
  O33      1.0000 0.95870  0.69340  0.01690  Biso   1.000  O
  O34      1.0000 0.54130  0.30660  0.51690  Biso   1.000  O
  O35      1.0000 0.45870  0.80660  0.98310  Biso   1.000  O
  O36      1.0000 0.04130  0.19340  0.48310  Biso   1.000  O
  O37      1.0000 0.04130  0.30660  0.98310  Biso   1.000  O
  O38      1.0000 0.45870  0.69340  0.48310  Biso   1.000  O
  O39      1.0000 0.54130  0.19340  0.01690  Biso   1.000  O
  O40      1.0000 0.95870  0.80660  0.51690  Biso   1.000  O
  O41      1.0000 0.02990  0.05980  0.15060  Biso   1.000  O
  O42      1.0000 0.47010  0.94020  0.65060  Biso   1.000  O
  O43      1.0000 0.52990  0.44020  0.84940  Biso   1.000  O
  O44      1.0000 0.97010  0.55980  0.34940  Biso   1.000  O
  O45      1.0000 0.97010  0.94020  0.84940  Biso   1.000  O
  O46      1.0000 0.52990  0.05980  0.34940  Biso   1.000  O
  O47      1.0000 0.47010  0.55980  0.15060  Biso   1.000  O
  O48      1.0000 0.02990  0.44020  0.65060  Biso   1.000  O
  O49      1.0000 0.98140  0.27590  0.17550  Biso   1.000  O
  O50      1.0000 0.51860  0.72410  0.67550  Biso   1.000  O
  O51      1.0000 0.48140  0.22410  0.82450  Biso   1.000  O
  O52      1.0000 0.01860  0.77590  0.32450  Biso   1.000  O
  O53      1.0000 0.01860  0.72410  0.82450  Biso   1.000  O
  O54      1.0000 0.48140  0.27590  0.32450  Biso   1.000  O
  O55      1.0000 0.51860  0.77590  0.17550  Biso   1.000  O
  O56      1.0000 0.98140  0.22410  0.67550  Biso   1.000  O
  O57      1.0000 0.06370  0.23490  0.08930  Biso   1.000  O
  O58      1.0000 0.43630  0.76510  0.58930  Biso   1.000  O
  O59      1.0000 0.56370  0.26510  0.91070  Biso   1.000  O
  O60      1.0000 0.93630  0.73490  0.41070  Biso   1.000  O
  O61      1.0000 0.93630  0.76510  0.91070  Biso   1.000  O
  O62      1.0000 0.56370  0.23490  0.41070  Biso   1.000  O
  O63      1.0000 0.43630  0.73490  0.08930  Biso   1.000  O
  O64      1.0000 0.06370  0.26510  0.58930  Biso   1.000  O
  O65      1.0000 0.13870  0.19000  0.94040  Biso   1.000  O
  O66      1.0000 0.36130  0.81000  0.44040  Biso   1.000  O
  O67      1.0000 0.63870  0.31000  0.05960  Biso   1.000  O
  O68      1.0000 0.86130  0.69000  0.55960  Biso   1.000  O
  O69      1.0000 0.86130  0.81000  0.05960  Biso   1.000  O
  O70      1.0000 0.63870  0.19000  0.55960  Biso   1.000  O
  O71      1.0000 0.36130  0.69000  0.94040  Biso   1.000  O
  O72      1.0000 0.13870  0.31000  0.44040  Biso   1.000  O
  O73      1.0000 0.89150  0.84100  0.05410  Biso   1.000  O
  O74      1.0000 0.60850  0.15900  0.55410  Biso   1.000  O
  O75      1.0000 0.39150  0.65900  0.94590  Biso   1.000  O
  O76      1.0000 0.10850  0.34100  0.44590  Biso   1.000  O
  O77      1.0000 0.10850  0.15900  0.94590  Biso   1.000  O
  O78      1.0000 0.39150  0.84100  0.44590  Biso   1.000  O
  O79      1.0000 0.60850  0.34100  0.05410  Biso   1.000  O
  O80      1.0000 0.89150  0.65900  0.55410  Biso   1.000  O
  O81      1.0000 0.95130  0.89060  0.14240  Biso   1.000  O
  O82      1.0000 0.54870  0.10940  0.64240  Biso   1.000  O
  O83      1.0000 0.45130  0.60940  0.85760  Biso   1.000  O
  O84      1.0000 0.04870  0.39060  0.35760  Biso   1.000  O
  O85      1.0000 0.04870  0.10940  0.85760  Biso   1.000  O
  O86      1.0000 0.45130  0.89060  0.35760  Biso   1.000  O
  O87      1.0000 0.54870  0.39060  0.14240  Biso   1.000  O
  O88      1.0000 0.95130  0.60940  0.64240  Biso   1.000  O
  O89      1.0000 0.00700  0.13300  0.02280  Biso   1.000  O
  O90      1.0000 0.49300  0.86700  0.52280  Biso   1.000  O
  O91      1.0000 0.50700  0.36700  0.97720  Biso   1.000  O
  O92      1.0000 0.99300  0.63300  0.47720  Biso   1.000  O
  O93      1.0000 0.99300  0.86700  0.97720  Biso   1.000  O
  O94      1.0000 0.50700  0.13300  0.47720  Biso   1.000  O
  O95      1.0000 0.49300  0.63300  0.02280  Biso   1.000  O
  O96      1.0000 0.00700  0.36700  0.52280  Biso   1.000  O
  O97      1.0000 0.11210  0.92380  0.10830  Biso   1.000  O
  O98      1.0000 0.38790  0.07620  0.60830  Biso   1.000  O
  O99      1.0000 0.61210  0.57620  0.89170  Biso   1.000  O
  O100     1.0000 0.88790  0.42380  0.39170  Biso   1.000  O
  O101     1.0000 0.88790  0.07620  0.89170  Biso   1.000  O
  O102     1.0000 0.61210  0.92380  0.39170  Biso   1.000  O
  O103     1.0000 0.38790  0.42380  0.10830  Biso   1.000  O
  O104     1.0000 0.11210  0.57620  0.60830  Biso   1.000  O
  O105     1.0000 0.15510  0.33090  0.02680  Biso   1.000  O
  O106     1.0000 0.34490  0.66910  0.52680  Biso   1.000  O
  O107     1.0000 0.65510  0.16910  0.97320  Biso   1.000  O
  O108     1.0000 0.84490  0.83090  0.47320  Biso   1.000  O
  O109     1.0000 0.84490  0.66910  0.97320  Biso   1.000  O
  O110     1.0000 0.65510  0.33090  0.47320  Biso   1.000  O
  O111     1.0000 0.34490  0.83090  0.02680  Biso   1.000  O
  O112     1.0000 0.15510  0.16910  0.52680  Biso   1.000  O
  O113     1.0000 0.83170  0.93630  0.15180  Biso   1.000  O
  O114     1.0000 0.66830  0.06370  0.65180  Biso   1.000  O
  O115     1.0000 0.33170  0.56370  0.84820  Biso   1.000  O
  O116     1.0000 0.16830  0.43630  0.34820  Biso   1.000  O
  O117     1.0000 0.16830  0.06370  0.84820  Biso   1.000  O
  O118     1.0000 0.33170  0.93630  0.34820  Biso   1.000  O
  O119     1.0000 0.66830  0.43630  0.15180  Biso   1.000  O
  O120     1.0000 0.83170  0.56370  0.65180  Biso   1.000  O
  O121     1.0000 0.98240  0.01200  0.06610  Biso   1.000  O
  O122     1.0000 0.51760  0.98800  0.56610  Biso   1.000  O
  O123     1.0000 0.48240  0.48800  0.93390  Biso   1.000  O
  O124     1.0000 0.01760  0.51200  0.43390  Biso   1.000  O
  O125     1.0000 0.01760  0.98800  0.93390  Biso   1.000  O
  O126     1.0000 0.48240  0.01200  0.43390  Biso   1.000  O
  O127     1.0000 0.51760  0.51200  0.06610  Biso   1.000  O
  O128     1.0000 0.98240  0.48800  0.56610  Biso   1.000  O
  O129     1.0000 0.16610  0.10900  0.04180  Biso   1.000  O
  O130     1.0000 0.33390  0.89100  0.54180  Biso   1.000  O
  O131     1.0000 0.66610  0.39100  0.95820  Biso   1.000  O
  O132     1.0000 0.83390  0.60900  0.45820  Biso   1.000  O
  O133     1.0000 0.83390  0.89100  0.95820  Biso   1.000  O
  O134     1.0000 0.66610  0.10900  0.45820  Biso   1.000  O
  O135     1.0000 0.33390  0.60900  0.04180  Biso   1.000  O
  O136     1.0000 0.16610  0.39100  0.54180  Biso   1.000  O
  O137     1.0000 0.86760  0.91600  0.95360  Biso   1.000  O
  O138     1.0000 0.63240  0.08400  0.45360  Biso   1.000  O
  O139     1.0000 0.36760  0.58400  0.04640  Biso   1.000  O
  O140     1.0000 0.13240  0.41600  0.54640  Biso   1.000  O
  O141     1.0000 0.13240  0.08400  0.04640  Biso   1.000  O
  O142     1.0000 0.36760  0.91600  0.54640  Biso   1.000  O
  O143     1.0000 0.63240  0.41600  0.95360  Biso   1.000  O
  O144     1.0000 0.86760  0.58400  0.45360  Biso   1.000  O
  O145     1.0000 0.85960  0.05250  0.04130  Biso   1.000  O
  O146     1.0000 0.64040  0.94750  0.54130  Biso   1.000  O
  O147     1.0000 0.35960  0.44750  0.95870  Biso   1.000  O
  O148     1.0000 0.14040  0.55250  0.45870  Biso   1.000  O
  O149     1.0000 0.14040  0.94750  0.95870  Biso   1.000  O
  O150     1.0000 0.35960  0.05250  0.45870  Biso   1.000  O
  O151     1.0000 0.64040  0.55250  0.04130  Biso   1.000  O
  O152     1.0000 0.85960  0.44750  0.54130  Biso   1.000  O
  O153     1.0000 0.82660  0.03090  0.04780  Biso   1.000  O
  O154     1.0000 0.67340  0.96910  0.54780  Biso   1.000  O
  O155     1.0000 0.32660  0.46910  0.95220  Biso   1.000  O
  O156     1.0000 0.17340  0.53090  0.45220  Biso   1.000  O
  O157     1.0000 0.17340  0.96910  0.95220  Biso   1.000  O
  O158     1.0000 0.32660  0.03090  0.45220  Biso   1.000  O
  O159     1.0000 0.67340  0.53090  0.04780  Biso   1.000  O
  O160     1.0000 0.82660  0.46910  0.54780  Biso   1.000  O
  O161     1.0000 0.02900  0.77800  0.08840  Biso   1.000  O
  O162     1.0000 0.47100  0.22200  0.58840  Biso   1.000  O
  O163     1.0000 0.52900  0.72200  0.91160  Biso   1.000  O
  O164     1.0000 0.97100  0.27800  0.41160  Biso   1.000  O
  O165     1.0000 0.97100  0.22200  0.91160  Biso   1.000  O
  O166     1.0000 0.52900  0.77800  0.41160  Biso   1.000  O
  O167     1.0000 0.47100  0.27800  0.08840  Biso   1.000  O
  O168     1.0000 0.02900  0.72200  0.58840  Biso   1.000  O
  O169     1.0000 0.04090  0.73600  0.10740  Biso   1.000  O
  O170     1.0000 0.45910  0.26400  0.60740  Biso   1.000  O
  O171     1.0000 0.54090  0.76400  0.89260  Biso   1.000  O
  O172     1.0000 0.95910  0.23600  0.39260  Biso   1.000  O
  O173     1.0000 0.95910  0.26400  0.89260  Biso   1.000  O
  O174     1.0000 0.54090  0.73600  0.39260  Biso   1.000  O
  O175     1.0000 0.45910  0.23600  0.10740  Biso   1.000  O
  O176     1.0000 0.04090  0.76400  0.60740  Biso   1.000  O
  O177     1.0000 0.11850  0.78300  0.02070  Biso   1.000  O
  O178     1.0000 0.38150  0.21700  0.52070  Biso   1.000  O
  O179     1.0000 0.61850  0.71700  0.97930  Biso   1.000  O
  O180     1.0000 0.88150  0.28300  0.47930  Biso   1.000  O
  O181     1.0000 0.88150  0.21700  0.97930  Biso   1.000  O
  O182     1.0000 0.61850  0.78300  0.47930  Biso   1.000  O
  O183     1.0000 0.38150  0.28300  0.02070  Biso   1.000  O
  O184     1.0000 0.11850  0.71700  0.52070  Biso   1.000  O
  O185     1.0000 0.22100  0.90150  0.04870  Biso   1.000  O
  O186     1.0000 0.27900  0.09850  0.54870  Biso   1.000  O
  O187     1.0000 0.72100  0.59850  0.95130  Biso   1.000  O
  O188     1.0000 0.77900  0.40150  0.45130  Biso   1.000  O
  O189     1.0000 0.77900  0.09850  0.95130  Biso   1.000  O
  O190     1.0000 0.72100  0.90150  0.45130  Biso   1.000  O
  O191     1.0000 0.27900  0.40150  0.04870  Biso   1.000  O
  O192     1.0000 0.22100  0.59850  0.54870  Biso   1.000  O
  O193     1.0000 0.04140  0.90810  0.03490  Biso   1.000  O
  O194     1.0000 0.45860  0.09190  0.53490  Biso   1.000  O
  O195     1.0000 0.54140  0.59190  0.96510  Biso   1.000  O
  O196     1.0000 0.95860  0.40810  0.46510  Biso   1.000  O
  O197     1.0000 0.95860  0.09190  0.96510  Biso   1.000  O
  O198     1.0000 0.54140  0.90810  0.46510  Biso   1.000  O
  O199     1.0000 0.45860  0.40810  0.03490  Biso   1.000  O
  O200     1.0000 0.04140  0.59190  0.53490  Biso   1.000  O
  O201     1.0000 0.92750  0.95910  0.01020  Biso   1.000  O
  O202     1.0000 0.57250  0.04090  0.51020  Biso   1.000  O
  O203     1.0000 0.42750  0.54090  0.98980  Biso   1.000  O
  O204     1.0000 0.07250  0.45910  0.48980  Biso   1.000  O
  O205     1.0000 0.07250  0.04090  0.98980  Biso   1.000  O
  O206     1.0000 0.42750  0.95910  0.48980  Biso   1.000  O
  O207     1.0000 0.57250  0.45910  0.01020  Biso   1.000  O
  O208     1.0000 0.92750  0.54090  0.51020  Biso   1.000  O
  Si1      1.0000 0.00000  0.00000  0.00000  Biso   1.000  Si
  Si2      1.0000 0.50000  0.00000  0.50000  Biso   1.000  Si
  Si3      1.0000 0.50000  0.50000  0.00000  Biso   1.000  Si
  Si4      1.0000 0.00000  0.50000  0.50000  Biso   1.000  Si
  W1       1.0000 0.98630  0.19009  0.11747  Biso   1.000  W
  W2       1.0000 0.51370  0.80991  0.61747  Biso   1.000  W
  W3       1.0000 0.48630  0.30991  0.88253  Biso   1.000  W
  W4       1.0000 0.01370  0.69009  0.38253  Biso   1.000  W
  W5       1.0000 0.01370  0.80991  0.88253  Biso   1.000  W
  W6       1.0000 0.48630  0.19009  0.38253  Biso   1.000  W
  W7       1.0000 0.51370  0.69009  0.11747  Biso   1.000  W
  W8       1.0000 0.98630  0.30991  0.61747  Biso   1.000  W
  W9       1.0000 0.04180  0.70548  0.02226  Biso   1.000  W
  W10      1.0000 0.45820  0.29452  0.52226  Biso   1.000  W
  W11      1.0000 0.54180  0.79452  0.97774  Biso   1.000  W
  W12      1.0000 0.95820  0.20548  0.47774  Biso   1.000  W
  W13      1.0000 0.95820  0.29452  0.97774  Biso   1.000  W
  W14      1.0000 0.54180  0.70548  0.47774  Biso   1.000  W
  W15      1.0000 0.45820  0.20548  0.02226  Biso   1.000  W
  W16      1.0000 0.04180  0.79452  0.52226  Biso   1.000  W
  W17      1.0000 0.03708  0.90169  0.13891  Biso   1.000  W
  W18      1.0000 0.46292  0.09831  0.63891  Biso   1.000  W
  W19      1.0000 0.53708  0.59831  0.86109  Biso   1.000  W
  W20      1.0000 0.96292  0.40169  0.36109  Biso   1.000  W
  W21      1.0000 0.96292  0.09831  0.86109  Biso   1.000  W
  W22      1.0000 0.53708  0.90169  0.36109  Biso   1.000  W
  W23      1.0000 0.46292  0.40169  0.13891  Biso   1.000  W
  W24      1.0000 0.03708  0.59831  0.63891  Biso   1.000  W
  W25      1.0000 0.10535  0.22394  0.01995  Biso   1.000  W
  W26      1.0000 0.39465  0.77606  0.51995  Biso   1.000  W
  W27      1.0000 0.60535  0.27606  0.98005  Biso   1.000  W
  W28      1.0000 0.89465  0.72394  0.48005  Biso   1.000  W
  W29      1.0000 0.89465  0.77606  0.98005  Biso   1.000  W
  W30      1.0000 0.60535  0.22394  0.48005  Biso   1.000  W
  W31      1.0000 0.39465  0.72394  0.01995  Biso   1.000  W
  W32      1.0000 0.10535  0.27606  0.51995  Biso   1.000  W
  W33      1.0000 0.88555  0.95460  0.10263  Biso   1.000  W
  W34      1.0000 0.61445  0.04540  0.60263  Biso   1.000  W
  W35      1.0000 0.38555  0.54540  0.89737  Biso   1.000  W
  W36      1.0000 0.11445  0.45460  0.39737  Biso   1.000  W
  W37      1.0000 0.11445  0.04540  0.89737  Biso   1.000  W
  W38      1.0000 0.38555  0.95460  0.39737  Biso   1.000  W
  W39      1.0000 0.61445  0.45460  0.10263  Biso   1.000  W
  W40      1.0000 0.88555  0.54540  0.60263  Biso   1.000  W
  W41      1.0000 0.14920  0.92977  0.03335  Biso   1.000  W
  W42      1.0000 0.35080  0.07023  0.53335  Biso   1.000  W
  W43      1.0000 0.64920  0.57023  0.96665  Biso   1.000  W
  W44      1.0000 0.85080  0.42977  0.46665  Biso   1.000  W
  W45      1.0000 0.85080  0.07023  0.96665  Biso   1.000  W
  W46      1.0000 0.64920  0.92977  0.46665  Biso   1.000  W
  W47      1.0000 0.35080  0.42977  0.03335  Biso   1.000  W
  W48      1.0000 0.14920  0.57023  0.53335  Biso   1.000  W
  N1       1.0000 0.15990  0.85980  0.34450  Biso   1.000  N
  N2       1.0000 0.34010  0.14020  0.84450  Biso   1.000  N
  N3       1.0000 0.65990  0.64020  0.65550  Biso   1.000  N
  N4       1.0000 0.84010  0.35980  0.15550  Biso   1.000  N
  N5       1.0000 0.84010  0.14020  0.65550  Biso   1.000  N
  N6       1.0000 0.65990  0.85980  0.15550  Biso   1.000  N
  N7       1.0000 0.34010  0.35980  0.34450  Biso   1.000  N
  N8       1.0000 0.15990  0.64020  0.84450  Biso   1.000  N
  N9       1.0000 0.18400  0.94440  0.45350  Biso   1.000  N
  N10      1.0000 0.31600  0.05560  0.95350  Biso   1.000  N
  N11      1.0000 0.68400  0.55560  0.54650  Biso   1.000  N
  N12      1.0000 0.81600  0.44440  0.04650  Biso   1.000  N
  N13      1.0000 0.81600  0.05560  0.54650  Biso   1.000  N
  N14      1.0000 0.68400  0.94440  0.04650  Biso   1.000  N
  N15      1.0000 0.31600  0.44440  0.45350  Biso   1.000  N
  N16      1.0000 0.18400  0.55560  0.95350  Biso   1.000  N
  N17      1.0000 0.15960  0.81090  0.70750  Biso   1.000  N
  N18      1.0000 0.34040  0.18910  0.20750  Biso   1.000  N
  N19      1.0000 0.65960  0.68910  0.29250  Biso   1.000  N
  N20      1.0000 0.84040  0.31090  0.79250  Biso   1.000  N
  N21      1.0000 0.84040  0.18910  0.29250  Biso   1.000  N
  N22      1.0000 0.65960  0.81090  0.79250  Biso   1.000  N
  N23      1.0000 0.34040  0.31090  0.70750  Biso   1.000  N
  N24      1.0000 0.15960  0.68910  0.20750  Biso   1.000  N
  N25      1.0000 0.18480  0.93250  0.60850  Biso   1.000  N
  N26      1.0000 0.31520  0.06750  0.10850  Biso   1.000  N
  N27      1.0000 0.68480  0.56750  0.39150  Biso   1.000  N
  N28      1.0000 0.81520  0.43250  0.89150  Biso   1.000  N
  N29      1.0000 0.81520  0.06750  0.39150  Biso   1.000  N
  N30      1.0000 0.68480  0.93250  0.89150  Biso   1.000  N
  N31      1.0000 0.31520  0.43250  0.60850  Biso   1.000  N
  N32      1.0000 0.18480  0.56750  0.10850  Biso   1.000  N
