data_image0
_cell_length_a       24.8
_cell_length_b       11.392
_cell_length_c       25.025
_cell_angle_alpha    90
_cell_angle_beta     116.474
_cell_angle_gamma    90

_symmetry_space_group_name_H-M    "P 1"
_symmetry_int_tables_number       1

loop_
  _symmetry_equiv_pos_as_xyz
  'x, y, z'

loop_
  _atom_site_label
  _atom_site_occupancy
  _atom_site_fract_x
  _atom_site_fract_y
  _atom_site_fract_z
  _atom_site_thermal_displace_type
  _atom_site_B_iso_or_equiv
  _atom_site_type_symbol
  Cu1      1.0000 0.54885  0.23570  0.10716  Biso   1.000  Cu
  Cu2      1.0000 0.45115  0.23570  0.39284  Biso   1.000  Cu
  Cu3      1.0000 0.04885  0.73570  0.10716  Biso   1.000  Cu
  Cu4      1.0000 0.95115  0.73570  0.39284  Biso   1.000  Cu
  Cu5      1.0000 0.45115  0.76430  0.89284  Biso   1.000  Cu
  Cu6      1.0000 0.54885  0.76430  0.60716  Biso   1.000  Cu
  Cu7      1.0000 0.95115  0.26430  0.89284  Biso   1.000  Cu
  Cu8      1.0000 0.04885  0.26430  0.60716  Biso   1.000  Cu
  Cu9      1.0000 0.29031  0.30532  0.86736  Biso   1.000  Cu
  Cu10     1.0000 0.70969  0.30532  0.63264  Biso   1.000  Cu
  Cu11     1.0000 0.79031  0.80532  0.86736  Biso   1.000  Cu
  Cu12     1.0000 0.20969  0.80532  0.63264  Biso   1.000  Cu
  Cu13     1.0000 0.70969  0.69468  0.13264  Biso   1.000  Cu
  Cu14     1.0000 0.29031  0.69468  0.36736  Biso   1.000  Cu
  Cu15     1.0000 0.20969  0.19468  0.13264  Biso   1.000  Cu
  Cu16     1.0000 0.79031  0.19468  0.36736  Biso   1.000  Cu
  W1       1.0000 0.11543  0.61872  0.98507  Biso   1.000  W
  W2       1.0000 0.88457  0.61872  0.51493  Biso   1.000  W
  W3       1.0000 0.61543  0.11872  0.98507  Biso   1.000  W
  W4       1.0000 0.38457  0.11872  0.51493  Biso   1.000  W
  W5       1.0000 0.88457  0.38128  0.01493  Biso   1.000  W
  W6       1.0000 0.11543  0.38128  0.48507  Biso   1.000  W
  W7       1.0000 0.38457  0.88128  0.01493  Biso   1.000  W
  W8       1.0000 0.61543  0.88128  0.48507  Biso   1.000  W
  W9       1.0000 0.17213  0.86937  0.07535  Biso   1.000  W
  W10      1.0000 0.82787  0.86937  0.42465  Biso   1.000  W
  W11      1.0000 0.67213  0.36937  0.07535  Biso   1.000  W
  W12      1.0000 0.32787  0.36937  0.42465  Biso   1.000  W
  W13      1.0000 0.82787  0.13063  0.92465  Biso   1.000  W
  W14      1.0000 0.17213  0.13063  0.57535  Biso   1.000  W
  W15      1.0000 0.32787  0.63063  0.92465  Biso   1.000  W
  W16      1.0000 0.67213  0.63063  0.57535  Biso   1.000  W
  W17      1.0000 0.31156  0.99035  0.09764  Biso   1.000  W
  W18      1.0000 0.68844  0.99035  0.40236  Biso   1.000  W
  W19      1.0000 0.81156  0.49035  0.09764  Biso   1.000  W
  W20      1.0000 0.18844  0.49035  0.40236  Biso   1.000  W
  W21      1.0000 0.68844  0.00965  0.90236  Biso   1.000  W
  W22      1.0000 0.31156  0.00965  0.59764  Biso   1.000  W
  W23      1.0000 0.18844  0.50965  0.90236  Biso   1.000  W
  W24      1.0000 0.81156  0.50965  0.59764  Biso   1.000  W
  W25      1.0000 0.25311  0.46858  0.05840  Biso   1.000  W
  W26      1.0000 0.74689  0.46858  0.44160  Biso   1.000  W
  W27      1.0000 0.75311  0.96858  0.05840  Biso   1.000  W
  W28      1.0000 0.24689  0.96858  0.44160  Biso   1.000  W
  W29      1.0000 0.74689  0.53142  0.94159  Biso   1.000  W
  W30      1.0000 0.25311  0.53142  0.55841  Biso   1.000  W
  W31      1.0000 0.24689  0.03142  0.94159  Biso   1.000  W
  W32      1.0000 0.75311  0.03142  0.55841  Biso   1.000  W
  W33      1.0000 0.11131  0.89485  0.91910  Biso   1.000  W
  W34      1.0000 0.88869  0.89485  0.58090  Biso   1.000  W
  W35      1.0000 0.61131  0.39485  0.91910  Biso   1.000  W
  W36      1.0000 0.38869  0.39485  0.58090  Biso   1.000  W
  W37      1.0000 0.88869  0.10515  0.08090  Biso   1.000  W
  W38      1.0000 0.11131  0.10515  0.41910  Biso   1.000  W
  W39      1.0000 0.38869  0.60515  0.08090  Biso   1.000  W
  W40      1.0000 0.61131  0.60515  0.41910  Biso   1.000  W
  W41      1.0000 0.30696  0.71084  0.15556  Biso   1.000  W
  W42      1.0000 0.69304  0.71084  0.34444  Biso   1.000  W
  W43      1.0000 0.80696  0.21084  0.15556  Biso   1.000  W
  W44      1.0000 0.19304  0.21084  0.34444  Biso   1.000  W
  W45      1.0000 0.69304  0.28916  0.84444  Biso   1.000  W
  W46      1.0000 0.30696  0.28916  0.65556  Biso   1.000  W
  W47      1.0000 0.19304  0.78916  0.84444  Biso   1.000  W
  W48      1.0000 0.80696  0.78916  0.65556  Biso   1.000  W
  C1       1.0000 0.42300  0.27070  0.04270  Biso   1.000  C
  C2       1.0000 0.57700  0.27070  0.45730  Biso   1.000  C
  C3       1.0000 0.92300  0.77070  0.04270  Biso   1.000  C
  C4       1.0000 0.07700  0.77070  0.45730  Biso   1.000  C
  C5       1.0000 0.57700  0.72930  0.95730  Biso   1.000  C
  C6       1.0000 0.42300  0.72930  0.54270  Biso   1.000  C
  C7       1.0000 0.07700  0.22930  0.95730  Biso   1.000  C
  C8       1.0000 0.92300  0.22930  0.54270  Biso   1.000  C
  C9       1.0000 0.36850  0.28770  0.99030  Biso   1.000  C
  C10      1.0000 0.63150  0.28770  0.50970  Biso   1.000  C
  C11      1.0000 0.86850  0.78770  0.99030  Biso   1.000  C
  C12      1.0000 0.13150  0.78770  0.50970  Biso   1.000  C
  C13      1.0000 0.63150  0.71230  0.00970  Biso   1.000  C
  C14      1.0000 0.36850  0.71230  0.49030  Biso   1.000  C
  C15      1.0000 0.13150  0.21230  0.00970  Biso   1.000  C
  C16      1.0000 0.86850  0.21230  0.49030  Biso   1.000  C
  H1       1.0000 0.33240  0.29070  0.99310  Biso   1.000  H
  H2       1.0000 0.66760  0.29070  0.50690  Biso   1.000  H
  H3       1.0000 0.83240  0.79070  0.99310  Biso   1.000  H
  H4       1.0000 0.16760  0.79070  0.50690  Biso   1.000  H
  H5       1.0000 0.66760  0.70930  0.00690  Biso   1.000  H
  H6       1.0000 0.33240  0.70930  0.49310  Biso   1.000  H
  H7       1.0000 0.16760  0.20930  0.00690  Biso   1.000  H
  H8       1.0000 0.83240  0.20930  0.49310  Biso   1.000  H
  C17      1.0000 0.41990  0.30120  0.93450  Biso   1.000  C
  C18      1.0000 0.58010  0.30120  0.56550  Biso   1.000  C
  C19      1.0000 0.91990  0.80120  0.93450  Biso   1.000  C
  C20      1.0000 0.08010  0.80120  0.56550  Biso   1.000  C
  C21      1.0000 0.58010  0.69880  0.06550  Biso   1.000  C
  C22      1.0000 0.41990  0.69880  0.43450  Biso   1.000  C
  C23      1.0000 0.08010  0.19880  0.06550  Biso   1.000  C
  C24      1.0000 0.91990  0.19880  0.43450  Biso   1.000  C
  C25      1.0000 0.47390  0.29070  0.98600  Biso   1.000  C
  C26      1.0000 0.52610  0.29070  0.51400  Biso   1.000  C
  C27      1.0000 0.97390  0.79070  0.98600  Biso   1.000  C
  C28      1.0000 0.02610  0.79070  0.51400  Biso   1.000  C
  C29      1.0000 0.52610  0.70930  0.01400  Biso   1.000  C
  C30      1.0000 0.47390  0.70930  0.48600  Biso   1.000  C
  C31      1.0000 0.02610  0.20930  0.01400  Biso   1.000  C
  C32      1.0000 0.97390  0.20930  0.48600  Biso   1.000  C
  H9       1.0000 0.51000  0.29420  0.98320  Biso   1.000  H
  H10      1.0000 0.49000  0.29420  0.51680  Biso   1.000  H
  H11      1.0000 0.01000  0.79420  0.98320  Biso   1.000  H
  H12      1.0000 0.99000  0.79420  0.51680  Biso   1.000  H
  H13      1.0000 0.49000  0.70580  0.01680  Biso   1.000  H
  H14      1.0000 0.51000  0.70580  0.48320  Biso   1.000  H
  H15      1.0000 0.99000  0.20580  0.01680  Biso   1.000  H
  H16      1.0000 0.01000  0.20580  0.48320  Biso   1.000  H
  C33      1.0000 0.68290  0.29060  0.27990  Biso   1.000  C
  C34      1.0000 0.31710  0.29060  0.22010  Biso   1.000  C
  C35      1.0000 0.18290  0.79060  0.27990  Biso   1.000  C
  C36      1.0000 0.81710  0.79060  0.22010  Biso   1.000  C
  C37      1.0000 0.31710  0.70940  0.72010  Biso   1.000  C
  C38      1.0000 0.68290  0.70940  0.77990  Biso   1.000  C
  C39      1.0000 0.81710  0.20940  0.72010  Biso   1.000  C
  C40      1.0000 0.18290  0.20940  0.77990  Biso   1.000  C
  H17      1.0000 0.69100  0.34480  0.31040  Biso   1.000  H
  H18      1.0000 0.30900  0.34480  0.18960  Biso   1.000  H
  H19      1.0000 0.19100  0.84480  0.31040  Biso   1.000  H
  H20      1.0000 0.80900  0.84480  0.18960  Biso   1.000  H
  H21      1.0000 0.30900  0.65520  0.68960  Biso   1.000  H
  H22      1.0000 0.69100  0.65520  0.81040  Biso   1.000  H
  H23      1.0000 0.80900  0.15520  0.68960  Biso   1.000  H
  H24      1.0000 0.19100  0.15520  0.81040  Biso   1.000  H
  C41      1.0000 0.63090  0.30680  0.22720  Biso   1.000  C
  C42      1.0000 0.36910  0.30680  0.27280  Biso   1.000  C
  C43      1.0000 0.13090  0.80680  0.22720  Biso   1.000  C
  C44      1.0000 0.86910  0.80680  0.27280  Biso   1.000  C
  C45      1.0000 0.36910  0.69320  0.77280  Biso   1.000  C
  C46      1.0000 0.63090  0.69320  0.72720  Biso   1.000  C
  C47      1.0000 0.86910  0.19320  0.77280  Biso   1.000  C
  C48      1.0000 0.13090  0.19320  0.72720  Biso   1.000  C
  C49      1.0000 0.65840  0.14100  0.19260  Biso   1.000  C
  C50      1.0000 0.34160  0.14100  0.30740  Biso   1.000  C
  C51      1.0000 0.15840  0.64100  0.19260  Biso   1.000  C
  C52      1.0000 0.84160  0.64100  0.30740  Biso   1.000  C
  C53      1.0000 0.34160  0.85900  0.80740  Biso   1.000  C
  C54      1.0000 0.65840  0.85900  0.69260  Biso   1.000  C
  C55      1.0000 0.84160  0.35900  0.80740  Biso   1.000  C
  C56      1.0000 0.15840  0.35900  0.69260  Biso   1.000  C
  H25      1.0000 0.65130  0.08840  0.16180  Biso   1.000  H
  H26      1.0000 0.34870  0.08840  0.33820  Biso   1.000  H
  H27      1.0000 0.15130  0.58840  0.16180  Biso   1.000  H
  H28      1.0000 0.84870  0.58840  0.33820  Biso   1.000  H
  H29      1.0000 0.34870  0.91160  0.83820  Biso   1.000  H
  H30      1.0000 0.65130  0.91160  0.66180  Biso   1.000  H
  H31      1.0000 0.84870  0.41160  0.83820  Biso   1.000  H
  H32      1.0000 0.15130  0.41160  0.66180  Biso   1.000  H
  C57      1.0000 0.70980  0.12590  0.24700  Biso   1.000  C
  C58      1.0000 0.29020  0.12590  0.25300  Biso   1.000  C
  C59      1.0000 0.20980  0.62590  0.24700  Biso   1.000  C
  C60      1.0000 0.79020  0.62590  0.25300  Biso   1.000  C
  C61      1.0000 0.29020  0.87410  0.75300  Biso   1.000  C
  C62      1.0000 0.70980  0.87410  0.74700  Biso   1.000  C
  C63      1.0000 0.79020  0.37410  0.75300  Biso   1.000  C
  C64      1.0000 0.20980  0.37410  0.74700  Biso   1.000  C
  C65      1.0000 0.42200  0.25340  0.10120  Biso   1.000  C
  C66      1.0000 0.57800  0.25340  0.39880  Biso   1.000  C
  C67      1.0000 0.92200  0.75340  0.10120  Biso   1.000  C
  C68      1.0000 0.07800  0.75340  0.39880  Biso   1.000  C
  C69      1.0000 0.57800  0.74660  0.89880  Biso   1.000  C
  C70      1.0000 0.42200  0.74660  0.60120  Biso   1.000  C
  C71      1.0000 0.07800  0.24660  0.89880  Biso   1.000  C
  C72      1.0000 0.92200  0.24660  0.60120  Biso   1.000  C
  H33      1.0000 0.44250  0.31750  0.12730  Biso   1.000  H
  H34      1.0000 0.55750  0.31750  0.37270  Biso   1.000  H
  H35      1.0000 0.94250  0.81750  0.12730  Biso   1.000  H
  H36      1.0000 0.05750  0.81750  0.37270  Biso   1.000  H
  H37      1.0000 0.55750  0.68250  0.87270  Biso   1.000  H
  H38      1.0000 0.44250  0.68250  0.62730  Biso   1.000  H
  H39      1.0000 0.05750  0.18250  0.87270  Biso   1.000  H
  H40      1.0000 0.94250  0.18250  0.62730  Biso   1.000  H
  H41      1.0000 0.38100  0.25050  0.09530  Biso   1.000  H
  H42      1.0000 0.61900  0.25050  0.40470  Biso   1.000  H
  H43      1.0000 0.88100  0.75050  0.09530  Biso   1.000  H
  H44      1.0000 0.11900  0.75050  0.40470  Biso   1.000  H
  H45      1.0000 0.61900  0.74950  0.90470  Biso   1.000  H
  H46      1.0000 0.38100  0.74950  0.59530  Biso   1.000  H
  H47      1.0000 0.11900  0.24950  0.90470  Biso   1.000  H
  H48      1.0000 0.88100  0.24950  0.59530  Biso   1.000  H
  H49      1.0000 0.44190  0.18110  0.11870  Biso   1.000  H
  H50      1.0000 0.55810  0.18110  0.38130  Biso   1.000  H
  H51      1.0000 0.94190  0.68110  0.11870  Biso   1.000  H
  H52      1.0000 0.05810  0.68110  0.38130  Biso   1.000  H
  H53      1.0000 0.55810  0.81890  0.88130  Biso   1.000  H
  H54      1.0000 0.44190  0.81890  0.61870  Biso   1.000  H
  H55      1.0000 0.05810  0.31890  0.88130  Biso   1.000  H
  H56      1.0000 0.94190  0.31890  0.61870  Biso   1.000  H
  C73      1.0000 0.41820  0.30940  0.87470  Biso   1.000  C
  C74      1.0000 0.58180  0.30940  0.62530  Biso   1.000  C
  C75      1.0000 0.91820  0.80940  0.87470  Biso   1.000  C
  C76      1.0000 0.08180  0.80940  0.62530  Biso   1.000  C
  C77      1.0000 0.58180  0.69060  0.12530  Biso   1.000  C
  C78      1.0000 0.41820  0.69060  0.37470  Biso   1.000  C
  C79      1.0000 0.08180  0.19060  0.12530  Biso   1.000  C
  C80      1.0000 0.91820  0.19060  0.37470  Biso   1.000  C
  H57      1.0000 0.37700  0.31350  0.84470  Biso   1.000  H
  H58      1.0000 0.62300  0.31350  0.65530  Biso   1.000  H
  H59      1.0000 0.87700  0.81350  0.84470  Biso   1.000  H
  H60      1.0000 0.12300  0.81350  0.65530  Biso   1.000  H
  H61      1.0000 0.62300  0.68650  0.15530  Biso   1.000  H
  H62      1.0000 0.37700  0.68650  0.34470  Biso   1.000  H
  H63      1.0000 0.12300  0.18650  0.15530  Biso   1.000  H
  H64      1.0000 0.87700  0.18650  0.34470  Biso   1.000  H
  H65      1.0000 0.43920  0.37870  0.87260  Biso   1.000  H
  H66      1.0000 0.56080  0.37870  0.62740  Biso   1.000  H
  H67      1.0000 0.93920  0.87870  0.87260  Biso   1.000  H
  H68      1.0000 0.06080  0.87870  0.62740  Biso   1.000  H
  H69      1.0000 0.56080  0.62130  0.12740  Biso   1.000  H
  H70      1.0000 0.43920  0.62130  0.37260  Biso   1.000  H
  H71      1.0000 0.06080  0.12130  0.12740  Biso   1.000  H
  H72      1.0000 0.93920  0.12130  0.37260  Biso   1.000  H
  H73      1.0000 0.43710  0.24140  0.86780  Biso   1.000  H
  H74      1.0000 0.56290  0.24140  0.63220  Biso   1.000  H
  H75      1.0000 0.93710  0.74140  0.86780  Biso   1.000  H
  H76      1.0000 0.06290  0.74140  0.63220  Biso   1.000  H
  H77      1.0000 0.56290  0.75860  0.13220  Biso   1.000  H
  H78      1.0000 0.43710  0.75860  0.36780  Biso   1.000  H
  H79      1.0000 0.06290  0.25860  0.13220  Biso   1.000  H
  H80      1.0000 0.93710  0.25860  0.36780  Biso   1.000  H
  C81      1.0000 0.58740  0.40010  0.21860  Biso   1.000  C
  C82      1.0000 0.41260  0.40010  0.28140  Biso   1.000  C
  C83      1.0000 0.08740  0.90010  0.21860  Biso   1.000  C
  C84      1.0000 0.91260  0.90010  0.28140  Biso   1.000  C
  C85      1.0000 0.41260  0.59990  0.78140  Biso   1.000  C
  C86      1.0000 0.58740  0.59990  0.71860  Biso   1.000  C
  C87      1.0000 0.91260  0.09990  0.78140  Biso   1.000  C
  C88      1.0000 0.08740  0.09990  0.71860  Biso   1.000  C
  H81      1.0000 0.54920  0.36610  0.21090  Biso   1.000  H
  H82      1.0000 0.45080  0.36610  0.28910  Biso   1.000  H
  H83      1.0000 0.04920  0.86610  0.21090  Biso   1.000  H
  H84      1.0000 0.95080  0.86610  0.28910  Biso   1.000  H
  H85      1.0000 0.45080  0.63390  0.78910  Biso   1.000  H
  H86      1.0000 0.54920  0.63390  0.71090  Biso   1.000  H
  H87      1.0000 0.95080  0.13390  0.78910  Biso   1.000  H
  H88      1.0000 0.04920  0.13390  0.71090  Biso   1.000  H
  H89      1.0000 0.60150  0.44770  0.25390  Biso   1.000  H
  H90      1.0000 0.39850  0.44770  0.24610  Biso   1.000  H
  H91      1.0000 0.10150  0.94770  0.25390  Biso   1.000  H
  H92      1.0000 0.89850  0.94770  0.24610  Biso   1.000  H
  H93      1.0000 0.39850  0.55230  0.74610  Biso   1.000  H
  H94      1.0000 0.60150  0.55230  0.75390  Biso   1.000  H
  H95      1.0000 0.89850  0.05230  0.74610  Biso   1.000  H
  H96      1.0000 0.10150  0.05230  0.75390  Biso   1.000  H
  H97      1.0000 0.58300  0.44790  0.18520  Biso   1.000  H
  H98      1.0000 0.41700  0.44790  0.31480  Biso   1.000  H
  H99      1.0000 0.08300  0.94790  0.18520  Biso   1.000  H
  H100     1.0000 0.91700  0.94790  0.31480  Biso   1.000  H
  H101     1.0000 0.41700  0.55210  0.81480  Biso   1.000  H
  H102     1.0000 0.58300  0.55210  0.68520  Biso   1.000  H
  H103     1.0000 0.91700  0.05210  0.81480  Biso   1.000  H
  H104     1.0000 0.08300  0.05210  0.68520  Biso   1.000  H
  C89      1.0000 0.74840  0.02210  0.25590  Biso   1.000  C
  C90      1.0000 0.25160  0.02210  0.24410  Biso   1.000  C
  C91      1.0000 0.24840  0.52210  0.25590  Biso   1.000  C
  C92      1.0000 0.75160  0.52210  0.24410  Biso   1.000  C
  C93      1.0000 0.25160  0.97790  0.74410  Biso   1.000  C
  C94      1.0000 0.74840  0.97790  0.75590  Biso   1.000  C
  C95      1.0000 0.75160  0.47790  0.74410  Biso   1.000  C
  C96      1.0000 0.24840  0.47790  0.75590  Biso   1.000  C
  H105     1.0000 0.73660  0.96110  0.27500  Biso   1.000  H
  H106     1.0000 0.26340  0.96110  0.22500  Biso   1.000  H
  H107     1.0000 0.23660  0.46110  0.27500  Biso   1.000  H
  H108     1.0000 0.76340  0.46110  0.22500  Biso   1.000  H
  H109     1.0000 0.26340  0.03890  0.72500  Biso   1.000  H
  H110     1.0000 0.73660  0.03890  0.77500  Biso   1.000  H
  H111     1.0000 0.76340  0.53890  0.72500  Biso   1.000  H
  H112     1.0000 0.23660  0.53890  0.77500  Biso   1.000  H
  H113     1.0000 0.74420  0.99470  0.21800  Biso   1.000  H
  H114     1.0000 0.25580  0.99470  0.28200  Biso   1.000  H
  H115     1.0000 0.24420  0.49470  0.21800  Biso   1.000  H
  H116     1.0000 0.75580  0.49470  0.28200  Biso   1.000  H
  H117     1.0000 0.25580  0.00530  0.78200  Biso   1.000  H
  H118     1.0000 0.74420  0.00530  0.71800  Biso   1.000  H
  H119     1.0000 0.75580  0.50530  0.78200  Biso   1.000  H
  H120     1.0000 0.24420  0.50530  0.71800  Biso   1.000  H
  H121     1.0000 0.78970  0.04290  0.28070  Biso   1.000  H
  H122     1.0000 0.21030  0.04290  0.21930  Biso   1.000  H
  H123     1.0000 0.28970  0.54290  0.28070  Biso   1.000  H
  H124     1.0000 0.71030  0.54290  0.21930  Biso   1.000  H
  H125     1.0000 0.21030  0.95710  0.71930  Biso   1.000  H
  H126     1.0000 0.78970  0.95710  0.78070  Biso   1.000  H
  H127     1.0000 0.71030  0.45710  0.71930  Biso   1.000  H
  H128     1.0000 0.28970  0.45710  0.78070  Biso   1.000  H
  N1       1.0000 0.47500  0.27560  0.03910  Biso   1.000  N
  N2       1.0000 0.52500  0.27560  0.46090  Biso   1.000  N
  N3       1.0000 0.97500  0.77560  0.03910  Biso   1.000  N
  N4       1.0000 0.02500  0.77560  0.46090  Biso   1.000  N
  N5       1.0000 0.52500  0.72440  0.96090  Biso   1.000  N
  N6       1.0000 0.47500  0.72440  0.53910  Biso   1.000  N
  N7       1.0000 0.02500  0.22440  0.96090  Biso   1.000  N
  N8       1.0000 0.97500  0.22440  0.53910  Biso   1.000  N
  N9       1.0000 0.36760  0.29950  0.93670  Biso   1.000  N
  N10      1.0000 0.63240  0.29950  0.56330  Biso   1.000  N
  N11      1.0000 0.86760  0.79950  0.93670  Biso   1.000  N
  N12      1.0000 0.13240  0.79950  0.56330  Biso   1.000  N
  N13      1.0000 0.63240  0.70050  0.06330  Biso   1.000  N
  N14      1.0000 0.36760  0.70050  0.43670  Biso   1.000  N
  N15      1.0000 0.13240  0.20050  0.06330  Biso   1.000  N
  N16      1.0000 0.86760  0.20050  0.43670  Biso   1.000  N
  N17      1.0000 0.61880  0.22940  0.18330  Biso   1.000  N
  N18      1.0000 0.38120  0.22940  0.31670  Biso   1.000  N
  N19      1.0000 0.11880  0.72940  0.18330  Biso   1.000  N
  N20      1.0000 0.88120  0.72940  0.31670  Biso   1.000  N
  N21      1.0000 0.38120  0.77060  0.81670  Biso   1.000  N
  N22      1.0000 0.61880  0.77060  0.68330  Biso   1.000  N
  N23      1.0000 0.88120  0.27060  0.81670  Biso   1.000  N
  N24      1.0000 0.11880  0.27060  0.68330  Biso   1.000  N
  N25      1.0000 0.72160  0.20450  0.29030  Biso   1.000  N
  N26      1.0000 0.27840  0.20450  0.20970  Biso   1.000  N
  N27      1.0000 0.22160  0.70450  0.29030  Biso   1.000  N
  N28      1.0000 0.77840  0.70450  0.20970  Biso   1.000  N
  N29      1.0000 0.27840  0.79550  0.70970  Biso   1.000  N
  N30      1.0000 0.72160  0.79550  0.79030  Biso   1.000  N
  N31      1.0000 0.77840  0.29550  0.70970  Biso   1.000  N
  N32      1.0000 0.22160  0.29550  0.79030  Biso   1.000  N
  O1       1.0000 0.25590  0.81490  0.06100  Biso   1.000  O
  O2       1.0000 0.74410  0.81490  0.43900  Biso   1.000  O
  O3       1.0000 0.75590  0.31490  0.06100  Biso   1.000  O
  O4       1.0000 0.24410  0.31490  0.43900  Biso   1.000  O
  O5       1.0000 0.74410  0.18510  0.93900  Biso   1.000  O
  O6       1.0000 0.25590  0.18510  0.56100  Biso   1.000  O
  O7       1.0000 0.24410  0.68510  0.93900  Biso   1.000  O
  O8       1.0000 0.75590  0.68510  0.56100  Biso   1.000  O
  O9       1.0000 0.18730  0.76840  0.99770  Biso   1.000  O
  O10      1.0000 0.81270  0.76840  0.50230  Biso   1.000  O
  O11      1.0000 0.68730  0.26840  0.99770  Biso   1.000  O
  O12      1.0000 0.31270  0.26840  0.50230  Biso   1.000  O
  O13      1.0000 0.81270  0.23160  0.00230  Biso   1.000  O
  O14      1.0000 0.18730  0.23160  0.49770  Biso   1.000  O
  O15      1.0000 0.31270  0.73160  0.00230  Biso   1.000  O
  O16      1.0000 0.68730  0.73160  0.49770  Biso   1.000  O
  O17      1.0000 0.21180  0.63240  0.98900  Biso   1.000  O
  O18      1.0000 0.78820  0.63240  0.51100  Biso   1.000  O
  O19      1.0000 0.71180  0.13240  0.98900  Biso   1.000  O
  O20      1.0000 0.28820  0.13240  0.51100  Biso   1.000  O
  O21      1.0000 0.78820  0.36760  0.01100  Biso   1.000  O
  O22      1.0000 0.21180  0.36760  0.48900  Biso   1.000  O
  O23      1.0000 0.28820  0.86760  0.01100  Biso   1.000  O
  O24      1.0000 0.71180  0.86760  0.48900  Biso   1.000  O
  O25      1.0000 0.21150  0.84240  0.94560  Biso   1.000  O
  O26      1.0000 0.78850  0.84240  0.55440  Biso   1.000  O
  O27      1.0000 0.71150  0.34240  0.94560  Biso   1.000  O
  O28      1.0000 0.28850  0.34240  0.55440  Biso   1.000  O
  O29      1.0000 0.78850  0.15760  0.05440  Biso   1.000  O
  O30      1.0000 0.21150  0.15760  0.44560  Biso   1.000  O
  O31      1.0000 0.28850  0.65760  0.05440  Biso   1.000  O
  O32      1.0000 0.71150  0.65760  0.44560  Biso   1.000  O
  O33      1.0000 0.04680  0.96580  0.88220  Biso   1.000  O
  O34      1.0000 0.95320  0.96580  0.61780  Biso   1.000  O
  O35      1.0000 0.54680  0.46580  0.88220  Biso   1.000  O
  O36      1.0000 0.45320  0.46580  0.61780  Biso   1.000  O
  O37      1.0000 0.95320  0.03420  0.11780  Biso   1.000  O
  O38      1.0000 0.04680  0.03420  0.38220  Biso   1.000  O
  O39      1.0000 0.45320  0.53420  0.11780  Biso   1.000  O
  O40      1.0000 0.54680  0.53420  0.38220  Biso   1.000  O
  O41      1.0000 0.08440  0.74810  0.93120  Biso   1.000  O
  O42      1.0000 0.91560  0.74810  0.56880  Biso   1.000  O
  O43      1.0000 0.58440  0.24810  0.93120  Biso   1.000  O
  O44      1.0000 0.41560  0.24810  0.56880  Biso   1.000  O
  O45      1.0000 0.91560  0.25190  0.06880  Biso   1.000  O
  O46      1.0000 0.08440  0.25190  0.43120  Biso   1.000  O
  O47      1.0000 0.41560  0.75190  0.06880  Biso   1.000  O
  O48      1.0000 0.58440  0.75190  0.43120  Biso   1.000  O
  O49      1.0000 0.33320  0.48010  0.07220  Biso   1.000  O
  O50      1.0000 0.66680  0.48010  0.42780  Biso   1.000  O
  O51      1.0000 0.83320  0.98010  0.07220  Biso   1.000  O
  O52      1.0000 0.16680  0.98010  0.42780  Biso   1.000  O
  O53      1.0000 0.66680  0.51990  0.92780  Biso   1.000  O
  O54      1.0000 0.33320  0.51990  0.57220  Biso   1.000  O
  O55      1.0000 0.16680  0.01990  0.92780  Biso   1.000  O
  O56      1.0000 0.83320  0.01990  0.57220  Biso   1.000  O
  O57      1.0000 0.12880  0.72570  0.04670  Biso   1.000  O
  O58      1.0000 0.87120  0.72570  0.45330  Biso   1.000  O
  O59      1.0000 0.62880  0.22570  0.04670  Biso   1.000  O
  O60      1.0000 0.37120  0.22570  0.45330  Biso   1.000  O
  O61      1.0000 0.87120  0.27430  0.95330  Biso   1.000  O
  O62      1.0000 0.12880  0.27430  0.54670  Biso   1.000  O
  O63      1.0000 0.37120  0.77430  0.95330  Biso   1.000  O
  O64      1.0000 0.62880  0.77430  0.54670  Biso   1.000  O
  O65      1.0000 0.13490  0.92350  0.11120  Biso   1.000  O
  O66      1.0000 0.86510  0.92350  0.38880  Biso   1.000  O
  O67      1.0000 0.63490  0.42350  0.11120  Biso   1.000  O
  O68      1.0000 0.36510  0.42350  0.38880  Biso   1.000  O
  O69      1.0000 0.86510  0.07650  0.88880  Biso   1.000  O
  O70      1.0000 0.13490  0.07650  0.61120  Biso   1.000  O
  O71      1.0000 0.36510  0.57650  0.88880  Biso   1.000  O
  O72      1.0000 0.63490  0.57650  0.61120  Biso   1.000  O
  O73      1.0000 0.12840  0.93130  0.99930  Biso   1.000  O
  O74      1.0000 0.87160  0.93130  0.50070  Biso   1.000  O
  O75      1.0000 0.62840  0.43130  0.99930  Biso   1.000  O
  O76      1.0000 0.37160  0.43130  0.50070  Biso   1.000  O
  O77      1.0000 0.87160  0.06870  0.00070  Biso   1.000  O
  O78      1.0000 0.12840  0.06870  0.49930  Biso   1.000  O
  O79      1.0000 0.37160  0.56870  0.00070  Biso   1.000  O
  O80      1.0000 0.62840  0.56870  0.49930  Biso   1.000  O
  O81      1.0000 0.23210  0.98650  0.09350  Biso   1.000  O
  O82      1.0000 0.76790  0.98650  0.40650  Biso   1.000  O
  O83      1.0000 0.73210  0.48650  0.09350  Biso   1.000  O
  O84      1.0000 0.26790  0.48650  0.40650  Biso   1.000  O
  O85      1.0000 0.76790  0.01350  0.90650  Biso   1.000  O
  O86      1.0000 0.23210  0.01350  0.59350  Biso   1.000  O
  O87      1.0000 0.26790  0.51350  0.90650  Biso   1.000  O
  O88      1.0000 0.73210  0.51350  0.59350  Biso   1.000  O
  O89      1.0000 0.27160  0.06710  0.02170  Biso   1.000  O
  O90      1.0000 0.72840  0.06710  0.47830  Biso   1.000  O
  O91      1.0000 0.77160  0.56710  0.02170  Biso   1.000  O
  O92      1.0000 0.22840  0.56710  0.47830  Biso   1.000  O
  O93      1.0000 0.72840  0.93290  0.97830  Biso   1.000  O
  O94      1.0000 0.27160  0.93290  0.52170  Biso   1.000  O
  O95      1.0000 0.22840  0.43290  0.97830  Biso   1.000  O
  O96      1.0000 0.77160  0.43290  0.52170  Biso   1.000  O
  O97      1.0000 0.25220  0.33480  0.08630  Biso   1.000  O
  O98      1.0000 0.74780  0.33480  0.41370  Biso   1.000  O
  O99      1.0000 0.75220  0.83480  0.08630  Biso   1.000  O
  O100     1.0000 0.24780  0.83480  0.41370  Biso   1.000  O
  O101     1.0000 0.74780  0.66520  0.91370  Biso   1.000  O
  O102     1.0000 0.25220  0.66520  0.58630  Biso   1.000  O
  O103     1.0000 0.24780  0.16520  0.91370  Biso   1.000  O
  O104     1.0000 0.75220  0.16520  0.58630  Biso   1.000  O
  O105     1.0000 0.17260  0.51520  0.03860  Biso   1.000  O
  O106     1.0000 0.82740  0.51520  0.46140  Biso   1.000  O
  O107     1.0000 0.67260  0.01520  0.03860  Biso   1.000  O
  O108     1.0000 0.32740  0.01520  0.46140  Biso   1.000  O
  O109     1.0000 0.82740  0.48480  0.96140  Biso   1.000  O
  O110     1.0000 0.17260  0.48480  0.53860  Biso   1.000  O
  O111     1.0000 0.32740  0.98480  0.96140  Biso   1.000  O
  O112     1.0000 0.67260  0.98480  0.53860  Biso   1.000  O
  O113     1.0000 0.05130  0.55650  0.97780  Biso   1.000  O
  O114     1.0000 0.94870  0.55650  0.52220  Biso   1.000  O
  O115     1.0000 0.55130  0.05650  0.97780  Biso   1.000  O
  O116     1.0000 0.44870  0.05650  0.52220  Biso   1.000  O
  O117     1.0000 0.94870  0.44350  0.02220  Biso   1.000  O
  O118     1.0000 0.05130  0.44350  0.47780  Biso   1.000  O
  O119     1.0000 0.44870  0.94350  0.02220  Biso   1.000  O
  O120     1.0000 0.55130  0.94350  0.47780  Biso   1.000  O
  O121     1.0000 0.12600  0.54460  0.92210  Biso   1.000  O
  O122     1.0000 0.87400  0.54460  0.57790  Biso   1.000  O
  O123     1.0000 0.62600  0.04460  0.92210  Biso   1.000  O
  O124     1.0000 0.37400  0.04460  0.57790  Biso   1.000  O
  O125     1.0000 0.87400  0.45540  0.07790  Biso   1.000  O
  O126     1.0000 0.12600  0.45540  0.42210  Biso   1.000  O
  O127     1.0000 0.37400  0.95540  0.07790  Biso   1.000  O
  O128     1.0000 0.62600  0.95540  0.42210  Biso   1.000  O
  O129     1.0000 0.33990  0.10460  0.14330  Biso   1.000  O
  O130     1.0000 0.66010  0.10460  0.35670  Biso   1.000  O
  O131     1.0000 0.83990  0.60460  0.14330  Biso   1.000  O
  O132     1.0000 0.16010  0.60460  0.35670  Biso   1.000  O
  O133     1.0000 0.66010  0.89540  0.85670  Biso   1.000  O
  O134     1.0000 0.33990  0.89540  0.64330  Biso   1.000  O
  O135     1.0000 0.16010  0.39540  0.85670  Biso   1.000  O
  O136     1.0000 0.83990  0.39540  0.64330  Biso   1.000  O
  O137     1.0000 0.33450  0.69580  0.22940  Biso   1.000  O
  O138     1.0000 0.66550  0.69580  0.27060  Biso   1.000  O
  O139     1.0000 0.83450  0.19580  0.22940  Biso   1.000  O
  O140     1.0000 0.16550  0.19580  0.27060  Biso   1.000  O
  O141     1.0000 0.66550  0.30420  0.77060  Biso   1.000  O
  O142     1.0000 0.33450  0.30420  0.72940  Biso   1.000  O
  O143     1.0000 0.16550  0.80420  0.77060  Biso   1.000  O
  O144     1.0000 0.83450  0.80420  0.72940  Biso   1.000  O
  O145     1.0000 0.26970  0.71090  0.85070  Biso   1.000  O
  O146     1.0000 0.73030  0.71090  0.64930  Biso   1.000  O
  O147     1.0000 0.76970  0.21090  0.85070  Biso   1.000  O
  O148     1.0000 0.23030  0.21090  0.64930  Biso   1.000  O
  O149     1.0000 0.73030  0.28910  0.14930  Biso   1.000  O
  O150     1.0000 0.26970  0.28910  0.35070  Biso   1.000  O
  O151     1.0000 0.23030  0.78910  0.14930  Biso   1.000  O
  O152     1.0000 0.76970  0.78910  0.35070  Biso   1.000  O
  O153     1.0000 0.23200  0.75990  0.12350  Biso   1.000  O
  O154     1.0000 0.76800  0.75990  0.37650  Biso   1.000  O
  O155     1.0000 0.73200  0.25990  0.12350  Biso   1.000  O
  O156     1.0000 0.26800  0.25990  0.37650  Biso   1.000  O
  O157     1.0000 0.76800  0.24010  0.87650  Biso   1.000  O
  O158     1.0000 0.23200  0.24010  0.62350  Biso   1.000  O
  O159     1.0000 0.26800  0.74010  0.87650  Biso   1.000  O
  O160     1.0000 0.73200  0.74010  0.62350  Biso   1.000  O
  O161     1.0000 0.13670  0.81280  0.86990  Biso   1.000  O
  O162     1.0000 0.86330  0.81280  0.63010  Biso   1.000  O
  O163     1.0000 0.63670  0.31280  0.86990  Biso   1.000  O
  O164     1.0000 0.36330  0.31280  0.63010  Biso   1.000  O
  O165     1.0000 0.86330  0.18720  0.13010  Biso   1.000  O
  O166     1.0000 0.13670  0.18720  0.36990  Biso   1.000  O
  O167     1.0000 0.36330  0.68720  0.13010  Biso   1.000  O
  O168     1.0000 0.63670  0.68720  0.36990  Biso   1.000  O
  O169     1.0000 0.11560  0.85850  0.84500  Biso   1.000  O
  O170     1.0000 0.88440  0.85850  0.65500  Biso   1.000  O
  O171     1.0000 0.61560  0.35850  0.84500  Biso   1.000  O
  O172     1.0000 0.38440  0.35850  0.65500  Biso   1.000  O
  O173     1.0000 0.88440  0.14150  0.15500  Biso   1.000  O
  O174     1.0000 0.11560  0.14150  0.34500  Biso   1.000  O
  O175     1.0000 0.38440  0.64150  0.15500  Biso   1.000  O
  O176     1.0000 0.61560  0.64150  0.34500  Biso   1.000  O
  O177     1.0000 0.33370  0.86470  0.15160  Biso   1.000  O
  O178     1.0000 0.66630  0.86470  0.34840  Biso   1.000  O
  O179     1.0000 0.83370  0.36470  0.15160  Biso   1.000  O
  O180     1.0000 0.16630  0.36470  0.34840  Biso   1.000  O
  O181     1.0000 0.66630  0.13530  0.84840  Biso   1.000  O
  O182     1.0000 0.33370  0.13530  0.65160  Biso   1.000  O
  O183     1.0000 0.16630  0.63530  0.84840  Biso   1.000  O
  O184     1.0000 0.83370  0.63530  0.65160  Biso   1.000  O
  O185     1.0000 0.27290  0.56730  0.12740  Biso   1.000  O
  O186     1.0000 0.72710  0.56730  0.37260  Biso   1.000  O
  O187     1.0000 0.77290  0.06730  0.12740  Biso   1.000  O
  O188     1.0000 0.22710  0.06730  0.37260  Biso   1.000  O
  O189     1.0000 0.72710  0.43270  0.87260  Biso   1.000  O
  O190     1.0000 0.27290  0.43270  0.62740  Biso   1.000  O
  O191     1.0000 0.22710  0.93270  0.87260  Biso   1.000  O
  O192     1.0000 0.77290  0.93270  0.62740  Biso   1.000  O
  Si1      1.0000 0.25000  0.75000  0.00000  Biso   1.000  Si
  Si2      1.0000 0.75000  0.75000  0.50000  Biso   1.000  Si
  Si3      1.0000 0.75000  0.25000  0.00000  Biso   1.000  Si
  Si4      1.0000 0.25000  0.25000  0.50000  Biso   1.000  Si
  O193     1.0000 0.55070  0.03060  0.10710  Biso   1.000  O
  O194     1.0000 0.44930  0.03060  0.39290  Biso   1.000  O
  O195     1.0000 0.05070  0.53060  0.10710  Biso   1.000  O
  O196     1.0000 0.94930  0.53060  0.39290  Biso   1.000  O
  O197     1.0000 0.44930  0.96940  0.89290  Biso   1.000  O
  O198     1.0000 0.55070  0.96940  0.60710  Biso   1.000  O
  O199     1.0000 0.94930  0.46940  0.89290  Biso   1.000  O
  O200     1.0000 0.05070  0.46940  0.60710  Biso   1.000  O
