data_image0
_cell_length_a       5.41
_cell_length_b       6.943
_cell_length_c       33.058
_cell_angle_alpha    90
_cell_angle_beta     97.647
_cell_angle_gamma    90

_symmetry_space_group_name_H-M    "P 1"
_symmetry_int_tables_number       1

loop_
  _symmetry_equiv_pos_as_xyz
  'x, y, z'

loop_
  _atom_site_label
  _atom_site_occupancy
  _atom_site_fract_x
  _atom_site_fract_y
  _atom_site_fract_z
  _atom_site_thermal_displace_type
  _atom_site_B_iso_or_equiv
  _atom_site_type_symbol
  Cu1      1.0000 0.71411  0.22908  0.99351  Biso   1.000  Cu
  Cu2      1.0000 0.28589  0.72908  0.50649  Biso   1.000  Cu
  Cu3      1.0000 0.28589  0.77092  0.00649  Biso   1.000  Cu
  Cu4      1.0000 0.71411  0.27092  0.49351  Biso   1.000  Cu
  Cu5      1.0000 0.11612  0.26360  0.83570  Biso   1.000  Cu
  Cu6      1.0000 0.88388  0.76360  0.66430  Biso   1.000  Cu
  Cu7      1.0000 0.88388  0.73640  0.16430  Biso   1.000  Cu
  Cu8      1.0000 0.11612  0.23640  0.33570  Biso   1.000  Cu
  Cu9      1.0000 0.81669  0.25191  0.16765  Biso   1.000  Cu
  Cu10     1.0000 0.18331  0.75191  0.33235  Biso   1.000  Cu
  Cu11     1.0000 0.18331  0.74809  0.83235  Biso   1.000  Cu
  Cu12     1.0000 0.81669  0.24809  0.66765  Biso   1.000  Cu
  N1       1.0000 0.77190  0.28900  0.72145  Biso   1.000  N
  N2       1.0000 0.22810  0.78900  0.77855  Biso   1.000  N
  N3       1.0000 0.22810  0.71100  0.27855  Biso   1.000  N
  N4       1.0000 0.77190  0.21100  0.22145  Biso   1.000  N
  N5       1.0000 0.88780  0.29430  0.78891  Biso   1.000  N
  N6       1.0000 0.11220  0.79430  0.71109  Biso   1.000  N
  N7       1.0000 0.11220  0.70570  0.21109  Biso   1.000  N
  N8       1.0000 0.88780  0.20570  0.28891  Biso   1.000  N
  N9       1.0000 0.37490  0.21730  0.87767  Biso   1.000  N
  N10      1.0000 0.62510  0.71730  0.62233  Biso   1.000  N
  N11      1.0000 0.62510  0.78270  0.12233  Biso   1.000  N
  N12      1.0000 0.37490  0.28270  0.37767  Biso   1.000  N
  N13      1.0000 0.60180  0.19480  0.93864  Biso   1.000  N
  N14      1.0000 0.39820  0.69480  0.56136  Biso   1.000  N
  N15      1.0000 0.39820  0.80520  0.06136  Biso   1.000  N
  N16      1.0000 0.60180  0.30520  0.43864  Biso   1.000  N
  N17      1.0000 0.84400  0.27730  0.04723  Biso   1.000  N
  N18      1.0000 0.15600  0.77730  0.45277  Biso   1.000  N
  N19      1.0000 0.15600  0.72270  0.95277  Biso   1.000  N
  N20      1.0000 0.84400  0.22270  0.54723  Biso   1.000  N
  N21      1.0000 0.88560  0.29230  0.11471  Biso   1.000  N
  N22      1.0000 0.11440  0.79230  0.38529  Biso   1.000  N
  N23      1.0000 0.11440  0.70770  0.88529  Biso   1.000  N
  N24      1.0000 0.88560  0.20770  0.61471  Biso   1.000  N
  C1       1.0000 0.94450  0.24290  0.75263  Biso   1.000  C
  C2       1.0000 0.05550  0.74290  0.74737  Biso   1.000  C
  C3       1.0000 0.05550  0.75710  0.24737  Biso   1.000  C
  C4       1.0000 0.94450  0.25710  0.25263  Biso   1.000  C
  H1       1.0000 0.09210  0.18000  0.74920  Biso   1.000  H
  H2       1.0000 0.90790  0.68000  0.75080  Biso   1.000  H
  H3       1.0000 0.90790  0.82000  0.25080  Biso   1.000  H
  H4       1.0000 0.09210  0.32000  0.24920  Biso   1.000  H
  C5       1.0000 0.65980  0.38130  0.78066  Biso   1.000  C
  C6       1.0000 0.34020  0.88130  0.71934  Biso   1.000  C
  C7       1.0000 0.34020  0.61870  0.21934  Biso   1.000  C
  C8       1.0000 0.65980  0.11870  0.28066  Biso   1.000  C
  H5       1.0000 0.56890  0.43430  0.79990  Biso   1.000  H
  H6       1.0000 0.43110  0.93430  0.70010  Biso   1.000  H
  H7       1.0000 0.43110  0.56570  0.20010  Biso   1.000  H
  H8       1.0000 0.56890  0.06570  0.29990  Biso   1.000  H
  C9       1.0000 0.58920  0.37720  0.74004  Biso   1.000  C
  C10      1.0000 0.41080  0.87720  0.75996  Biso   1.000  C
  C11      1.0000 0.41080  0.62280  0.25996  Biso   1.000  C
  C12      1.0000 0.58920  0.12280  0.24004  Biso   1.000  C
  H9       1.0000 0.44040  0.42620  0.72670  Biso   1.000  H
  H10      1.0000 0.55960  0.92620  0.77330  Biso   1.000  H
  H11      1.0000 0.55960  0.57380  0.27330  Biso   1.000  H
  H12      1.0000 0.44040  0.07380  0.22670  Biso   1.000  H
  C13      1.0000 0.39010  0.25750  0.91738  Biso   1.000  C
  C14      1.0000 0.60990  0.75750  0.58262  Biso   1.000  C
  C15      1.0000 0.60990  0.74250  0.08262  Biso   1.000  C
  C16      1.0000 0.39010  0.24250  0.41738  Biso   1.000  C
  H13      1.0000 0.26660  0.32230  0.92900  Biso   1.000  H
  H14      1.0000 0.73340  0.82230  0.57100  Biso   1.000  H
  H15      1.0000 0.73340  0.67770  0.07100  Biso   1.000  H
  H16      1.0000 0.26660  0.17770  0.42900  Biso   1.000  H
  C17      1.0000 0.72940  0.10830  0.91093  Biso   1.000  C
  C18      1.0000 0.27060  0.60830  0.58907  Biso   1.000  C
  C19      1.0000 0.27060  0.89170  0.08907  Biso   1.000  C
  C20      1.0000 0.72940  0.39170  0.41093  Biso   1.000  C
  H17      1.0000 0.88490  0.05000  0.91650  Biso   1.000  H
  H18      1.0000 0.11510  0.55000  0.58350  Biso   1.000  H
  H19      1.0000 0.11510  0.95000  0.08350  Biso   1.000  H
  H20      1.0000 0.88490  0.45000  0.41650  Biso   1.000  H
  C21      1.0000 0.59150  0.12160  0.87395  Biso   1.000  C
  C22      1.0000 0.40850  0.62160  0.62605  Biso   1.000  C
  C23      1.0000 0.40850  0.87840  0.12605  Biso   1.000  C
  C24      1.0000 0.59150  0.37840  0.37395  Biso   1.000  C
  H21      1.0000 0.63660  0.07330  0.84970  Biso   1.000  H
  H22      1.0000 0.36340  0.57330  0.65030  Biso   1.000  H
  H23      1.0000 0.36340  0.92670  0.15030  Biso   1.000  H
  H24      1.0000 0.63660  0.42670  0.34970  Biso   1.000  H
  C25      1.0000 0.74520  0.23480  0.08052  Biso   1.000  C
  C26      1.0000 0.25480  0.73480  0.41948  Biso   1.000  C
  C27      1.0000 0.25480  0.76520  0.91948  Biso   1.000  C
  C28      1.0000 0.74520  0.26520  0.58052  Biso   1.000  C
  H25      1.0000 0.59350  0.17140  0.08020  Biso   1.000  H
  H26      1.0000 0.40650  0.67140  0.41980  Biso   1.000  H
  H27      1.0000 0.40650  0.82860  0.91980  Biso   1.000  H
  H28      1.0000 0.59350  0.32860  0.58020  Biso   1.000  H
  C29      1.0000 0.09030  0.37770  0.10162  Biso   1.000  C
  C30      1.0000 0.90970  0.87770  0.39838  Biso   1.000  C
  C31      1.0000 0.90970  0.62230  0.89838  Biso   1.000  C
  C32      1.0000 0.09030  0.12230  0.60162  Biso   1.000  C
  H29      1.0000 0.22320  0.43310  0.11830  Biso   1.000  H
  H30      1.0000 0.77680  0.93310  0.38170  Biso   1.000  H
  H31      1.0000 0.77680  0.56690  0.88170  Biso   1.000  H
  H32      1.0000 0.22320  0.06690  0.61830  Biso   1.000  H
  C33      1.0000 0.06680  0.36770  0.06064  Biso   1.000  C
  C34      1.0000 0.93320  0.86770  0.43936  Biso   1.000  C
  C35      1.0000 0.93320  0.63230  0.93936  Biso   1.000  C
  C36      1.0000 0.06680  0.13230  0.56064  Biso   1.000  C
  H33      1.0000 0.18070  0.41380  0.04420  Biso   1.000  H
  H34      1.0000 0.81930  0.91380  0.45580  Biso   1.000  H
  H35      1.0000 0.81930  0.58620  0.95580  Biso   1.000  H
  H36      1.0000 0.18070  0.08620  0.54420  Biso   1.000  H
