data_image0
_cell_length_a       10.9513
_cell_length_b       10.9513
_cell_length_c       6.3063
_cell_angle_alpha    90
_cell_angle_beta     90
_cell_angle_gamma    90

_symmetry_space_group_name_H-M    "P 1"
_symmetry_int_tables_number       1

loop_
  _symmetry_equiv_pos_as_xyz
  'x, y, z'

loop_
  _atom_site_label
  _atom_site_occupancy
  _atom_site_fract_x
  _atom_site_fract_y
  _atom_site_fract_z
  _atom_site_thermal_displace_type
  _atom_site_B_iso_or_equiv
  _atom_site_type_symbol
  Co1      1.0000 0.50000  0.50000  0.00000  Biso   1.000  Co
  Co2      1.0000 0.00000  0.00000  0.50000  Biso   1.000  Co
  Cu1      1.0000 0.50000  0.00000  0.66801  Biso   1.000  Cu
  Cu2      1.0000 0.00000  0.50000  0.33199  Biso   1.000  Cu
  Cu3      1.0000 0.00000  0.50000  0.83199  Biso   1.000  Cu
  Cu4      1.0000 0.50000  0.00000  0.16801  Biso   1.000  Cu
  N1       1.0000 0.47330  0.16840  0.67890  Biso   1.000  N
  N2       1.0000 0.52670  0.83160  0.67890  Biso   1.000  N
  N3       1.0000 0.16840  0.52670  0.32110  Biso   1.000  N
  N4       1.0000 0.83160  0.47330  0.32110  Biso   1.000  N
  N5       1.0000 0.02670  0.66840  0.82110  Biso   1.000  N
  N6       1.0000 0.97330  0.33160  0.82110  Biso   1.000  N
  N7       1.0000 0.33160  0.02670  0.17890  Biso   1.000  N
  N8       1.0000 0.66840  0.97330  0.17890  Biso   1.000  N
  N9       1.0000 0.46700  0.35490  0.81870  Biso   1.000  N
  N10      1.0000 0.53300  0.64510  0.81870  Biso   1.000  N
  N11      1.0000 0.35490  0.53300  0.18130  Biso   1.000  N
  N12      1.0000 0.64510  0.46700  0.18130  Biso   1.000  N
  N13      1.0000 0.03300  0.85490  0.68130  Biso   1.000  N
  N14      1.0000 0.96700  0.14510  0.68130  Biso   1.000  N
  N15      1.0000 0.14510  0.03300  0.31870  Biso   1.000  N
  N16      1.0000 0.85490  0.96700  0.31870  Biso   1.000  N
  C1       1.0000 0.52240  0.24500  0.81980  Biso   1.000  C
  C2       1.0000 0.47760  0.75500  0.81980  Biso   1.000  C
  C3       1.0000 0.24500  0.47760  0.18020  Biso   1.000  C
  C4       1.0000 0.75500  0.52240  0.18020  Biso   1.000  C
  C5       1.0000 0.97760  0.74500  0.68020  Biso   1.000  C
  C6       1.0000 0.02240  0.25500  0.68020  Biso   1.000  C
  C7       1.0000 0.25500  0.97760  0.31980  Biso   1.000  C
  C8       1.0000 0.74500  0.02240  0.31980  Biso   1.000  C
  H1       1.0000 0.22500  0.41270  0.09170  Biso   1.000  H
  H2       1.0000 0.77500  0.58730  0.09170  Biso   1.000  H
  H3       1.0000 0.41270  0.77500  0.90830  Biso   1.000  H
  H4       1.0000 0.58730  0.22500  0.90830  Biso   1.000  H
  H5       1.0000 0.27500  0.91270  0.40830  Biso   1.000  H
  H6       1.0000 0.72500  0.08730  0.40830  Biso   1.000  H
  H7       1.0000 0.08730  0.27500  0.59170  Biso   1.000  H
  H8       1.0000 0.91270  0.72500  0.59170  Biso   1.000  H
  C9       1.0000 0.34590  0.62010  0.33530  Biso   1.000  C
  C10      1.0000 0.65410  0.37990  0.33530  Biso   1.000  C
  C11      1.0000 0.62010  0.65410  0.66470  Biso   1.000  C
  C12      1.0000 0.37990  0.34590  0.66470  Biso   1.000  C
  C13      1.0000 0.15410  0.12010  0.16470  Biso   1.000  C
  C14      1.0000 0.84590  0.87990  0.16470  Biso   1.000  C
  C15      1.0000 0.87990  0.15410  0.83530  Biso   1.000  C
  C16      1.0000 0.12010  0.84590  0.83530  Biso   1.000  C
  H9       1.0000 0.40800  0.67280  0.37700  Biso   1.000  H
  H10      1.0000 0.59200  0.32720  0.37700  Biso   1.000  H
  H11      1.0000 0.67280  0.59200  0.62300  Biso   1.000  H
  H12      1.0000 0.32720  0.40800  0.62300  Biso   1.000  H
  H13      1.0000 0.09200  0.17280  0.12300  Biso   1.000  H
  H14      1.0000 0.90800  0.82720  0.12300  Biso   1.000  H
  H15      1.0000 0.82720  0.09200  0.87700  Biso   1.000  H
  H16      1.0000 0.17280  0.90800  0.87700  Biso   1.000  H
  C17      1.0000 0.23260  0.61730  0.41670  Biso   1.000  C
  C18      1.0000 0.76740  0.38270  0.41670  Biso   1.000  C
  C19      1.0000 0.61730  0.76740  0.58330  Biso   1.000  C
  C20      1.0000 0.38270  0.23260  0.58330  Biso   1.000  C
  C21      1.0000 0.26740  0.11730  0.08330  Biso   1.000  C
  C22      1.0000 0.73260  0.88270  0.08330  Biso   1.000  C
  C23      1.0000 0.88270  0.26740  0.91670  Biso   1.000  C
  C24      1.0000 0.11730  0.73260  0.91670  Biso   1.000  C
  H17      1.0000 0.20300  0.66900  0.52170  Biso   1.000  H
  H18      1.0000 0.79700  0.33100  0.52170  Biso   1.000  H
  H19      1.0000 0.66900  0.79700  0.47830  Biso   1.000  H
  H20      1.0000 0.33100  0.20300  0.47830  Biso   1.000  H
  H21      1.0000 0.29700  0.16900  0.97830  Biso   1.000  H
  H22      1.0000 0.70300  0.83100  0.97830  Biso   1.000  H
  H23      1.0000 0.83100  0.29700  0.02170  Biso   1.000  H
  H24      1.0000 0.16900  0.70300  0.02170  Biso   1.000  H
