data_image0
_cell_length_a       8.069
_cell_length_b       8.068
_cell_length_c       13.425
_cell_angle_alpha    90
_cell_angle_beta     99.414
_cell_angle_gamma    90

_symmetry_space_group_name_H-M    "P 1"
_symmetry_int_tables_number       1

loop_
  _symmetry_equiv_pos_as_xyz
  'x, y, z'

loop_
  _atom_site_label
  _atom_site_occupancy
  _atom_site_fract_x
  _atom_site_fract_y
  _atom_site_fract_z
  _atom_site_thermal_displace_type
  _atom_site_B_iso_or_equiv
  _atom_site_type_symbol
  Cu1      1.0000 0.02635  0.18454  0.35517  Biso   1.000  Cu
  Cu2      1.0000 0.52635  0.68454  0.35517  Biso   1.000  Cu
  Cu3      1.0000 0.97365  0.18454  0.14483  Biso   1.000  Cu
  Cu4      1.0000 0.47365  0.68454  0.14483  Biso   1.000  Cu
  Cu5      1.0000 0.97365  0.81546  0.64483  Biso   1.000  Cu
  Cu6      1.0000 0.47365  0.31546  0.64483  Biso   1.000  Cu
  Cu7      1.0000 0.02635  0.81546  0.85517  Biso   1.000  Cu
  Cu8      1.0000 0.52635  0.31546  0.85517  Biso   1.000  Cu
  N1       1.0000 0.23310  0.08510  0.36320  Biso   1.000  N
  N2       1.0000 0.73310  0.58510  0.36320  Biso   1.000  N
  N3       1.0000 0.76690  0.08510  0.13680  Biso   1.000  N
  N4       1.0000 0.26690  0.58510  0.13680  Biso   1.000  N
  N5       1.0000 0.76690  0.91490  0.63680  Biso   1.000  N
  N6       1.0000 0.26690  0.41490  0.63680  Biso   1.000  N
  N7       1.0000 0.23310  0.91490  0.86320  Biso   1.000  N
  N8       1.0000 0.73310  0.41490  0.86320  Biso   1.000  N
  N9       1.0000 0.43340  0.89570  0.36130  Biso   1.000  N
  N10      1.0000 0.93340  0.39570  0.36130  Biso   1.000  N
  N11      1.0000 0.56660  0.89570  0.13870  Biso   1.000  N
  N12      1.0000 0.06660  0.39570  0.13870  Biso   1.000  N
  N13      1.0000 0.56660  0.10430  0.63870  Biso   1.000  N
  N14      1.0000 0.06660  0.60430  0.63870  Biso   1.000  N
  N15      1.0000 0.43340  0.10430  0.86130  Biso   1.000  N
  N16      1.0000 0.93340  0.60430  0.86130  Biso   1.000  N
  C1       1.0000 0.27330  0.93340  0.34140  Biso   1.000  C
  C2       1.0000 0.77330  0.43340  0.34140  Biso   1.000  C
  C3       1.0000 0.72670  0.93340  0.15860  Biso   1.000  C
  C4       1.0000 0.22670  0.43340  0.15860  Biso   1.000  C
  C5       1.0000 0.72670  0.06660  0.65860  Biso   1.000  C
  C6       1.0000 0.22670  0.56660  0.65860  Biso   1.000  C
  C7       1.0000 0.27330  0.06660  0.84140  Biso   1.000  C
  C8       1.0000 0.77330  0.56660  0.84140  Biso   1.000  C
  H1       1.0000 0.19280  0.85690  0.31340  Biso   1.000  H
  H2       1.0000 0.69280  0.35690  0.31340  Biso   1.000  H
  H3       1.0000 0.80720  0.85690  0.18660  Biso   1.000  H
  H4       1.0000 0.30720  0.35690  0.18660  Biso   1.000  H
  H5       1.0000 0.80720  0.14310  0.68660  Biso   1.000  H
  H6       1.0000 0.30720  0.64310  0.68660  Biso   1.000  H
  H7       1.0000 0.19280  0.14310  0.81340  Biso   1.000  H
  H8       1.0000 0.69280  0.64310  0.81340  Biso   1.000  H
  C9       1.0000 0.38510  0.15440  0.39950  Biso   1.000  C
  C10      1.0000 0.88510  0.65440  0.39950  Biso   1.000  C
  C11      1.0000 0.61490  0.15440  0.10050  Biso   1.000  C
  C12      1.0000 0.11490  0.65440  0.10050  Biso   1.000  C
  C13      1.0000 0.61490  0.84560  0.60050  Biso   1.000  C
  C14      1.0000 0.11490  0.34560  0.60050  Biso   1.000  C
  C15      1.0000 0.38510  0.84560  0.89950  Biso   1.000  C
  C16      1.0000 0.88510  0.34560  0.89950  Biso   1.000  C
  H9       1.0000 0.40260  0.26300  0.42200  Biso   1.000  H
  H10      1.0000 0.90260  0.76300  0.42200  Biso   1.000  H
  H11      1.0000 0.59740  0.26300  0.07800  Biso   1.000  H
  H12      1.0000 0.09740  0.76300  0.07800  Biso   1.000  H
  H13      1.0000 0.59740  0.73700  0.57800  Biso   1.000  H
  H14      1.0000 0.09740  0.23700  0.57800  Biso   1.000  H
  H15      1.0000 0.40260  0.73700  0.92200  Biso   1.000  H
  H16      1.0000 0.90260  0.23700  0.92200  Biso   1.000  H
  C17      1.0000 0.50600  0.03950  0.39750  Biso   1.000  C
  C18      1.0000 0.00600  0.53950  0.39750  Biso   1.000  C
  C19      1.0000 0.49400  0.03950  0.10250  Biso   1.000  C
  C20      1.0000 0.99400  0.53950  0.10250  Biso   1.000  C
  C21      1.0000 0.49400  0.96050  0.60250  Biso   1.000  C
  C22      1.0000 0.99400  0.46050  0.60250  Biso   1.000  C
  C23      1.0000 0.50600  0.96050  0.89750  Biso   1.000  C
  C24      1.0000 0.00600  0.46050  0.89750  Biso   1.000  C
  H17      1.0000 0.62050  0.05640  0.41780  Biso   1.000  H
  H18      1.0000 0.12050  0.55640  0.41780  Biso   1.000  H
  H19      1.0000 0.37950  0.05640  0.08220  Biso   1.000  H
  H20      1.0000 0.87950  0.55640  0.08220  Biso   1.000  H
  H21      1.0000 0.37950  0.94360  0.58220  Biso   1.000  H
  H22      1.0000 0.87950  0.44360  0.58220  Biso   1.000  H
  H23      1.0000 0.62050  0.94360  0.91780  Biso   1.000  H
  H24      1.0000 0.12050  0.44360  0.91780  Biso   1.000  H
  N17      1.0000 0.12770  0.98060  0.36320  Biso   1.000  N
  N18      1.0000 0.62770  0.48060  0.36320  Biso   1.000  N
  N19      1.0000 0.87230  0.98060  0.13680  Biso   1.000  N
  N20      1.0000 0.37230  0.48060  0.13680  Biso   1.000  N
  N21      1.0000 0.87230  0.01940  0.63680  Biso   1.000  N
  N22      1.0000 0.37230  0.51940  0.63680  Biso   1.000  N
  N23      1.0000 0.12770  0.01940  0.86320  Biso   1.000  N
  N24      1.0000 0.62770  0.51940  0.86320  Biso   1.000  N
  N25      1.0000 0.31610  0.77920  0.36060  Biso   1.000  N
  N26      1.0000 0.81610  0.27920  0.36060  Biso   1.000  N
  N27      1.0000 0.68390  0.77920  0.13940  Biso   1.000  N
  N28      1.0000 0.18390  0.27920  0.13940  Biso   1.000  N
  N29      1.0000 0.68390  0.22080  0.63940  Biso   1.000  N
  N30      1.0000 0.18390  0.72080  0.63940  Biso   1.000  N
  N31      1.0000 0.31610  0.22080  0.86060  Biso   1.000  N
  N32      1.0000 0.81610  0.72080  0.86060  Biso   1.000  N
  H25      1.0000 0.34260  0.00630  0.31370  Biso   1.000  H
  H26      1.0000 0.84260  0.50630  0.31370  Biso   1.000  H
  H27      1.0000 0.65740  0.00630  0.18630  Biso   1.000  H
  H28      1.0000 0.15740  0.50630  0.18630  Biso   1.000  H
  H29      1.0000 0.65740  0.99370  0.68630  Biso   1.000  H
  H30      1.0000 0.15740  0.49370  0.68630  Biso   1.000  H
  H31      1.0000 0.34260  0.99370  0.81370  Biso   1.000  H
  H32      1.0000 0.84260  0.49370  0.81370  Biso   1.000  H
  C25      1.0000 0.06700  0.83900  0.39790  Biso   1.000  C
  C26      1.0000 0.56700  0.33900  0.39790  Biso   1.000  C
  C27      1.0000 0.93300  0.83900  0.10210  Biso   1.000  C
  C28      1.0000 0.43300  0.33900  0.10210  Biso   1.000  C
  C29      1.0000 0.93300  0.16100  0.60210  Biso   1.000  C
  C30      1.0000 0.43300  0.66100  0.60210  Biso   1.000  C
  C31      1.0000 0.06700  0.16100  0.89790  Biso   1.000  C
  C32      1.0000 0.56700  0.66100  0.89790  Biso   1.000  C
  H33      1.0000 0.96340  0.82760  0.41900  Biso   1.000  H
  H34      1.0000 0.46340  0.32760  0.41900  Biso   1.000  H
  H35      1.0000 0.03660  0.82760  0.08100  Biso   1.000  H
  H36      1.0000 0.53660  0.32760  0.08100  Biso   1.000  H
  H37      1.0000 0.03660  0.17240  0.58100  Biso   1.000  H
  H38      1.0000 0.53660  0.67240  0.58100  Biso   1.000  H
  H39      1.0000 0.96340  0.17240  0.91900  Biso   1.000  H
  H40      1.0000 0.46340  0.67240  0.91900  Biso   1.000  H
  C33      1.0000 0.18220  0.71660  0.39690  Biso   1.000  C
  C34      1.0000 0.68220  0.21660  0.39690  Biso   1.000  C
  C35      1.0000 0.81780  0.71660  0.10310  Biso   1.000  C
  C36      1.0000 0.31780  0.21660  0.10310  Biso   1.000  C
  C37      1.0000 0.81780  0.28340  0.60310  Biso   1.000  C
  C38      1.0000 0.31780  0.78340  0.60310  Biso   1.000  C
  C39      1.0000 0.18220  0.28340  0.89690  Biso   1.000  C
  C40      1.0000 0.68220  0.78340  0.89690  Biso   1.000  C
  H41      1.0000 0.17090  0.60780  0.41770  Biso   1.000  H
  H42      1.0000 0.67090  0.10780  0.41770  Biso   1.000  H
  H43      1.0000 0.82910  0.60780  0.08230  Biso   1.000  H
  H44      1.0000 0.32910  0.10780  0.08230  Biso   1.000  H
  H45      1.0000 0.82910  0.39220  0.58230  Biso   1.000  H
  H46      1.0000 0.32910  0.89220  0.58230  Biso   1.000  H
  H47      1.0000 0.17090  0.39220  0.91770  Biso   1.000  H
  H48      1.0000 0.67090  0.89220  0.91770  Biso   1.000  H
