data_image0
_cell_length_a       7.6797
_cell_length_b       7.7125
_cell_length_c       11.3151
_cell_angle_alpha    104.415
_cell_angle_beta     104.17
_cell_angle_gamma    96.141

_symmetry_space_group_name_H-M    "P 1"
_symmetry_int_tables_number       1

loop_
  _symmetry_equiv_pos_as_xyz
  'x, y, z'

loop_
  _atom_site_label
  _atom_site_occupancy
  _atom_site_fract_x
  _atom_site_fract_y
  _atom_site_fract_z
  _atom_site_thermal_displace_type
  _atom_site_B_iso_or_equiv
  _atom_site_type_symbol
  I1       1.0000 0.76907  0.04228  0.80965  Biso   1.000  I
  I2       1.0000 0.23093  0.95772  0.19035  Biso   1.000  I
  I3       1.0000 0.71073  0.82860  0.42622  Biso   1.000  I
  I4       1.0000 0.28927  0.17140  0.57378  Biso   1.000  I
  Cu1      1.0000 0.37056  0.70744  0.29034  Biso   1.000  Cu
  Cu2      1.0000 0.62944  0.29256  0.70966  Biso   1.000  Cu
  Cu3      1.0000 0.48616  0.08553  0.41045  Biso   1.000  Cu
  Cu4      1.0000 0.51384  0.91447  0.58955  Biso   1.000  Cu
  N1       1.0000 0.22280  0.62520  0.40310  Biso   1.000  N
  N2       1.0000 0.77720  0.37480  0.59690  Biso   1.000  N
  N3       1.0000 0.29250  0.70580  0.53320  Biso   1.000  N
  N4       1.0000 0.70750  0.29420  0.46680  Biso   1.000  N
  N5       1.0000 0.36280  0.50160  0.13700  Biso   1.000  N
  N6       1.0000 0.63720  0.49840  0.86300  Biso   1.000  N
  C1       1.0000 0.06940  0.50840  0.35600  Biso   1.000  C
  C2       1.0000 0.93060  0.49160  0.64400  Biso   1.000  C
  C3       1.0000 0.96750  0.45960  0.43550  Biso   1.000  C
  C4       1.0000 0.03250  0.54040  0.56450  Biso   1.000  C
  C5       1.0000 0.19770  0.66720  0.61030  Biso   1.000  C
  C6       1.0000 0.80230  0.33280  0.38970  Biso   1.000  C
  C7       1.0000 0.26730  0.76200  0.75010  Biso   1.000  C
  C8       1.0000 0.73270  0.23800  0.24990  Biso   1.000  C
  H1       1.0000 0.39790  0.79450  0.77420  Biso   1.000  H
  H2       1.0000 0.60210  0.20550  0.22580  Biso   1.000  H
  H3       1.0000 0.21800  0.87150  0.76910  Biso   1.000  H
  H4       1.0000 0.78200  0.12850  0.23090  Biso   1.000  H
  C9       1.0000 0.21040  0.63710  0.82460  Biso   1.000  C
  C10      1.0000 0.78960  0.36290  0.17540  Biso   1.000  C
  H5       1.0000 0.26870  0.53270  0.81070  Biso   1.000  H
  H6       1.0000 0.73130  0.46730  0.18930  Biso   1.000  H
  H7       1.0000 0.25160  0.70050  0.91380  Biso   1.000  H
  H8       1.0000 0.74840  0.29950  0.08620  Biso   1.000  H
  C11      1.0000 0.99600  0.42650  0.21450  Biso   1.000  C
  C12      1.0000 0.00400  0.57350  0.78550  Biso   1.000  C
  H9       1.0000 0.05350  0.32480  0.18800  Biso   1.000  H
  H10      1.0000 0.94650  0.67520  0.81200  Biso   1.000  H
  H11      1.0000 0.02470  0.51520  0.17260  Biso   1.000  H
  H12      1.0000 0.97530  0.48480  0.82740  Biso   1.000  H
  C13      1.0000 0.34370  0.37850  0.05180  Biso   1.000  C
  C14      1.0000 0.65630  0.62150  0.94820  Biso   1.000  C
  C15      1.0000 0.31810  0.21650  0.94520  Biso   1.000  C
  C16      1.0000 0.68190  0.78350  0.05480  Biso   1.000  C
  H13      1.0000 0.36470  0.24320  0.87910  Biso   1.000  H
  H14      1.0000 0.63530  0.75680  0.12090  Biso   1.000  H
  H15      1.0000 0.18970  0.16770  0.91540  Biso   1.000  H
  H16      1.0000 0.81030  0.83230  0.08460  Biso   1.000  H
  H17      1.0000 0.37700  0.12860  0.97910  Biso   1.000  H
  H18      1.0000 0.62300  0.87140  0.02090  Biso   1.000  H
