data_image0
_cell_length_a       24.063
_cell_length_b       13.5575
_cell_length_c       6.8122
_cell_angle_alpha    90
_cell_angle_beta     90
_cell_angle_gamma    90

_symmetry_space_group_name_H-M    "P 1"
_symmetry_int_tables_number       1

loop_
  _symmetry_equiv_pos_as_xyz
  'x, y, z'

loop_
  _atom_site_label
  _atom_site_occupancy
  _atom_site_fract_x
  _atom_site_fract_y
  _atom_site_fract_z
  _atom_site_thermal_displace_type
  _atom_site_B_iso_or_equiv
  _atom_site_type_symbol
  Cu1      1.0000 0.07087  0.25000  0.87962  Biso   1.000  Cu
  Cu2      1.0000 0.57087  0.25000  0.62038  Biso   1.000  Cu
  Cu3      1.0000 0.42913  0.75000  0.37962  Biso   1.000  Cu
  Cu4      1.0000 0.92913  0.75000  0.12038  Biso   1.000  Cu
  Cu5      1.0000 0.94855  0.25000  0.90726  Biso   1.000  Cu
  Cu6      1.0000 0.44855  0.25000  0.59274  Biso   1.000  Cu
  Cu7      1.0000 0.55145  0.75000  0.40726  Biso   1.000  Cu
  Cu8      1.0000 0.05145  0.75000  0.09274  Biso   1.000  Cu
  I1       1.0000 0.00981  0.25000  0.21843  Biso   1.000  I
  I2       1.0000 0.50981  0.25000  0.28157  Biso   1.000  I
  I3       1.0000 0.49019  0.75000  0.71843  Biso   1.000  I
  I4       1.0000 0.99019  0.75000  0.78157  Biso   1.000  I
  I5       1.0000 0.17334  0.25000  0.99460  Biso   1.000  I
  I6       1.0000 0.67334  0.25000  0.50540  Biso   1.000  I
  I7       1.0000 0.32666  0.75000  0.49460  Biso   1.000  I
  I8       1.0000 0.82666  0.75000  0.00540  Biso   1.000  I
  N1       1.0000 0.03471  0.36440  0.71370  Biso   1.000  N
  N2       1.0000 0.53471  0.36440  0.78630  Biso   1.000  N
  N3       1.0000 0.03471  0.13560  0.71370  Biso   1.000  N
  N4       1.0000 0.46529  0.86440  0.21370  Biso   1.000  N
  N5       1.0000 0.96529  0.63560  0.28630  Biso   1.000  N
  N6       1.0000 0.46529  0.63560  0.21370  Biso   1.000  N
  N7       1.0000 0.96529  0.86440  0.28630  Biso   1.000  N
  N8       1.0000 0.53471  0.13560  0.78630  Biso   1.000  N
  N9       1.0000 0.97753  0.36903  0.74210  Biso   1.000  N
  N10      1.0000 0.47753  0.36903  0.75790  Biso   1.000  N
  N11      1.0000 0.97753  0.13097  0.74210  Biso   1.000  N
  N12      1.0000 0.52247  0.86903  0.24210  Biso   1.000  N
  N13      1.0000 0.02247  0.63097  0.25790  Biso   1.000  N
  N14      1.0000 0.52247  0.63097  0.24210  Biso   1.000  N
  N15      1.0000 0.02247  0.86903  0.25790  Biso   1.000  N
  N16      1.0000 0.47753  0.13097  0.75790  Biso   1.000  N
  N17      1.0000 0.86827  0.25000  0.96850  Biso   1.000  N
  N18      1.0000 0.36827  0.25000  0.53150  Biso   1.000  N
  N19      1.0000 0.63173  0.75000  0.46850  Biso   1.000  N
  N20      1.0000 0.13173  0.75000  0.03150  Biso   1.000  N
  C1       1.0000 0.94104  0.57749  0.41600  Biso   1.000  C
  C2       1.0000 0.44104  0.57749  0.08400  Biso   1.000  C
  C3       1.0000 0.94104  0.92251  0.41600  Biso   1.000  C
  C4       1.0000 0.55896  0.07749  0.91600  Biso   1.000  C
  C5       1.0000 0.05896  0.42251  0.58400  Biso   1.000  C
  C6       1.0000 0.55896  0.42251  0.91600  Biso   1.000  C
  C7       1.0000 0.05896  0.07749  0.58400  Biso   1.000  C
  C8       1.0000 0.44104  0.92251  0.08400  Biso   1.000  C
  C9       1.0000 0.97201  0.50431  0.51840  Biso   1.000  C
  C10      1.0000 0.47201  0.50431  0.98160  Biso   1.000  C
  C11      1.0000 0.97201  0.99569  0.51840  Biso   1.000  C
  C12      1.0000 0.52799  0.00431  0.01840  Biso   1.000  C
  C13      1.0000 0.02799  0.49569  0.48160  Biso   1.000  C
  C14      1.0000 0.52799  0.49569  0.01840  Biso   1.000  C
  C15      1.0000 0.02799  0.00431  0.48160  Biso   1.000  C
  C16      1.0000 0.47201  0.99569  0.98160  Biso   1.000  C
  C17      1.0000 0.94762  0.43676  0.65200  Biso   1.000  C
  C18      1.0000 0.44762  0.43676  0.84800  Biso   1.000  C
  C19      1.0000 0.94762  0.06324  0.65200  Biso   1.000  C
  C20      1.0000 0.55238  0.93676  0.15200  Biso   1.000  C
  C21      1.0000 0.05238  0.56324  0.34800  Biso   1.000  C
  C22      1.0000 0.55238  0.56324  0.15200  Biso   1.000  C
  C23      1.0000 0.05238  0.93676  0.34800  Biso   1.000  C
  C24      1.0000 0.44762  0.06324  0.84800  Biso   1.000  C
  C25      1.0000 0.11362  0.55600  0.31020  Biso   1.000  C
  C26      1.0000 0.61362  0.55600  0.18980  Biso   1.000  C
  C27      1.0000 0.11362  0.94400  0.31020  Biso   1.000  C
  C28      1.0000 0.38638  0.05600  0.81020  Biso   1.000  C
  C29      1.0000 0.88638  0.44400  0.68980  Biso   1.000  C
  C30      1.0000 0.38638  0.44400  0.81020  Biso   1.000  C
  C31      1.0000 0.88638  0.05600  0.68980  Biso   1.000  C
  C32      1.0000 0.61362  0.94400  0.18980  Biso   1.000  C
  H1       1.0000 0.12790  0.62040  0.28090  Biso   1.000  H
  H2       1.0000 0.62790  0.62040  0.21910  Biso   1.000  H
  H3       1.0000 0.12790  0.87960  0.28090  Biso   1.000  H
  H4       1.0000 0.37210  0.12040  0.78090  Biso   1.000  H
  H5       1.0000 0.87210  0.37960  0.71910  Biso   1.000  H
  H6       1.0000 0.37210  0.37960  0.78090  Biso   1.000  H
  H7       1.0000 0.87210  0.12040  0.71910  Biso   1.000  H
  H8       1.0000 0.62790  0.87960  0.21910  Biso   1.000  H
  H9       1.0000 0.11960  0.51510  0.19710  Biso   1.000  H
  H10      1.0000 0.61960  0.51510  0.30290  Biso   1.000  H
  H11      1.0000 0.11960  0.98490  0.19710  Biso   1.000  H
  H12      1.0000 0.38040  0.01510  0.69710  Biso   1.000  H
  H13      1.0000 0.88040  0.48490  0.80290  Biso   1.000  H
  H14      1.0000 0.38040  0.48490  0.69710  Biso   1.000  H
  H15      1.0000 0.88040  0.01510  0.80290  Biso   1.000  H
  H16      1.0000 0.61960  0.98490  0.30290  Biso   1.000  H
  C33      1.0000 0.14583  0.51245  0.48450  Biso   1.000  C
  C34      1.0000 0.64583  0.51245  0.01550  Biso   1.000  C
  C35      1.0000 0.14583  0.98755  0.48450  Biso   1.000  C
  C36      1.0000 0.35417  0.01245  0.98450  Biso   1.000  C
  C37      1.0000 0.85417  0.48755  0.51550  Biso   1.000  C
  C38      1.0000 0.35417  0.48755  0.98450  Biso   1.000  C
  C39      1.0000 0.85417  0.01245  0.51550  Biso   1.000  C
  C40      1.0000 0.64583  0.98755  0.01550  Biso   1.000  C
  C41      1.0000 0.11974  0.41294  0.54280  Biso   1.000  C
  C42      1.0000 0.61974  0.41294  0.95720  Biso   1.000  C
  C43      1.0000 0.11974  0.08706  0.54280  Biso   1.000  C
  C44      1.0000 0.38026  0.91294  0.04280  Biso   1.000  C
  C45      1.0000 0.88026  0.58706  0.45720  Biso   1.000  C
  C46      1.0000 0.38026  0.58706  0.04280  Biso   1.000  C
  C47      1.0000 0.88026  0.91294  0.45720  Biso   1.000  C
  C48      1.0000 0.61974  0.08706  0.95720  Biso   1.000  C
  H17      1.0000 0.13820  0.38820  0.65770  Biso   1.000  H
  H18      1.0000 0.63820  0.38820  0.84230  Biso   1.000  H
  H19      1.0000 0.13820  0.11180  0.65770  Biso   1.000  H
  H20      1.0000 0.36180  0.88820  0.15770  Biso   1.000  H
  H21      1.0000 0.86180  0.61180  0.34230  Biso   1.000  H
  H22      1.0000 0.36180  0.61180  0.15770  Biso   1.000  H
  H23      1.0000 0.86180  0.88820  0.34230  Biso   1.000  H
  H24      1.0000 0.63820  0.11180  0.84230  Biso   1.000  H
  H25      1.0000 0.12510  0.36600  0.43900  Biso   1.000  H
  H26      1.0000 0.62510  0.36600  0.06100  Biso   1.000  H
  H27      1.0000 0.12510  0.13400  0.43900  Biso   1.000  H
  H28      1.0000 0.37490  0.86600  0.93900  Biso   1.000  H
  H29      1.0000 0.87490  0.63400  0.56100  Biso   1.000  H
  H30      1.0000 0.37490  0.63400  0.93900  Biso   1.000  H
  H31      1.0000 0.87490  0.86600  0.56100  Biso   1.000  H
  H32      1.0000 0.62510  0.13400  0.06100  Biso   1.000  H
  C49      1.0000 0.20600  0.49670  0.41970  Biso   1.000  C
  C50      1.0000 0.70600  0.49670  0.08030  Biso   1.000  C
  C51      1.0000 0.20600  0.00330  0.41970  Biso   1.000  C
  C52      1.0000 0.29400  0.99670  0.91970  Biso   1.000  C
  C53      1.0000 0.79400  0.50330  0.58030  Biso   1.000  C
  C54      1.0000 0.29400  0.50330  0.91970  Biso   1.000  C
  C55      1.0000 0.79400  0.99670  0.58030  Biso   1.000  C
  C56      1.0000 0.70600  0.00330  0.08030  Biso   1.000  C
  H33      1.0000 0.22270  0.55840  0.38330  Biso   1.000  H
  H34      1.0000 0.72270  0.55840  0.11670  Biso   1.000  H
  H35      1.0000 0.22270  0.94160  0.38330  Biso   1.000  H
  H36      1.0000 0.27730  0.05840  0.88330  Biso   1.000  H
  H37      1.0000 0.77730  0.44160  0.61670  Biso   1.000  H
  H38      1.0000 0.27730  0.44160  0.88330  Biso   1.000  H
  H39      1.0000 0.77730  0.05840  0.61670  Biso   1.000  H
  H40      1.0000 0.72270  0.94160  0.11670  Biso   1.000  H
  H41      1.0000 0.22650  0.46690  0.52480  Biso   1.000  H
  H42      1.0000 0.72650  0.46690  0.97520  Biso   1.000  H
  H43      1.0000 0.22650  0.03310  0.52480  Biso   1.000  H
  H44      1.0000 0.27350  0.96690  0.02480  Biso   1.000  H
  H45      1.0000 0.77350  0.53310  0.47520  Biso   1.000  H
  H46      1.0000 0.27350  0.53310  0.02480  Biso   1.000  H
  H47      1.0000 0.77350  0.96690  0.47520  Biso   1.000  H
  H48      1.0000 0.72650  0.03310  0.97520  Biso   1.000  H
  H49      1.0000 0.20640  0.45210  0.31030  Biso   1.000  H
  H50      1.0000 0.70640  0.45210  0.18970  Biso   1.000  H
  H51      1.0000 0.20640  0.04790  0.31030  Biso   1.000  H
  H52      1.0000 0.29360  0.95210  0.81030  Biso   1.000  H
  H53      1.0000 0.79360  0.54790  0.68970  Biso   1.000  H
  H54      1.0000 0.29360  0.54790  0.81030  Biso   1.000  H
  H55      1.0000 0.79360  0.95210  0.68970  Biso   1.000  H
  H56      1.0000 0.70640  0.04790  0.18970  Biso   1.000  H
  C57      1.0000 0.14461  0.58360  0.65910  Biso   1.000  C
  C58      1.0000 0.64461  0.58360  0.84090  Biso   1.000  C
  C59      1.0000 0.14461  0.91640  0.65910  Biso   1.000  C
  C60      1.0000 0.35539  0.08360  0.15910  Biso   1.000  C
  C61      1.0000 0.85539  0.41640  0.34090  Biso   1.000  C
  C62      1.0000 0.35539  0.41640  0.15910  Biso   1.000  C
  C63      1.0000 0.85539  0.08360  0.34090  Biso   1.000  C
  C64      1.0000 0.64461  0.91640  0.84090  Biso   1.000  C
  H57      1.0000 0.15910  0.64650  0.61950  Biso   1.000  H
  H58      1.0000 0.65910  0.64650  0.88050  Biso   1.000  H
  H59      1.0000 0.15910  0.85350  0.61950  Biso   1.000  H
  H60      1.0000 0.34090  0.14650  0.11950  Biso   1.000  H
  H61      1.0000 0.84090  0.35350  0.38050  Biso   1.000  H
  H62      1.0000 0.34090  0.35350  0.11950  Biso   1.000  H
  H63      1.0000 0.84090  0.14650  0.38050  Biso   1.000  H
  H64      1.0000 0.65910  0.85350  0.88050  Biso   1.000  H
  H65      1.0000 0.10710  0.59140  0.70450  Biso   1.000  H
  H66      1.0000 0.60710  0.59140  0.79550  Biso   1.000  H
  H67      1.0000 0.10710  0.90860  0.70450  Biso   1.000  H
  H68      1.0000 0.39290  0.09140  0.20450  Biso   1.000  H
  H69      1.0000 0.89290  0.40860  0.29550  Biso   1.000  H
  H70      1.0000 0.39290  0.40860  0.20450  Biso   1.000  H
  H71      1.0000 0.89290  0.09140  0.29550  Biso   1.000  H
  H72      1.0000 0.60710  0.90860  0.79550  Biso   1.000  H
  H73      1.0000 0.16650  0.55790  0.76520  Biso   1.000  H
  H74      1.0000 0.66650  0.55790  0.73480  Biso   1.000  H
  H75      1.0000 0.16650  0.94210  0.76520  Biso   1.000  H
  H76      1.0000 0.33350  0.05790  0.26520  Biso   1.000  H
  H77      1.0000 0.83350  0.44210  0.23480  Biso   1.000  H
  H78      1.0000 0.33350  0.44210  0.26520  Biso   1.000  H
  H79      1.0000 0.83350  0.05790  0.23480  Biso   1.000  H
  H80      1.0000 0.66650  0.94210  0.73480  Biso   1.000  H
  C65      1.0000 0.82181  0.25000  0.99260  Biso   1.000  C
  C66      1.0000 0.32181  0.25000  0.50740  Biso   1.000  C
  C67      1.0000 0.67819  0.75000  0.49260  Biso   1.000  C
  C68      1.0000 0.17819  0.75000  0.00740  Biso   1.000  C
  C69      1.0000 0.76187  0.25000  0.02100  Biso   1.000  C
  C70      1.0000 0.26187  0.25000  0.47900  Biso   1.000  C
  C71      1.0000 0.73813  0.75000  0.52100  Biso   1.000  C
  C72      1.0000 0.23813  0.75000  0.97900  Biso   1.000  C
  H81      1.0000 0.74450  0.25000  0.89420  Biso   1.000  H
  H82      1.0000 0.24450  0.25000  0.60580  Biso   1.000  H
  H83      1.0000 0.75550  0.75000  0.39420  Biso   1.000  H
  H84      1.0000 0.25550  0.75000  0.10580  Biso   1.000  H
  H85      1.0000 0.75060  0.19140  0.08930  Biso   1.000  H
  H86      1.0000 0.25060  0.19140  0.41070  Biso   1.000  H
  H87      1.0000 0.75060  0.30860  0.08930  Biso   1.000  H
  H88      1.0000 0.74940  0.69140  0.58930  Biso   1.000  H
  H89      1.0000 0.24940  0.80860  0.91070  Biso   1.000  H
  H90      1.0000 0.74940  0.80860  0.58930  Biso   1.000  H
  H91      1.0000 0.24940  0.69140  0.91070  Biso   1.000  H
  H92      1.0000 0.25060  0.30860  0.41070  Biso   1.000  H
