data_image0
_cell_length_a       26.1899
_cell_length_b       26.1899
_cell_length_c       9.6096
_cell_angle_alpha    90
_cell_angle_beta     90
_cell_angle_gamma    120

_symmetry_space_group_name_H-M    "P 1"
_symmetry_int_tables_number       1

loop_
  _symmetry_equiv_pos_as_xyz
  'x, y, z'

loop_
  _atom_site_label
  _atom_site_occupancy
  _atom_site_fract_x
  _atom_site_fract_y
  _atom_site_fract_z
  _atom_site_thermal_displace_type
  _atom_site_B_iso_or_equiv
  _atom_site_type_symbol
  Cu1      1.0000 0.98380  0.65047  0.33330  Biso   1.000  Cu
  Cu2      1.0000 0.34953  0.33333  0.33330  Biso   1.000  Cu
  Cu3      1.0000 0.66667  0.01620  0.33330  Biso   1.000  Cu
  Cu4      1.0000 0.65047  0.98380  0.66670  Biso   1.000  Cu
  Cu5      1.0000 0.31713  0.98380  0.66663  Biso   1.000  Cu
  Cu6      1.0000 0.68286  0.66666  0.66663  Biso   1.000  Cu
  Cu7      1.0000 0.00000  0.34953  0.66663  Biso   1.000  Cu
  Cu8      1.0000 0.98380  0.31713  0.00003  Biso   1.000  Cu
  Cu9      1.0000 0.66667  0.65047  0.33330  Biso   1.000  Cu
  Cu10     1.0000 0.98380  0.33333  0.33330  Biso   1.000  Cu
  Cu11     1.0000 0.98380  0.00000  0.00003  Biso   1.000  Cu
  Cu12     1.0000 0.66666  0.31713  0.00003  Biso   1.000  Cu
  Cu13     1.0000 0.00000  0.98380  0.66663  Biso   1.000  Cu
  Cu14     1.0000 0.31713  0.66666  0.66663  Biso   1.000  Cu
  Cu15     1.0000 0.01620  0.34953  0.66670  Biso   1.000  Cu
  Cu16     1.0000 0.65047  0.66667  0.66670  Biso   1.000  Cu
  Cu17     1.0000 0.33333  0.98380  0.66670  Biso   1.000  Cu
  Cu18     1.0000 0.34953  0.01620  0.33330  Biso   1.000  Cu
  Cu19     1.0000 0.34953  0.68286  0.00003  Biso   1.000  Cu
  Cu20     1.0000 0.68286  0.34953  0.66663  Biso   1.000  Cu
  Cu21     1.0000 0.33333  0.34953  0.66670  Biso   1.000  Cu
  Cu22     1.0000 0.01620  0.66667  0.66670  Biso   1.000  Cu
  Cu23     1.0000 0.66666  0.68286  0.00003  Biso   1.000  Cu
  Cu24     1.0000 0.34953  0.00000  0.00003  Biso   1.000  Cu
  I1       1.0000 0.00000  0.73776  0.50000  Biso   1.000  I
  I2       1.0000 0.26224  0.26224  0.50000  Biso   1.000  I
  I3       1.0000 0.73776  0.00000  0.50000  Biso   1.000  I
  I4       1.0000 0.33333  0.07109  0.83333  Biso   1.000  I
  I5       1.0000 0.59557  0.59557  0.83333  Biso   1.000  I
  I6       1.0000 0.07109  0.33333  0.83333  Biso   1.000  I
  I7       1.0000 0.73776  0.73776  0.50000  Biso   1.000  I
  I8       1.0000 0.00000  0.26224  0.50000  Biso   1.000  I
  I9       1.0000 0.07109  0.07109  0.83333  Biso   1.000  I
  I10      1.0000 0.59557  0.33333  0.83333  Biso   1.000  I
  I11      1.0000 0.33333  0.59557  0.83333  Biso   1.000  I
  I12      1.0000 0.26224  0.00000  0.50000  Biso   1.000  I
  N1       1.0000 0.08450  0.73330  0.77430  Biso   1.000  N
  N2       1.0000 0.26670  0.35120  0.77430  Biso   1.000  N
  N3       1.0000 0.64880  0.91550  0.77430  Biso   1.000  N
  N4       1.0000 0.73330  0.08450  0.22570  Biso   1.000  N
  N5       1.0000 0.41783  0.06663  0.10763  Biso   1.000  N
  N6       1.0000 0.60003  0.68453  0.10763  Biso   1.000  N
  N7       1.0000 0.98213  0.24883  0.10763  Biso   1.000  N
  N8       1.0000 0.06663  0.41783  0.55903  Biso   1.000  N
  N9       1.0000 0.64880  0.73330  0.77430  Biso   1.000  N
  N10      1.0000 0.08450  0.35120  0.77430  Biso   1.000  N
  N11      1.0000 0.06663  0.98213  0.55903  Biso   1.000  N
  N12      1.0000 0.68453  0.41783  0.55903  Biso   1.000  N
  N13      1.0000 0.98213  0.06663  0.10763  Biso   1.000  N
  N14      1.0000 0.41783  0.68453  0.10763  Biso   1.000  N
  N15      1.0000 0.91550  0.26670  0.22570  Biso   1.000  N
  N16      1.0000 0.73330  0.64880  0.22570  Biso   1.000  N
  N17      1.0000 0.35120  0.08450  0.22570  Biso   1.000  N
  N18      1.0000 0.26670  0.91550  0.77430  Biso   1.000  N
  N19      1.0000 0.24883  0.60003  0.55903  Biso   1.000  N
  N20      1.0000 0.60003  0.24883  0.10763  Biso   1.000  N
  N21      1.0000 0.35120  0.26670  0.22570  Biso   1.000  N
  N22      1.0000 0.91550  0.64880  0.22570  Biso   1.000  N
  N23      1.0000 0.68453  0.60003  0.55903  Biso   1.000  N
  N24      1.0000 0.24883  0.98213  0.55903  Biso   1.000  N
  C1       1.0000 0.13680  0.76790  0.71920  Biso   1.000  C
  C2       1.0000 0.23210  0.36890  0.71920  Biso   1.000  C
  C3       1.0000 0.63110  0.86320  0.71920  Biso   1.000  C
  C4       1.0000 0.76790  0.13680  0.28080  Biso   1.000  C
  C5       1.0000 0.47013  0.10123  0.05253  Biso   1.000  C
  C6       1.0000 0.56543  0.70223  0.05253  Biso   1.000  C
  C7       1.0000 0.96443  0.19653  0.05253  Biso   1.000  C
  C8       1.0000 0.10123  0.47013  0.61413  Biso   1.000  C
  C9       1.0000 0.63110  0.76790  0.71920  Biso   1.000  C
  C10      1.0000 0.13680  0.36890  0.71920  Biso   1.000  C
  C11      1.0000 0.10123  0.96443  0.61413  Biso   1.000  C
  C12      1.0000 0.70223  0.47013  0.61413  Biso   1.000  C
  C13      1.0000 0.96443  0.10123  0.05253  Biso   1.000  C
  C14      1.0000 0.47013  0.70223  0.05253  Biso   1.000  C
  C15      1.0000 0.86320  0.23210  0.28080  Biso   1.000  C
  C16      1.0000 0.76790  0.63110  0.28080  Biso   1.000  C
  C17      1.0000 0.36890  0.13680  0.28080  Biso   1.000  C
  C18      1.0000 0.23210  0.86320  0.71920  Biso   1.000  C
  C19      1.0000 0.19653  0.56543  0.61413  Biso   1.000  C
  C20      1.0000 0.56543  0.19653  0.05253  Biso   1.000  C
  C21      1.0000 0.36890  0.23210  0.28080  Biso   1.000  C
  C22      1.0000 0.86320  0.63110  0.28080  Biso   1.000  C
  C23      1.0000 0.70223  0.56543  0.61413  Biso   1.000  C
  C24      1.0000 0.19653  0.96443  0.61413  Biso   1.000  C
  C25      1.0000 0.17570  0.82420  0.77600  Biso   1.000  C
  C26      1.0000 0.17580  0.35150  0.77600  Biso   1.000  C
  C27      1.0000 0.64850  0.82430  0.77600  Biso   1.000  C
  C28      1.0000 0.82420  0.17570  0.22400  Biso   1.000  C
  C29      1.0000 0.50903  0.15753  0.10933  Biso   1.000  C
  C30      1.0000 0.50913  0.68483  0.10933  Biso   1.000  C
  C31      1.0000 0.98183  0.15763  0.10933  Biso   1.000  C
  C32      1.0000 0.15753  0.50903  0.55733  Biso   1.000  C
  C33      1.0000 0.15753  0.98183  0.55733  Biso   1.000  C
  C34      1.0000 0.68483  0.50903  0.55733  Biso   1.000  C
  C35      1.0000 0.82420  0.64850  0.22400  Biso   1.000  C
  C36      1.0000 0.35150  0.17570  0.22400  Biso   1.000  C
  C37      1.0000 0.25220  0.84420  0.59200  Biso   1.000  C
  C38      1.0000 0.15580  0.40800  0.59200  Biso   1.000  C
  C39      1.0000 0.59200  0.74780  0.59200  Biso   1.000  C
  C40      1.0000 0.84420  0.25220  0.40800  Biso   1.000  C
  C41      1.0000 0.58553  0.17753  0.92533  Biso   1.000  C
  C42      1.0000 0.48913  0.74133  0.92533  Biso   1.000  C
  C43      1.0000 0.92533  0.08113  0.92533  Biso   1.000  C
  C44      1.0000 0.17753  0.58553  0.74133  Biso   1.000  C
  C45      1.0000 0.59200  0.84420  0.59200  Biso   1.000  C
  C46      1.0000 0.25220  0.40800  0.59200  Biso   1.000  C
  C47      1.0000 0.17753  0.92533  0.74133  Biso   1.000  C
  C48      1.0000 0.74133  0.58553  0.74133  Biso   1.000  C
  C49      1.0000 0.92533  0.17753  0.92533  Biso   1.000  C
  C50      1.0000 0.58553  0.74133  0.92533  Biso   1.000  C
  C51      1.0000 0.74780  0.15580  0.40800  Biso   1.000  C
  C52      1.0000 0.84420  0.59200  0.40800  Biso   1.000  C
  C53      1.0000 0.40800  0.25220  0.40800  Biso   1.000  C
  C54      1.0000 0.15580  0.74780  0.59200  Biso   1.000  C
  C55      1.0000 0.08113  0.48913  0.74133  Biso   1.000  C
  C56      1.0000 0.48913  0.08113  0.92533  Biso   1.000  C
  C57      1.0000 0.40800  0.15580  0.40800  Biso   1.000  C
  C58      1.0000 0.74780  0.59200  0.40800  Biso   1.000  C
  C59      1.0000 0.74133  0.48913  0.74133  Biso   1.000  C
  C60      1.0000 0.08113  0.92533  0.74133  Biso   1.000  C
  C61      1.0000 0.23220  0.76770  0.41410  Biso   1.000  C
  C62      1.0000 0.23230  0.46450  0.41410  Biso   1.000  C
  C63      1.0000 0.53550  0.76780  0.41410  Biso   1.000  C
  C64      1.0000 0.76770  0.23220  0.58590  Biso   1.000  C
  C65      1.0000 0.56553  0.10103  0.74743  Biso   1.000  C
  C66      1.0000 0.56563  0.79783  0.74743  Biso   1.000  C
  C67      1.0000 0.86883  0.10113  0.74743  Biso   1.000  C
  C68      1.0000 0.10103  0.56553  0.91923  Biso   1.000  C
  C69      1.0000 0.10103  0.86883  0.91923  Biso   1.000  C
  C70      1.0000 0.79783  0.56553  0.91923  Biso   1.000  C
  C71      1.0000 0.76770  0.53550  0.58590  Biso   1.000  C
  C72      1.0000 0.46450  0.23220  0.58590  Biso   1.000  C
  C73      1.0000 0.22060  0.44110  0.56900  Biso   1.000  C
  C74      1.0000 0.55890  0.77950  0.56900  Biso   1.000  C
  C75      1.0000 0.22050  0.77940  0.56900  Biso   1.000  C
  C76      1.0000 0.44110  0.22060  0.43100  Biso   1.000  C
  C77      1.0000 0.55393  0.77443  0.90233  Biso   1.000  C
  C78      1.0000 0.89223  0.11283  0.90233  Biso   1.000  C
  C79      1.0000 0.55383  0.11273  0.90233  Biso   1.000  C
  C80      1.0000 0.77443  0.55393  0.76433  Biso   1.000  C
  C81      1.0000 0.11283  0.55393  0.76433  Biso   1.000  C
  C82      1.0000 0.77940  0.55890  0.43100  Biso   1.000  C
  C83      1.0000 0.77950  0.22060  0.43100  Biso   1.000  C
  C84      1.0000 0.11273  0.89223  0.76433  Biso   1.000  C
  C85      1.0000 0.20400  0.79590  0.51320  Biso   1.000  C
  C86      1.0000 0.20410  0.40810  0.51320  Biso   1.000  C
  C87      1.0000 0.59190  0.79600  0.51320  Biso   1.000  C
  C88      1.0000 0.79590  0.20400  0.48680  Biso   1.000  C
  C89      1.0000 0.53733  0.12923  0.84653  Biso   1.000  C
  C90      1.0000 0.53743  0.74143  0.84653  Biso   1.000  C
  C91      1.0000 0.92523  0.12933  0.84653  Biso   1.000  C
  C92      1.0000 0.12923  0.53733  0.82013  Biso   1.000  C
  C93      1.0000 0.12923  0.92523  0.82013  Biso   1.000  C
  C94      1.0000 0.74143  0.53733  0.82013  Biso   1.000  C
  C95      1.0000 0.79590  0.59190  0.48680  Biso   1.000  C
  C96      1.0000 0.40810  0.20400  0.48680  Biso   1.000  C
  C97      1.0000 0.17530  0.82480  0.43100  Biso   1.000  C
  C98      1.0000 0.17520  0.35050  0.43100  Biso   1.000  C
  C99      1.0000 0.64950  0.82470  0.43100  Biso   1.000  C
  C100     1.0000 0.82480  0.17530  0.56900  Biso   1.000  C
  C101     1.0000 0.50863  0.15813  0.76433  Biso   1.000  C
  C102     1.0000 0.50853  0.68383  0.76433  Biso   1.000  C
  C103     1.0000 0.98283  0.15803  0.76433  Biso   1.000  C
  C104     1.0000 0.15813  0.50863  0.90233  Biso   1.000  C
  C105     1.0000 0.15813  0.98283  0.90233  Biso   1.000  C
  C106     1.0000 0.68383  0.50863  0.90233  Biso   1.000  C
  C107     1.0000 0.82480  0.64950  0.56900  Biso   1.000  C
  C108     1.0000 0.35050  0.17530  0.56900  Biso   1.000  C
  C109     1.0000 0.24510  0.49020  0.68500  Biso   1.000  C
  C110     1.0000 0.50980  0.75490  0.68500  Biso   1.000  C
  C111     1.0000 0.24510  0.75490  0.68500  Biso   1.000  C
  C112     1.0000 0.49020  0.24510  0.31500  Biso   1.000  C
  C113     1.0000 0.57843  0.82353  0.01833  Biso   1.000  C
  C114     1.0000 0.84313  0.08823  0.01833  Biso   1.000  C
  C115     1.0000 0.57843  0.08823  0.01833  Biso   1.000  C
  C116     1.0000 0.82353  0.57843  0.64833  Biso   1.000  C
  C117     1.0000 0.08823  0.57843  0.64833  Biso   1.000  C
  C118     1.0000 0.75490  0.50980  0.31500  Biso   1.000  C
  C119     1.0000 0.75490  0.24510  0.31500  Biso   1.000  C
  C120     1.0000 0.08823  0.84313  0.64833  Biso   1.000  C
  C121     1.0000 0.24830  0.49650  0.89600  Biso   1.000  C
  C122     1.0000 0.50350  0.75180  0.89600  Biso   1.000  C
  C123     1.0000 0.24820  0.75170  0.89600  Biso   1.000  C
  C124     1.0000 0.49650  0.24830  0.10400  Biso   1.000  C
  C125     1.0000 0.58163  0.82983  0.22933  Biso   1.000  C
  C126     1.0000 0.83683  0.08513  0.22933  Biso   1.000  C
  C127     1.0000 0.58153  0.08503  0.22933  Biso   1.000  C
  C128     1.0000 0.82983  0.58163  0.43733  Biso   1.000  C
  C129     1.0000 0.08513  0.58163  0.43733  Biso   1.000  C
  C130     1.0000 0.75170  0.50350  0.10400  Biso   1.000  C
  C131     1.0000 0.75180  0.24830  0.10400  Biso   1.000  C
  C132     1.0000 0.08503  0.83683  0.43733  Biso   1.000  C
  Cl1      1.0000 0.26020  0.47140  0.02400  Biso   1.000  Cl
  Cl2      1.0000 0.52860  0.78880  0.02400  Biso   1.000  Cl
  Cl3      1.0000 0.21120  0.73980  0.02400  Biso   1.000  Cl
  Cl4      1.0000 0.47140  0.26020  0.97600  Biso   1.000  Cl
  Cl5      1.0000 0.59353  0.80473  0.35733  Biso   1.000  Cl
  Cl6      1.0000 0.86193  0.12213  0.35733  Biso   1.000  Cl
  Cl7      1.0000 0.54453  0.07313  0.35733  Biso   1.000  Cl
  Cl8      1.0000 0.80473  0.59353  0.30933  Biso   1.000  Cl
  Cl9      1.0000 0.21120  0.47140  0.02400  Biso   1.000  Cl
  Cl10     1.0000 0.26020  0.78880  0.02400  Biso   1.000  Cl
  Cl11     1.0000 0.80473  0.54453  0.30933  Biso   1.000  Cl
  Cl12     1.0000 0.12213  0.59353  0.30933  Biso   1.000  Cl
  Cl13     1.0000 0.54453  0.80473  0.35733  Biso   1.000  Cl
  Cl14     1.0000 0.59353  0.12213  0.35733  Biso   1.000  Cl
  Cl15     1.0000 0.73980  0.52860  0.97600  Biso   1.000  Cl
  Cl16     1.0000 0.47140  0.21120  0.97600  Biso   1.000  Cl
  Cl17     1.0000 0.78880  0.26020  0.97600  Biso   1.000  Cl
  Cl18     1.0000 0.52860  0.73980  0.02400  Biso   1.000  Cl
  Cl19     1.0000 0.07313  0.86193  0.30933  Biso   1.000  Cl
  Cl20     1.0000 0.86193  0.07313  0.35733  Biso   1.000  Cl
  Cl21     1.0000 0.78880  0.52860  0.97600  Biso   1.000  Cl
  Cl22     1.0000 0.73980  0.21120  0.97600  Biso   1.000  Cl
  Cl23     1.0000 0.12213  0.86193  0.30933  Biso   1.000  Cl
  Cl24     1.0000 0.07313  0.54453  0.30933  Biso   1.000  Cl
  Cl25     1.0000 0.27910  0.55820  0.81900  Biso   1.000  Cl
  Cl26     1.0000 0.44180  0.72090  0.81900  Biso   1.000  Cl
  Cl27     1.0000 0.27910  0.72090  0.81900  Biso   1.000  Cl
  Cl28     1.0000 0.55820  0.27910  0.18100  Biso   1.000  Cl
  Cl29     1.0000 0.61243  0.89153  0.15233  Biso   1.000  Cl
  Cl30     1.0000 0.77513  0.05423  0.15233  Biso   1.000  Cl
  Cl31     1.0000 0.61243  0.05423  0.15233  Biso   1.000  Cl
  Cl32     1.0000 0.89153  0.61243  0.51433  Biso   1.000  Cl
  Cl33     1.0000 0.05423  0.61243  0.51433  Biso   1.000  Cl
  Cl34     1.0000 0.72090  0.44180  0.18100  Biso   1.000  Cl
  Cl35     1.0000 0.72090  0.27910  0.18100  Biso   1.000  Cl
  Cl36     1.0000 0.05423  0.77513  0.51433  Biso   1.000  Cl
  I13      1.0000 0.07109  0.66667  0.16667  Biso   1.000  I
  I14      1.0000 0.33333  0.40442  0.16667  Biso   1.000  I
  I15      1.0000 0.59558  0.92891  0.16667  Biso   1.000  I
  I16      1.0000 0.66667  0.07109  0.83333  Biso   1.000  I
  I17      1.0000 0.40442  0.00000  0.50000  Biso   1.000  I
  I18      1.0000 0.66667  0.73776  0.50000  Biso   1.000  I
  I19      1.0000 0.92891  0.26224  0.50000  Biso   1.000  I
  I20      1.0000 0.00000  0.40442  0.16666  Biso   1.000  I
  I21      1.0000 0.59558  0.66667  0.16667  Biso   1.000  I
  I22      1.0000 0.07109  0.40442  0.16667  Biso   1.000  I
  I23      1.0000 0.00000  0.92891  0.16666  Biso   1.000  I
  I24      1.0000 0.73776  0.40442  0.16666  Biso   1.000  I
  I25      1.0000 0.92891  0.00000  0.50000  Biso   1.000  I
  I26      1.0000 0.40442  0.73776  0.50000  Biso   1.000  I
  I27      1.0000 0.92891  0.33333  0.83333  Biso   1.000  I
  I28      1.0000 0.66667  0.59558  0.83333  Biso   1.000  I
  I29      1.0000 0.40442  0.07109  0.83333  Biso   1.000  I
  I30      1.0000 0.33333  0.92891  0.16667  Biso   1.000  I
  I31      1.0000 0.26224  0.66667  0.16666  Biso   1.000  I
  I32      1.0000 0.66667  0.26224  0.50000  Biso   1.000  I
  I33      1.0000 0.40442  0.33333  0.83333  Biso   1.000  I
  I34      1.0000 0.92891  0.59558  0.83333  Biso   1.000  I
  I35      1.0000 0.73776  0.66667  0.16666  Biso   1.000  I
  I36      1.0000 0.26224  0.92891  0.16666  Biso   1.000  I
  N25      1.0000 0.01787  0.60003  0.55903  Biso   1.000  N
  N26      1.0000 0.39997  0.41783  0.55903  Biso   1.000  N
  N27      1.0000 0.58217  0.98213  0.55903  Biso   1.000  N
  N28      1.0000 0.60003  0.01787  0.44097  Biso   1.000  N
  N29      1.0000 0.35120  0.93337  0.89237  Biso   1.000  N
  N30      1.0000 0.73330  0.75117  0.89237  Biso   1.000  N
  N31      1.0000 0.91550  0.31547  0.89237  Biso   1.000  N
  N32      1.0000 0.93337  0.35120  0.77430  Biso   1.000  N
  N33      1.0000 0.58217  0.60003  0.55903  Biso   1.000  N
  N34      1.0000 0.01787  0.41783  0.55903  Biso   1.000  N
  N35      1.0000 0.93337  0.91550  0.77430  Biso   1.000  N
  N36      1.0000 0.75117  0.35120  0.77430  Biso   1.000  N
  N37      1.0000 0.91550  0.93337  0.89237  Biso   1.000  N
  N38      1.0000 0.35120  0.75117  0.89237  Biso   1.000  N
  N39      1.0000 0.98213  0.39997  0.44097  Biso   1.000  N
  N40      1.0000 0.60003  0.58217  0.44097  Biso   1.000  N
  N41      1.0000 0.41783  0.01787  0.44097  Biso   1.000  N
  N42      1.0000 0.39997  0.98213  0.55903  Biso   1.000  N
  N43      1.0000 0.31547  0.73330  0.77430  Biso   1.000  N
  N44      1.0000 0.73330  0.31547  0.89237  Biso   1.000  N
  N45      1.0000 0.41783  0.39997  0.44097  Biso   1.000  N
  N46      1.0000 0.98213  0.58217  0.44097  Biso   1.000  N
  N47      1.0000 0.75117  0.73330  0.77430  Biso   1.000  N
  N48      1.0000 0.31547  0.91550  0.77430  Biso   1.000  N
  N49      1.0000 0.06663  0.75117  0.89237  Biso   1.000  N
  N50      1.0000 0.24883  0.31547  0.89237  Biso   1.000  N
  N51      1.0000 0.68453  0.93337  0.89237  Biso   1.000  N
  N52      1.0000 0.75117  0.06663  0.10763  Biso   1.000  N
  N53      1.0000 0.39997  0.08450  0.22570  Biso   1.000  N
  N54      1.0000 0.58217  0.64880  0.22570  Biso   1.000  N
  N55      1.0000 0.01787  0.26670  0.22570  Biso   1.000  N
  N56      1.0000 0.08450  0.39997  0.44097  Biso   1.000  N
  N57      1.0000 0.68453  0.75117  0.89237  Biso   1.000  N
  N58      1.0000 0.06663  0.31547  0.89237  Biso   1.000  N
  N59      1.0000 0.08450  0.01787  0.44097  Biso   1.000  N
  N60      1.0000 0.64880  0.39997  0.44097  Biso   1.000  N
  N61      1.0000 0.01787  0.08450  0.22570  Biso   1.000  N
  N62      1.0000 0.39997  0.64880  0.22570  Biso   1.000  N
  N63      1.0000 0.93337  0.24883  0.10763  Biso   1.000  N
  N64      1.0000 0.75117  0.68453  0.10763  Biso   1.000  N
  N65      1.0000 0.31547  0.06663  0.10763  Biso   1.000  N
  N66      1.0000 0.24883  0.93337  0.89237  Biso   1.000  N
  N67      1.0000 0.26670  0.58217  0.44097  Biso   1.000  N
  N68      1.0000 0.58217  0.26670  0.22570  Biso   1.000  N
  N69      1.0000 0.31547  0.24883  0.10763  Biso   1.000  N
  N70      1.0000 0.93337  0.68453  0.10763  Biso   1.000  N
  N71      1.0000 0.64880  0.58217  0.44097  Biso   1.000  N
  N72      1.0000 0.26670  0.01787  0.44097  Biso   1.000  N
  C133     1.0000 0.15753  0.84237  0.89067  Biso   1.000  C
  C134     1.0000 0.15763  0.31517  0.89067  Biso   1.000  C
  C135     1.0000 0.68483  0.84247  0.89067  Biso   1.000  C
  C136     1.0000 0.84237  0.15753  0.10933  Biso   1.000  C
  C137     1.0000 0.49087  0.17570  0.22400  Biso   1.000  C
  C138     1.0000 0.49097  0.64850  0.22400  Biso   1.000  C
  C139     1.0000 0.01817  0.17580  0.22400  Biso   1.000  C
  C140     1.0000 0.17570  0.49087  0.44267  Biso   1.000  C
  C141     1.0000 0.17570  0.01817  0.44267  Biso   1.000  C
  C142     1.0000 0.64850  0.49087  0.44267  Biso   1.000  C
  C143     1.0000 0.84237  0.68483  0.10933  Biso   1.000  C
  C144     1.0000 0.31517  0.15753  0.10933  Biso   1.000  C
  C145     1.0000 0.19653  0.89877  0.94747  Biso   1.000  C
  C146     1.0000 0.10123  0.29777  0.94747  Biso   1.000  C
  C147     1.0000 0.70223  0.80347  0.94747  Biso   1.000  C
  C148     1.0000 0.89877  0.19653  0.05253  Biso   1.000  C
  C149     1.0000 0.52987  0.23210  0.28080  Biso   1.000  C
  C150     1.0000 0.43457  0.63110  0.28080  Biso   1.000  C
  C151     1.0000 0.03557  0.13680  0.28080  Biso   1.000  C
  C152     1.0000 0.23210  0.52987  0.38587  Biso   1.000  C
  C153     1.0000 0.70223  0.89877  0.94747  Biso   1.000  C
  C154     1.0000 0.19653  0.29777  0.94747  Biso   1.000  C
  C155     1.0000 0.23210  0.03557  0.38587  Biso   1.000  C
  C156     1.0000 0.63110  0.52987  0.38587  Biso   1.000  C
  C157     1.0000 0.03557  0.23210  0.28080  Biso   1.000  C
  C158     1.0000 0.52987  0.63110  0.28080  Biso   1.000  C
  C159     1.0000 0.80347  0.10123  0.05253  Biso   1.000  C
  C160     1.0000 0.89877  0.70223  0.05253  Biso   1.000  C
  C161     1.0000 0.29777  0.19653  0.05253  Biso   1.000  C
  C162     1.0000 0.10123  0.80347  0.94747  Biso   1.000  C
  C163     1.0000 0.13680  0.43457  0.38587  Biso   1.000  C
  C164     1.0000 0.43457  0.13680  0.28080  Biso   1.000  C
  C165     1.0000 0.29777  0.10123  0.05253  Biso   1.000  C
  C166     1.0000 0.80347  0.70223  0.05253  Biso   1.000  C
  C167     1.0000 0.63110  0.43457  0.38587  Biso   1.000  C
  C168     1.0000 0.13680  0.03557  0.38587  Biso   1.000  C
  Cu25     1.0000 0.31714  0.00000  0.00003  Biso   1.000  Cu
  Cu26     1.0000 1.00000  0.31713  0.00003  Biso   1.000  Cu
  Cu27     1.0000 0.68287  0.68286  0.00003  Biso   1.000  Cu
  Cu28     1.0000 0.65047  0.33334  0.33336  Biso   1.000  Cu
  Cu29     1.0000 0.33333  0.65047  0.33336  Biso   1.000  Cu
  Cu30     1.0000 0.01620  0.01620  0.33336  Biso   1.000  Cu
  Cu31     1.0000 0.68287  0.00000  0.00003  Biso   1.000  Cu
  Cu32     1.0000 0.31714  0.31713  0.00003  Biso   1.000  Cu
  Cu33     1.0000 0.33334  0.01620  0.33330  Biso   1.000  Cu
  Cu34     1.0000 0.65047  0.65047  0.33330  Biso   1.000  Cu
  Cu35     1.0000 0.01620  0.33334  0.33336  Biso   1.000  Cu
  Cu36     1.0000 0.00000  0.68287  0.99997  Biso   1.000  Cu
  C169     1.0000 0.17753  0.91887  0.07467  Biso   1.000  C
  C170     1.0000 0.08113  0.25867  0.07467  Biso   1.000  C
  C171     1.0000 0.74133  0.82247  0.07467  Biso   1.000  C
  C172     1.0000 0.91887  0.17753  0.92533  Biso   1.000  C
  C173     1.0000 0.51087  0.25220  0.40800  Biso   1.000  C
  C174     1.0000 0.41447  0.59200  0.40800  Biso   1.000  C
  C175     1.0000 0.07467  0.15580  0.40800  Biso   1.000  C
  C176     1.0000 0.25220  0.51087  0.25867  Biso   1.000  C
  C177     1.0000 0.74133  0.91887  0.07467  Biso   1.000  C
  C178     1.0000 0.17753  0.25867  0.07467  Biso   1.000  C
  C179     1.0000 0.25220  0.07467  0.25867  Biso   1.000  C
  C180     1.0000 0.59200  0.51087  0.25867  Biso   1.000  C
  C181     1.0000 0.07467  0.25220  0.40800  Biso   1.000  C
  C182     1.0000 0.51087  0.59200  0.40800  Biso   1.000  C
  C183     1.0000 0.82247  0.08113  0.92533  Biso   1.000  C
  C184     1.0000 0.91887  0.74133  0.92533  Biso   1.000  C
  C185     1.0000 0.25867  0.17753  0.92533  Biso   1.000  C
  C186     1.0000 0.08113  0.82247  0.07467  Biso   1.000  C
  C187     1.0000 0.15580  0.41447  0.25867  Biso   1.000  C
  C188     1.0000 0.41447  0.15580  0.40800  Biso   1.000  C
  C189     1.0000 0.25867  0.08113  0.92533  Biso   1.000  C
  C190     1.0000 0.82247  0.74133  0.92533  Biso   1.000  C
  C191     1.0000 0.59200  0.41447  0.25867  Biso   1.000  C
  C192     1.0000 0.15580  0.07467  0.25867  Biso   1.000  C
  C193     1.0000 0.12923  0.87067  0.15347  Biso   1.000  C
  C194     1.0000 0.12933  0.25857  0.15347  Biso   1.000  C
  C195     1.0000 0.74143  0.87077  0.15347  Biso   1.000  C
  C196     1.0000 0.87067  0.12923  0.84653  Biso   1.000  C
  C197     1.0000 0.46257  0.20400  0.48680  Biso   1.000  C
  C198     1.0000 0.46267  0.59190  0.48680  Biso   1.000  C
  C199     1.0000 0.07477  0.20410  0.48680  Biso   1.000  C
  C200     1.0000 0.20400  0.46257  0.17987  Biso   1.000  C
  C201     1.0000 0.20400  0.07477  0.17987  Biso   1.000  C
  C202     1.0000 0.59190  0.46257  0.17987  Biso   1.000  C
  C203     1.0000 0.87067  0.74143  0.84653  Biso   1.000  C
  C204     1.0000 0.25857  0.12923  0.84653  Biso   1.000  C
  C205     1.0000 0.10103  0.89887  0.25257  Biso   1.000  C
  C206     1.0000 0.10113  0.20217  0.25257  Biso   1.000  C
  C207     1.0000 0.79783  0.89897  0.25257  Biso   1.000  C
  C208     1.0000 0.89887  0.10103  0.74743  Biso   1.000  C
  C209     1.0000 0.43437  0.23220  0.58590  Biso   1.000  C
  C210     1.0000 0.43447  0.53550  0.58590  Biso   1.000  C
  C211     1.0000 0.13117  0.23230  0.58590  Biso   1.000  C
  C212     1.0000 0.23220  0.43437  0.08077  Biso   1.000  C
  C213     1.0000 0.23220  0.13117  0.08077  Biso   1.000  C
  C214     1.0000 0.53550  0.43437  0.08077  Biso   1.000  C
  C215     1.0000 0.89887  0.79783  0.74743  Biso   1.000  C
  C216     1.0000 0.20217  0.10103  0.74743  Biso   1.000  C
  C217     1.0000 0.15813  0.84197  0.23567  Biso   1.000  C
  C218     1.0000 0.15803  0.31617  0.23567  Biso   1.000  C
  C219     1.0000 0.68383  0.84187  0.23567  Biso   1.000  C
  C220     1.0000 0.84197  0.15813  0.76433  Biso   1.000  C
  C221     1.0000 0.49147  0.17530  0.56900  Biso   1.000  C
  C222     1.0000 0.49137  0.64950  0.56900  Biso   1.000  C
  C223     1.0000 0.01717  0.17520  0.56900  Biso   1.000  C
  C224     1.0000 0.17530  0.49147  0.09767  Biso   1.000  C
  C225     1.0000 0.17530  0.01717  0.09767  Biso   1.000  C
  C226     1.0000 0.64950  0.49147  0.09767  Biso   1.000  C
  C227     1.0000 0.84197  0.68383  0.76433  Biso   1.000  C
  C228     1.0000 0.31617  0.15813  0.76433  Biso   1.000  C
