data_image0
_cell_length_a       10.192
_cell_length_b       16.512
_cell_length_c       10.833
_cell_angle_alpha    90
_cell_angle_beta     99.621
_cell_angle_gamma    90

_symmetry_space_group_name_H-M    "P 1"
_symmetry_int_tables_number       1

loop_
  _symmetry_equiv_pos_as_xyz
  'x, y, z'

loop_
  _atom_site_label
  _atom_site_occupancy
  _atom_site_fract_x
  _atom_site_fract_y
  _atom_site_fract_z
  _atom_site_thermal_displace_type
  _atom_site_B_iso_or_equiv
  _atom_site_type_symbol
  Br1      1.0000 0.55421  0.00802  0.33193  Biso   1.000  Br
  Br2      1.0000 0.55421  0.49198  0.83193  Biso   1.000  Br
  Br3      1.0000 0.44579  0.99198  0.66807  Biso   1.000  Br
  Br4      1.0000 0.44579  0.50802  0.16807  Biso   1.000  Br
  Cu1      1.0000 0.57336  0.07502  0.53717  Biso   1.000  Cu
  Cu2      1.0000 0.57336  0.42498  0.03717  Biso   1.000  Cu
  Cu3      1.0000 0.42664  0.92498  0.46283  Biso   1.000  Cu
  Cu4      1.0000 0.42664  0.57502  0.96283  Biso   1.000  Cu
  P1       1.0000 0.48585  0.19703  0.51309  Biso   1.000  P
  P2       1.0000 0.48585  0.30297  0.01309  Biso   1.000  P
  P3       1.0000 0.51415  0.80297  0.48691  Biso   1.000  P
  P4       1.0000 0.51415  0.69703  0.98691  Biso   1.000  P
  P5       1.0000 0.77754  0.45230  0.13507  Biso   1.000  P
  P6       1.0000 0.77754  0.04770  0.63507  Biso   1.000  P
  P7       1.0000 0.22246  0.54770  0.86493  Biso   1.000  P
  P8       1.0000 0.22246  0.95230  0.36493  Biso   1.000  P
  O1       1.0000 0.58310  0.26780  0.57420  Biso   1.000  O
  O2       1.0000 0.58310  0.23220  0.07420  Biso   1.000  O
  O3       1.0000 0.41690  0.73220  0.42580  Biso   1.000  O
  O4       1.0000 0.41690  0.76780  0.92580  Biso   1.000  O
  O5       1.0000 0.35410  0.21540  0.57080  Biso   1.000  O
  O6       1.0000 0.35410  0.28460  0.07080  Biso   1.000  O
  O7       1.0000 0.64590  0.78460  0.42920  Biso   1.000  O
  O8       1.0000 0.64590  0.71540  0.92920  Biso   1.000  O
  O9       1.0000 0.44440  0.22880  0.37350  Biso   1.000  O
  O10      1.0000 0.44440  0.27120  0.87350  Biso   1.000  O
  O11      1.0000 0.55560  0.77120  0.62650  Biso   1.000  O
  O12      1.0000 0.55560  0.72880  0.12650  Biso   1.000  O
  O13      1.0000 0.20430  0.43180  0.40290  Biso   1.000  O
  O14      1.0000 0.20430  0.06820  0.90290  Biso   1.000  O
  O15      1.0000 0.79570  0.56820  0.59710  Biso   1.000  O
  O16      1.0000 0.79570  0.93180  0.09710  Biso   1.000  O
  O17      1.0000 0.90140  0.40660  0.09190  Biso   1.000  O
  O18      1.0000 0.90140  0.09340  0.59190  Biso   1.000  O
  O19      1.0000 0.09860  0.59340  0.90810  Biso   1.000  O
  O20      1.0000 0.09860  0.90660  0.40810  Biso   1.000  O
  O21      1.0000 0.82560  0.54490  0.13390  Biso   1.000  O
  O22      1.0000 0.82560  0.95510  0.63390  Biso   1.000  O
  O23      1.0000 0.17440  0.45510  0.86610  Biso   1.000  O
  O24      1.0000 0.17440  0.04490  0.36610  Biso   1.000  O
  O25      1.0000 0.80020  0.43310  0.28100  Biso   1.000  O
  O26      1.0000 0.80020  0.06690  0.78100  Biso   1.000  O
  O27      1.0000 0.19980  0.56690  0.71900  Biso   1.000  O
  O28      1.0000 0.19980  0.93310  0.21900  Biso   1.000  O
  N1       1.0000 0.93690  0.29260  0.54900  Biso   1.000  N
  N2       1.0000 0.93690  0.20740  0.04900  Biso   1.000  N
  N3       1.0000 0.06310  0.70740  0.45100  Biso   1.000  N
  N4       1.0000 0.06310  0.79260  0.95100  Biso   1.000  N
  C1       1.0000 0.53500  0.35010  0.55040  Biso   1.000  C
  C2       1.0000 0.53500  0.14990  0.05040  Biso   1.000  C
  C3       1.0000 0.46500  0.64990  0.44960  Biso   1.000  C
  C4       1.0000 0.46500  0.85010  0.94960  Biso   1.000  C
  H1       1.0000 0.58870  0.37770  0.49750  Biso   1.000  H
  H2       1.0000 0.58870  0.12230  0.99750  Biso   1.000  H
  H3       1.0000 0.41130  0.62230  0.50250  Biso   1.000  H
  H4       1.0000 0.41130  0.87770  0.00250  Biso   1.000  H
  H5       1.0000 0.54260  0.37940  0.62890  Biso   1.000  H
  H6       1.0000 0.54260  0.12060  0.12890  Biso   1.000  H
  H7       1.0000 0.45740  0.62060  0.37110  Biso   1.000  H
  H8       1.0000 0.45740  0.87940  0.87110  Biso   1.000  H
  C5       1.0000 0.30740  0.29880  0.56540  Biso   1.000  C
  C6       1.0000 0.30740  0.20120  0.06540  Biso   1.000  C
  C7       1.0000 0.69260  0.70120  0.43460  Biso   1.000  C
  C8       1.0000 0.69260  0.79880  0.93460  Biso   1.000  C
  H9       1.0000 0.31780  0.32120  0.64920  Biso   1.000  H
  H10      1.0000 0.31780  0.17880  0.14920  Biso   1.000  H
  H11      1.0000 0.68220  0.67880  0.35080  Biso   1.000  H
  H12      1.0000 0.68220  0.82120  0.85080  Biso   1.000  H
  H13      1.0000 0.21380  0.30070  0.52900  Biso   1.000  H
  H14      1.0000 0.21380  0.19930  0.02900  Biso   1.000  H
  H15      1.0000 0.78620  0.69930  0.47100  Biso   1.000  H
  H16      1.0000 0.78620  0.80070  0.97100  Biso   1.000  H
  C9       1.0000 0.38050  0.30870  0.35900  Biso   1.000  C
  C10      1.0000 0.38050  0.19130  0.85900  Biso   1.000  C
  C11      1.0000 0.61950  0.69130  0.64100  Biso   1.000  C
  C12      1.0000 0.61950  0.80870  0.14100  Biso   1.000  C
  H17      1.0000 0.28800  0.30280  0.32040  Biso   1.000  H
  H18      1.0000 0.28800  0.19720  0.82040  Biso   1.000  H
  H19      1.0000 0.71200  0.69720  0.67960  Biso   1.000  H
  H20      1.0000 0.71200  0.80280  0.17960  Biso   1.000  H
  H21      1.0000 0.42450  0.34240  0.30500  Biso   1.000  H
  H22      1.0000 0.42450  0.15760  0.80500  Biso   1.000  H
  H23      1.0000 0.57550  0.65760  0.69500  Biso   1.000  H
  H24      1.0000 0.57550  0.84240  0.19500  Biso   1.000  H
  C13      1.0000 0.38850  0.34860  0.48550  Biso   1.000  C
  C14      1.0000 0.38850  0.15140  0.98550  Biso   1.000  C
  C15      1.0000 0.61150  0.65140  0.51450  Biso   1.000  C
  C16      1.0000 0.61150  0.84860  0.01450  Biso   1.000  C
  C17      1.0000 0.33640  0.43580  0.46930  Biso   1.000  C
  C18      1.0000 0.33640  0.06420  0.96930  Biso   1.000  C
  C19      1.0000 0.66360  0.56420  0.53070  Biso   1.000  C
  C20      1.0000 0.66360  0.93580  0.03070  Biso   1.000  C
  H25      1.0000 0.33750  0.46100  0.55040  Biso   1.000  H
  H26      1.0000 0.33750  0.03900  0.05040  Biso   1.000  H
  H27      1.0000 0.66250  0.53900  0.44960  Biso   1.000  H
  H28      1.0000 0.66250  0.96100  0.94960  Biso   1.000  H
  H29      1.0000 0.39170  0.46760  0.42280  Biso   1.000  H
  H30      1.0000 0.39170  0.03240  0.92280  Biso   1.000  H
  H31      1.0000 0.60830  0.53240  0.57720  Biso   1.000  H
  H32      1.0000 0.60830  0.96760  0.07720  Biso   1.000  H
  C21      1.0000 0.15720  0.50450  0.33900  Biso   1.000  C
  C22      1.0000 0.15720  0.99550  0.83900  Biso   1.000  C
  C23      1.0000 0.84280  0.49550  0.66100  Biso   1.000  C
  C24      1.0000 0.84280  0.00450  0.16100  Biso   1.000  C
  H33      1.0000 0.21740  0.52150  0.28350  Biso   1.000  H
  H34      1.0000 0.21740  0.97850  0.78350  Biso   1.000  H
  H35      1.0000 0.78260  0.47850  0.71650  Biso   1.000  H
  H36      1.0000 0.78260  0.02150  0.21650  Biso   1.000  H
  H37      1.0000 0.15110  0.54760  0.39870  Biso   1.000  H
  H38      1.0000 0.15110  0.95240  0.89870  Biso   1.000  H
  H39      1.0000 0.84890  0.45240  0.60130  Biso   1.000  H
  H40      1.0000 0.84890  0.04760  0.10130  Biso   1.000  H
  C25      1.0000 0.02160  0.48610  0.26500  Biso   1.000  C
  C26      1.0000 0.02160  0.01390  0.76500  Biso   1.000  C
  C27      1.0000 0.97840  0.51390  0.73500  Biso   1.000  C
  C28      1.0000 0.97840  0.98610  0.23500  Biso   1.000  C
  C29      1.0000 0.02890  0.41670  0.17350  Biso   1.000  C
  C30      1.0000 0.02890  0.08330  0.67350  Biso   1.000  C
  C31      1.0000 0.97110  0.58330  0.82650  Biso   1.000  C
  C32      1.0000 0.97110  0.91670  0.32650  Biso   1.000  C
  H41      1.0000 0.09730  0.42800  0.12350  Biso   1.000  H
  H42      1.0000 0.09730  0.07200  0.62350  Biso   1.000  H
  H43      1.0000 0.90270  0.57200  0.87650  Biso   1.000  H
  H44      1.0000 0.90270  0.92800  0.37650  Biso   1.000  H
  H45      1.0000 0.05240  0.36700  0.21960  Biso   1.000  H
  H46      1.0000 0.05240  0.13300  0.71960  Biso   1.000  H
  H47      1.0000 0.94760  0.63300  0.78040  Biso   1.000  H
  H48      1.0000 0.94760  0.86700  0.28040  Biso   1.000  H
  C33      1.0000 0.96290  0.56070  0.19070  Biso   1.000  C
  C34      1.0000 0.96290  0.93930  0.69070  Biso   1.000  C
  C35      1.0000 0.03710  0.43930  0.80930  Biso   1.000  C
  C36      1.0000 0.03710  0.06070  0.30930  Biso   1.000  C
  H49      1.0000 0.96640  0.60700  0.24620  Biso   1.000  H
  H50      1.0000 0.96640  0.89300  0.74620  Biso   1.000  H
  H51      1.0000 0.03360  0.39300  0.75380  Biso   1.000  H
  H52      1.0000 0.03360  0.10700  0.25380  Biso   1.000  H
  H53      1.0000 0.01500  0.57320  0.12600  Biso   1.000  H
  H54      1.0000 0.01500  0.92680  0.62600  Biso   1.000  H
  H55      1.0000 0.98500  0.42680  0.87400  Biso   1.000  H
  H56      1.0000 0.98500  0.07320  0.37400  Biso   1.000  H
  C37      1.0000 0.92500  0.46310  0.35280  Biso   1.000  C
  C38      1.0000 0.92500  0.03690  0.85280  Biso   1.000  C
  C39      1.0000 0.07500  0.53690  0.64720  Biso   1.000  C
  C40      1.0000 0.07500  0.96310  0.14720  Biso   1.000  C
  H57      1.0000 0.96460  0.42150  0.41050  Biso   1.000  H
  H58      1.0000 0.96460  0.07850  0.91050  Biso   1.000  H
  H59      1.0000 0.03540  0.57850  0.58950  Biso   1.000  H
  H60      1.0000 0.03540  0.92150  0.08950  Biso   1.000  H
  H61      1.0000 0.90730  0.51000  0.40130  Biso   1.000  H
  H62      1.0000 0.90730  0.99000  0.90130  Biso   1.000  H
  H63      1.0000 0.09270  0.49000  0.59870  Biso   1.000  H
  H64      1.0000 0.09270  0.01000  0.09870  Biso   1.000  H
  C41      1.0000 0.87410  0.26540  0.46680  Biso   1.000  C
  C42      1.0000 0.87410  0.23460  0.96680  Biso   1.000  C
  C43      1.0000 0.12590  0.73460  0.53320  Biso   1.000  C
  C44      1.0000 0.12590  0.76540  0.03320  Biso   1.000  C
  C45      1.0000 0.79390  0.22920  0.35070  Biso   1.000  C
  C46      1.0000 0.79390  0.27080  0.85070  Biso   1.000  C
  C47      1.0000 0.20610  0.77080  0.64930  Biso   1.000  C
  C48      1.0000 0.20610  0.72920  0.14930  Biso   1.000  C
  H65      1.0000 0.84860  0.22380  0.28720  Biso   1.000  H
  H66      1.0000 0.84860  0.27620  0.78720  Biso   1.000  H
  H67      1.0000 0.15140  0.77620  0.71280  Biso   1.000  H
  H68      1.0000 0.15140  0.72380  0.21280  Biso   1.000  H
  H69      1.0000 0.71970  0.26390  0.32090  Biso   1.000  H
  H70      1.0000 0.71970  0.23610  0.82090  Biso   1.000  H
  H71      1.0000 0.28030  0.73610  0.67910  Biso   1.000  H
  H72      1.0000 0.28030  0.76390  0.17910  Biso   1.000  H
  H73      1.0000 0.76190  0.17690  0.37040  Biso   1.000  H
  H74      1.0000 0.76190  0.32310  0.87040  Biso   1.000  H
  H75      1.0000 0.23810  0.82310  0.62960  Biso   1.000  H
  H76      1.0000 0.23810  0.67690  0.12960  Biso   1.000  H
