data_image0
_cell_length_a       13.7541
_cell_length_b       7.2352
_cell_length_c       14.7958
_cell_angle_alpha    90
_cell_angle_beta     90
_cell_angle_gamma    90

_symmetry_space_group_name_H-M    "P 1"
_symmetry_int_tables_number       1

loop_
  _symmetry_equiv_pos_as_xyz
  'x, y, z'

loop_
  _atom_site_label
  _atom_site_occupancy
  _atom_site_fract_x
  _atom_site_fract_y
  _atom_site_fract_z
  _atom_site_thermal_displace_type
  _atom_site_B_iso_or_equiv
  _atom_site_type_symbol
  Cu1      1.0000 0.44733  0.28424  0.46851  Biso   1.000  Cu
  Cu2      1.0000 0.55267  0.71576  0.96851  Biso   1.000  Cu
  Cu3      1.0000 0.94733  0.71576  0.46851  Biso   1.000  Cu
  Cu4      1.0000 0.05267  0.28424  0.96851  Biso   1.000  Cu
  Cu5      1.0000 0.92767  0.46716  0.84958  Biso   1.000  Cu
  Cu6      1.0000 0.07233  0.53284  0.34958  Biso   1.000  Cu
  Cu7      1.0000 0.42767  0.53284  0.84958  Biso   1.000  Cu
  Cu8      1.0000 0.57233  0.46716  0.34958  Biso   1.000  Cu
  Cu9      1.0000 0.10985  0.93570  0.00562  Biso   1.000  Cu
  Cu10     1.0000 0.89015  0.06430  0.50562  Biso   1.000  Cu
  Cu11     1.0000 0.60985  0.06430  0.00562  Biso   1.000  Cu
  Cu12     1.0000 0.39015  0.93570  0.50562  Biso   1.000  Cu
  N1       1.0000 0.82800  0.42350  0.75450  Biso   1.000  N
  N2       1.0000 0.17200  0.57650  0.25450  Biso   1.000  N
  N3       1.0000 0.32800  0.57650  0.75450  Biso   1.000  N
  N4       1.0000 0.67200  0.42350  0.25450  Biso   1.000  N
  O1       1.0000 0.35610  0.23110  0.37910  Biso   1.000  O
  O2       1.0000 0.64390  0.76890  0.87910  Biso   1.000  O
  O3       1.0000 0.85610  0.76890  0.37910  Biso   1.000  O
  O4       1.0000 0.14390  0.23110  0.87910  Biso   1.000  O
  C1       1.0000 0.66680  0.33900  0.70640  Biso   1.000  C
  C2       1.0000 0.33320  0.66100  0.20640  Biso   1.000  C
  C3       1.0000 0.16680  0.66100  0.70640  Biso   1.000  C
  C4       1.0000 0.83320  0.33900  0.20640  Biso   1.000  C
  H1       1.0000 0.60410  0.30230  0.72140  Biso   1.000  H
  H2       1.0000 0.39590  0.69770  0.22140  Biso   1.000  H
  H3       1.0000 0.10410  0.69770  0.72140  Biso   1.000  H
  H4       1.0000 0.89590  0.30230  0.22140  Biso   1.000  H
  C5       1.0000 0.31910  0.16320  0.22710  Biso   1.000  C
  C6       1.0000 0.68090  0.83680  0.72710  Biso   1.000  C
  C7       1.0000 0.81910  0.83680  0.22710  Biso   1.000  C
  C8       1.0000 0.18090  0.16320  0.72710  Biso   1.000  C
  C9       1.0000 0.38960  0.22340  0.29950  Biso   1.000  C
  C10      1.0000 0.61040  0.77660  0.79950  Biso   1.000  C
  C11      1.0000 0.88960  0.77660  0.29950  Biso   1.000  C
  C12      1.0000 0.11040  0.22340  0.79950  Biso   1.000  C
  C13      1.0000 0.85210  0.44930  0.66790  Biso   1.000  C
  C14      1.0000 0.14790  0.55070  0.16790  Biso   1.000  C
  C15      1.0000 0.35210  0.55070  0.66790  Biso   1.000  C
  C16      1.0000 0.64790  0.44930  0.16790  Biso   1.000  C
  H5       1.0000 0.91500  0.48810  0.65460  Biso   1.000  H
  H6       1.0000 0.08500  0.51190  0.15460  Biso   1.000  H
  H7       1.0000 0.41500  0.51190  0.65460  Biso   1.000  H
  H8       1.0000 0.58500  0.48810  0.15460  Biso   1.000  H
  C17      1.0000 0.73600  0.36780  0.77320  Biso   1.000  C
  C18      1.0000 0.26400  0.63220  0.27320  Biso   1.000  C
  C19      1.0000 0.23600  0.63220  0.77320  Biso   1.000  C
  C20      1.0000 0.76400  0.36780  0.27320  Biso   1.000  C
  H9       1.0000 0.71860  0.34810  0.83320  Biso   1.000  H
  H10      1.0000 0.28140  0.65190  0.33320  Biso   1.000  H
  H11      1.0000 0.21860  0.65190  0.83320  Biso   1.000  H
  H12      1.0000 0.78140  0.34810  0.33320  Biso   1.000  H
  O5       1.0000 0.47500  0.26110  0.27700  Biso   1.000  O
  O6       1.0000 0.52500  0.73890  0.77700  Biso   1.000  O
  O7       1.0000 0.97500  0.73890  0.27700  Biso   1.000  O
  O8       1.0000 0.02500  0.26110  0.77700  Biso   1.000  O
  C21      1.0000 0.69340  0.36640  0.61570  Biso   1.000  C
  C22      1.0000 0.30660  0.63360  0.11570  Biso   1.000  C
  C23      1.0000 0.19340  0.63360  0.61570  Biso   1.000  C
  C24      1.0000 0.80660  0.36640  0.11570  Biso   1.000  C
  C25      1.0000 0.78810  0.42100  0.59720  Biso   1.000  C
  C26      1.0000 0.21190  0.57900  0.09720  Biso   1.000  C
  C27      1.0000 0.28810  0.57900  0.59720  Biso   1.000  C
  C28      1.0000 0.71190  0.42100  0.09720  Biso   1.000  C
  H13      1.0000 0.80840  0.43830  0.53780  Biso   1.000  H
  H14      1.0000 0.19160  0.56170  0.03780  Biso   1.000  H
  H15      1.0000 0.30840  0.56170  0.53780  Biso   1.000  H
  H16      1.0000 0.69160  0.43830  0.03780  Biso   1.000  H
  C29      1.0000 0.22490  0.10860  0.24930  Biso   1.000  C
  C30      1.0000 0.77510  0.89140  0.74930  Biso   1.000  C
  C31      1.0000 0.72490  0.89140  0.24930  Biso   1.000  C
  C32      1.0000 0.27510  0.10860  0.74930  Biso   1.000  C
  H17      1.0000 0.20340  0.11020  0.30890  Biso   1.000  H
  H18      1.0000 0.79660  0.88980  0.80890  Biso   1.000  H
  H19      1.0000 0.70340  0.88980  0.30890  Biso   1.000  H
  H20      1.0000 0.29660  0.11020  0.80890  Biso   1.000  H
  C33      1.0000 0.46430  0.78180  0.43690  Biso   1.000  C
  C34      1.0000 0.53570  0.21820  0.93690  Biso   1.000  C
  C35      1.0000 0.96430  0.21820  0.43690  Biso   1.000  C
  C36      1.0000 0.03570  0.78180  0.93690  Biso   1.000  C
  C37      1.0000 0.99490  0.66570  0.90130  Biso   1.000  C
  C38      1.0000 0.00510  0.33430  0.40130  Biso   1.000  C
  C39      1.0000 0.49490  0.33430  0.90130  Biso   1.000  C
  C40      1.0000 0.50510  0.66570  0.40130  Biso   1.000  C
  C41      1.0000 0.34530  0.16300  0.13720  Biso   1.000  C
  C42      1.0000 0.65470  0.83700  0.63720  Biso   1.000  C
  C43      1.0000 0.84530  0.83700  0.13720  Biso   1.000  C
  C44      1.0000 0.15470  0.16300  0.63720  Biso   1.000  C
  H21      1.0000 0.40680  0.20370  0.12040  Biso   1.000  H
  H22      1.0000 0.59320  0.79630  0.62040  Biso   1.000  H
  H23      1.0000 0.90680  0.79630  0.12040  Biso   1.000  H
  H24      1.0000 0.09320  0.20370  0.62040  Biso   1.000  H
  N5       1.0000 0.19070  0.04750  0.09300  Biso   1.000  N
  N6       1.0000 0.80930  0.95250  0.59300  Biso   1.000  N
  N7       1.0000 0.69070  0.95250  0.09300  Biso   1.000  N
  N8       1.0000 0.30930  0.04750  0.59300  Biso   1.000  N
  C45      1.0000 0.28140  0.10320  0.07220  Biso   1.000  C
  C46      1.0000 0.71860  0.89680  0.57220  Biso   1.000  C
  C47      1.0000 0.78140  0.89680  0.07220  Biso   1.000  C
  C48      1.0000 0.21860  0.10320  0.57220  Biso   1.000  C
  H25      1.0000 0.30130  0.10110  0.01210  Biso   1.000  H
  H26      1.0000 0.69870  0.89890  0.51210  Biso   1.000  H
  H27      1.0000 0.80130  0.89890  0.01210  Biso   1.000  H
  H28      1.0000 0.19870  0.10110  0.51210  Biso   1.000  H
  C49      1.0000 0.16410  0.05180  0.17990  Biso   1.000  C
  C50      1.0000 0.83590  0.94820  0.67990  Biso   1.000  C
  C51      1.0000 0.66410  0.94820  0.17990  Biso   1.000  C
  C52      1.0000 0.33590  0.05180  0.67990  Biso   1.000  C
  H29      1.0000 0.10130  0.01460  0.19460  Biso   1.000  H
  H30      1.0000 0.89870  0.98540  0.69460  Biso   1.000  H
  H31      1.0000 0.60130  0.98540  0.19460  Biso   1.000  H
  H32      1.0000 0.39870  0.01460  0.69460  Biso   1.000  H
  O9       1.0000 0.65430  0.32790  0.46090  Biso   1.000  O
  O10      1.0000 0.34570  0.67210  0.96090  Biso   1.000  O
  O11      1.0000 0.15430  0.67210  0.46090  Biso   1.000  O
  O12      1.0000 0.84570  0.32790  0.96090  Biso   1.000  O
  O13      1.0000 0.53380  0.31500  0.56360  Biso   1.000  O
  O14      1.0000 0.46620  0.68500  0.06360  Biso   1.000  O
  O15      1.0000 0.03380  0.68500  0.56360  Biso   1.000  O
  O16      1.0000 0.96620  0.31500  0.06360  Biso   1.000  O
  C53      1.0000 0.62310  0.33350  0.54090  Biso   1.000  C
  C54      1.0000 0.37690  0.66650  0.04090  Biso   1.000  C
  C55      1.0000 0.12310  0.66650  0.54090  Biso   1.000  C
  C56      1.0000 0.87690  0.33350  0.04090  Biso   1.000  C
