data_image0
_cell_length_a       9.5577
_cell_length_b       10.48
_cell_length_c       15.639
_cell_angle_alpha    90
_cell_angle_beta     90
_cell_angle_gamma    90

_symmetry_space_group_name_H-M    "P 1"
_symmetry_int_tables_number       1

loop_
  _symmetry_equiv_pos_as_xyz
  'x, y, z'

loop_
  _atom_site_label
  _atom_site_occupancy
  _atom_site_fract_x
  _atom_site_fract_y
  _atom_site_fract_z
  _atom_site_thermal_displace_type
  _atom_site_B_iso_or_equiv
  _atom_site_type_symbol
  Cu1      1.0000 0.55299  0.00000  0.00000  Biso   1.000  Cu
  Cu2      1.0000 0.44701  0.50000  0.50000  Biso   1.000  Cu
  N1       1.0000 0.73170  0.88050  0.95880  Biso   1.000  N
  N2       1.0000 0.26830  0.61950  0.45880  Biso   1.000  N
  N3       1.0000 0.73170  0.11950  0.04120  Biso   1.000  N
  N4       1.0000 0.26830  0.38050  0.54120  Biso   1.000  N
  H1       1.0000 0.74290  0.81850  0.99900  Biso   1.000  H
  H2       1.0000 0.25710  0.68150  0.49900  Biso   1.000  H
  H3       1.0000 0.74290  0.18150  0.00100  Biso   1.000  H
  H4       1.0000 0.25710  0.31850  0.50100  Biso   1.000  H
  N5       1.0000 0.52260  0.57760  0.59940  Biso   1.000  N
  N6       1.0000 0.47740  0.92240  0.09940  Biso   1.000  N
  N7       1.0000 0.52260  0.42240  0.40060  Biso   1.000  N
  N8       1.0000 0.47740  0.07760  0.90060  Biso   1.000  N
  C1       1.0000 0.85810  0.95840  0.95990  Biso   1.000  C
  C2       1.0000 0.14190  0.54160  0.45990  Biso   1.000  C
  C3       1.0000 0.85810  0.04160  0.04010  Biso   1.000  C
  C4       1.0000 0.14190  0.45840  0.54010  Biso   1.000  C
  H5       1.0000 0.85580  0.01480  0.90990  Biso   1.000  H
  H6       1.0000 0.14420  0.48520  0.40990  Biso   1.000  H
  H7       1.0000 0.85580  0.98520  0.09010  Biso   1.000  H
  H8       1.0000 0.14420  0.51480  0.59010  Biso   1.000  H
  C5       1.0000 0.99360  0.87990  0.95590  Biso   1.000  C
  C6       1.0000 0.00640  0.62010  0.45590  Biso   1.000  C
  C7       1.0000 0.99360  0.12010  0.04410  Biso   1.000  C
  C8       1.0000 0.00640  0.37990  0.54410  Biso   1.000  C
  H9       1.0000 0.99370  0.81950  0.00290  Biso   1.000  H
  H10      1.0000 0.00630  0.68050  0.50290  Biso   1.000  H
  H11      1.0000 0.99370  0.18050  0.99710  Biso   1.000  H
  H12      1.0000 0.00630  0.31950  0.49710  Biso   1.000  H
  H13      1.0000 0.99390  0.83120  0.90310  Biso   1.000  H
  H14      1.0000 0.00610  0.66880  0.40310  Biso   1.000  H
  H15      1.0000 0.99390  0.16880  0.09690  Biso   1.000  H
  H16      1.0000 0.00610  0.33120  0.59690  Biso   1.000  H
  C9       1.0000 0.12430  0.95700  0.96000  Biso   1.000  C
  C10      1.0000 0.87570  0.54300  0.46000  Biso   1.000  C
  C11      1.0000 0.12430  0.04300  0.04000  Biso   1.000  C
  C12      1.0000 0.87570  0.45700  0.54000  Biso   1.000  C
  H17      1.0000 0.13180  0.00940  0.90910  Biso   1.000  H
  H18      1.0000 0.86820  0.49060  0.40910  Biso   1.000  H
  H19      1.0000 0.13180  0.99060  0.09090  Biso   1.000  H
  H20      1.0000 0.86820  0.50940  0.59090  Biso   1.000  H
  H21      1.0000 0.20460  0.90040  0.96180  Biso   1.000  H
  H22      1.0000 0.79540  0.59960  0.46180  Biso   1.000  H
  H23      1.0000 0.20460  0.09960  0.03820  Biso   1.000  H
  H24      1.0000 0.79540  0.40040  0.53820  Biso   1.000  H
  C13      1.0000 0.69090  0.81950  0.88230  Biso   1.000  C
  C14      1.0000 0.30910  0.68050  0.38230  Biso   1.000  C
  C15      1.0000 0.69090  0.18050  0.11770  Biso   1.000  C
  C16      1.0000 0.30910  0.31950  0.61770  Biso   1.000  C
  C17      1.0000 0.73660  0.85640  0.80220  Biso   1.000  C
  C18      1.0000 0.26340  0.64360  0.30220  Biso   1.000  C
  C19      1.0000 0.73660  0.14360  0.19780  Biso   1.000  C
  C20      1.0000 0.26340  0.35640  0.69780  Biso   1.000  C
  H25      1.0000 0.80010  0.92330  0.79720  Biso   1.000  H
  H26      1.0000 0.19990  0.57670  0.29720  Biso   1.000  H
  H27      1.0000 0.80010  0.07670  0.20280  Biso   1.000  H
  H28      1.0000 0.19990  0.42330  0.70280  Biso   1.000  H
  C21      1.0000 0.68990  0.79590  0.72970  Biso   1.000  C
  C22      1.0000 0.31010  0.70410  0.22970  Biso   1.000  C
  C23      1.0000 0.68990  0.20410  0.27030  Biso   1.000  C
  C24      1.0000 0.31010  0.29590  0.77030  Biso   1.000  C
  H29      1.0000 0.71930  0.82390  0.67620  Biso   1.000  H
  H30      1.0000 0.28070  0.67610  0.17620  Biso   1.000  H
  H31      1.0000 0.71930  0.17610  0.32380  Biso   1.000  H
  H32      1.0000 0.28070  0.32390  0.82380  Biso   1.000  H
  C25      1.0000 0.59970  0.69430  0.73610  Biso   1.000  C
  C26      1.0000 0.40030  0.80570  0.23610  Biso   1.000  C
  C27      1.0000 0.59970  0.30570  0.26390  Biso   1.000  C
  C28      1.0000 0.40030  0.19430  0.76390  Biso   1.000  C
  C29      1.0000 0.55050  0.65550  0.81590  Biso   1.000  C
  C30      1.0000 0.44950  0.84450  0.31590  Biso   1.000  C
  C31      1.0000 0.55050  0.34450  0.18410  Biso   1.000  C
  C32      1.0000 0.44950  0.15550  0.68410  Biso   1.000  C
  H33      1.0000 0.48700  0.58860  0.82030  Biso   1.000  H
  H34      1.0000 0.51300  0.91140  0.32030  Biso   1.000  H
  H35      1.0000 0.48700  0.41140  0.17970  Biso   1.000  H
  H36      1.0000 0.51300  0.08860  0.67970  Biso   1.000  H
  C33      1.0000 0.59710  0.71730  0.88790  Biso   1.000  C
  C34      1.0000 0.40290  0.78270  0.38790  Biso   1.000  C
  C35      1.0000 0.59710  0.28270  0.11210  Biso   1.000  C
  C36      1.0000 0.40290  0.21730  0.61210  Biso   1.000  C
  H37      1.0000 0.56580  0.69070  0.94140  Biso   1.000  H
  H38      1.0000 0.43420  0.80930  0.44140  Biso   1.000  H
  H39      1.0000 0.56580  0.30930  0.05860  Biso   1.000  H
  H40      1.0000 0.43420  0.19070  0.55860  Biso   1.000  H
  C37      1.0000 0.55490  0.62900  0.65930  Biso   1.000  C
  C38      1.0000 0.44510  0.87100  0.15930  Biso   1.000  C
  C39      1.0000 0.55490  0.37100  0.34070  Biso   1.000  C
  C40      1.0000 0.44510  0.12900  0.84070  Biso   1.000  C
  P1       1.0000 0.25910  0.50000  0.00000  Biso   1.000  P
  P2       1.0000 0.74090  0.00000  0.50000  Biso   1.000  P
  F1       1.0000 0.15920  0.59990  0.02900  Biso   1.000  F
  F2       1.0000 0.84080  0.90010  0.52900  Biso   1.000  F
  F3       1.0000 0.15920  0.40010  0.97100  Biso   1.000  F
  F4       1.0000 0.84080  0.09990  0.47100  Biso   1.000  F
  F5       1.0000 0.25820  0.54780  0.90620  Biso   1.000  F
  F6       1.0000 0.74180  0.95220  0.40620  Biso   1.000  F
  F7       1.0000 0.25820  0.45220  0.09380  Biso   1.000  F
  F8       1.0000 0.74180  0.04780  0.59380  Biso   1.000  F
  F9       1.0000 0.37690  0.58660  0.02730  Biso   1.000  F
  F10      1.0000 0.62310  0.91340  0.52730  Biso   1.000  F
  F11      1.0000 0.37690  0.41340  0.97270  Biso   1.000  F
  F12      1.0000 0.62310  0.08660  0.47270  Biso   1.000  F
  O1       1.0000 0.77390  0.72510  0.11420  Biso   1.000  O
  O2       1.0000 0.22610  0.77490  0.61420  Biso   1.000  O
  O3       1.0000 0.77390  0.27490  0.88580  Biso   1.000  O
  O4       1.0000 0.22610  0.22510  0.38580  Biso   1.000  O
  C41      1.0000 0.79200  0.60420  0.10310  Biso   1.000  C
  C42      1.0000 0.20800  0.89580  0.60310  Biso   1.000  C
  C43      1.0000 0.79200  0.39580  0.89690  Biso   1.000  C
  C44      1.0000 0.20800  0.10420  0.39690  Biso   1.000  C
  H41      1.0000 0.83800  0.58920  0.04870  Biso   1.000  H
  H42      1.0000 0.16200  0.91080  0.54870  Biso   1.000  H
  H43      1.0000 0.83800  0.41080  0.95130  Biso   1.000  H
  H44      1.0000 0.16200  0.08920  0.45130  Biso   1.000  H
  H45      1.0000 0.70200  0.56140  0.10210  Biso   1.000  H
  H46      1.0000 0.29800  0.93860  0.60210  Biso   1.000  H
  H47      1.0000 0.70200  0.43860  0.89790  Biso   1.000  H
  H48      1.0000 0.29800  0.06140  0.39790  Biso   1.000  H
  C45      1.0000 0.87900  0.55200  0.17350  Biso   1.000  C
  C46      1.0000 0.12100  0.94800  0.67350  Biso   1.000  C
  C47      1.0000 0.87900  0.44800  0.82650  Biso   1.000  C
  C48      1.0000 0.12100  0.05200  0.32650  Biso   1.000  C
  H49      1.0000 0.85620  0.46390  0.18640  Biso   1.000  H
  H50      1.0000 0.14380  0.03610  0.68640  Biso   1.000  H
  H51      1.0000 0.85620  0.53610  0.81360  Biso   1.000  H
  H52      1.0000 0.14380  0.96390  0.31360  Biso   1.000  H
  H53      1.0000 0.97810  0.56070  0.16250  Biso   1.000  H
  H54      1.0000 0.02190  0.93930  0.66250  Biso   1.000  H
  H55      1.0000 0.97810  0.43930  0.83750  Biso   1.000  H
  H56      1.0000 0.02190  0.06070  0.33750  Biso   1.000  H
  C49      1.0000 0.83200  0.63600  0.23620  Biso   1.000  C
  C50      1.0000 0.16800  0.86400  0.73620  Biso   1.000  C
  C51      1.0000 0.83200  0.36400  0.76380  Biso   1.000  C
  C52      1.0000 0.16800  0.13600  0.26380  Biso   1.000  C
  H57      1.0000 0.90100  0.64320  0.28120  Biso   1.000  H
  H58      1.0000 0.09900  0.85680  0.78120  Biso   1.000  H
  H59      1.0000 0.90100  0.35680  0.71880  Biso   1.000  H
  H60      1.0000 0.09900  0.14320  0.21880  Biso   1.000  H
  H61      1.0000 0.74540  0.60420  0.26110  Biso   1.000  H
  H62      1.0000 0.25460  0.89580  0.76110  Biso   1.000  H
  H63      1.0000 0.74540  0.39580  0.73890  Biso   1.000  H
  H64      1.0000 0.25460  0.10420  0.23890  Biso   1.000  H
  C53      1.0000 0.81000  0.75200  0.19800  Biso   1.000  C
  C54      1.0000 0.19000  0.74800  0.69800  Biso   1.000  C
  C55      1.0000 0.81000  0.24800  0.80200  Biso   1.000  C
  C56      1.0000 0.19000  0.25200  0.30200  Biso   1.000  C
  H65      1.0000 0.73490  0.79800  0.22650  Biso   1.000  H
  H66      1.0000 0.26510  0.70200  0.72650  Biso   1.000  H
  H67      1.0000 0.73490  0.20200  0.77350  Biso   1.000  H
  H68      1.0000 0.26510  0.29800  0.27350  Biso   1.000  H
  H69      1.0000 0.89410  0.80370  0.20020  Biso   1.000  H
  H70      1.0000 0.10590  0.69630  0.70020  Biso   1.000  H
  H71      1.0000 0.89410  0.19630  0.79980  Biso   1.000  H
  H72      1.0000 0.10590  0.30370  0.29980  Biso   1.000  H
