data_image0
_cell_length_a       10.019
_cell_length_b       10.264
_cell_length_c       13.495
_cell_angle_alpha    90
_cell_angle_beta     115.6
_cell_angle_gamma    90

_symmetry_space_group_name_H-M    "P 1"
_symmetry_int_tables_number       1

loop_
  _symmetry_equiv_pos_as_xyz
  'x, y, z'

loop_
  _atom_site_label
  _atom_site_occupancy
  _atom_site_fract_x
  _atom_site_fract_y
  _atom_site_fract_z
  _atom_site_thermal_displace_type
  _atom_site_B_iso_or_equiv
  _atom_site_type_symbol
  I1       1.0000 0.40729  0.57136  0.33159  Biso   1.000  I
  I2       1.0000 0.59271  0.07136  0.16841  Biso   1.000  I
  I3       1.0000 0.59271  0.42864  0.66841  Biso   1.000  I
  I4       1.0000 0.40729  0.92864  0.83159  Biso   1.000  I
  I5       1.0000 0.20189  0.68516  0.54319  Biso   1.000  I
  I6       1.0000 0.79811  0.18516  0.95681  Biso   1.000  I
  I7       1.0000 0.79811  0.31484  0.45681  Biso   1.000  I
  I8       1.0000 0.20189  0.81484  0.04319  Biso   1.000  I
  Cu1      1.0000 0.14990  0.57255  0.35806  Biso   1.000  Cu
  Cu2      1.0000 0.85010  0.07255  0.14194  Biso   1.000  Cu
  Cu3      1.0000 0.85010  0.42745  0.64194  Biso   1.000  Cu
  Cu4      1.0000 0.14990  0.92745  0.85806  Biso   1.000  Cu
  Cu5      1.0000 0.54247  0.37307  0.46154  Biso   1.000  Cu
  Cu6      1.0000 0.45753  0.87307  0.03846  Biso   1.000  Cu
  Cu7      1.0000 0.45753  0.62693  0.53846  Biso   1.000  Cu
  Cu8      1.0000 0.54247  0.12693  0.96154  Biso   1.000  Cu
  N1       1.0000 0.09130  0.38313  0.34011  Biso   1.000  N
  N2       1.0000 0.90870  0.88313  0.15989  Biso   1.000  N
  N3       1.0000 0.90870  0.61687  0.65989  Biso   1.000  N
  N4       1.0000 0.09130  0.11687  0.84011  Biso   1.000  N
  C1       1.0000 0.01270  0.31650  0.24940  Biso   1.000  C
  C2       1.0000 0.98730  0.81650  0.25060  Biso   1.000  C
  C3       1.0000 0.98730  0.68350  0.75060  Biso   1.000  C
  C4       1.0000 0.01270  0.18350  0.74940  Biso   1.000  C
  H1       1.0000 0.97110  0.35640  0.17890  Biso   1.000  H
  H2       1.0000 0.02890  0.85640  0.32110  Biso   1.000  H
  H3       1.0000 0.02890  0.64360  0.82110  Biso   1.000  H
  H4       1.0000 0.97110  0.14360  0.67890  Biso   1.000  H
  N5       1.0000 0.99540  0.18856  0.26322  Biso   1.000  N
  N6       1.0000 0.00460  0.68856  0.23678  Biso   1.000  N
  N7       1.0000 0.00460  0.81144  0.73678  Biso   1.000  N
  N8       1.0000 0.99540  0.31144  0.76322  Biso   1.000  N
  C5       1.0000 0.07100  0.17130  0.37215  Biso   1.000  C
  C6       1.0000 0.92900  0.67130  0.12785  Biso   1.000  C
  C7       1.0000 0.92900  0.82870  0.62785  Biso   1.000  C
  C8       1.0000 0.07100  0.32870  0.87215  Biso   1.000  C
  N9       1.0000 0.09410  0.06110  0.43045  Biso   1.000  N
  N10      1.0000 0.90590  0.56110  0.06955  Biso   1.000  N
  N11      1.0000 0.90590  0.93890  0.56955  Biso   1.000  N
  N12      1.0000 0.09410  0.43890  0.93045  Biso   1.000  N
  C9       1.0000 0.17480  0.07390  0.53800  Biso   1.000  C
  C10      1.0000 0.82520  0.57390  0.96200  Biso   1.000  C
  C11      1.0000 0.82520  0.92610  0.46200  Biso   1.000  C
  C12      1.0000 0.17480  0.42610  0.03800  Biso   1.000  C
  H5       1.0000 0.19340  0.99800  0.58220  Biso   1.000  H
  H6       1.0000 0.80660  0.49800  0.91780  Biso   1.000  H
  H7       1.0000 0.80660  0.00200  0.41780  Biso   1.000  H
  H8       1.0000 0.19340  0.50200  0.08220  Biso   1.000  H
  C13      1.0000 0.23480  0.19270  0.59100  Biso   1.000  C
  C14      1.0000 0.76520  0.69270  0.90900  Biso   1.000  C
  C15      1.0000 0.76520  0.80730  0.40900  Biso   1.000  C
  C16      1.0000 0.23480  0.30730  0.09100  Biso   1.000  C
  H9       1.0000 0.29110  0.19590  0.66850  Biso   1.000  H
  H10      1.0000 0.70890  0.69590  0.83150  Biso   1.000  H
  H11      1.0000 0.70890  0.80410  0.33150  Biso   1.000  H
  H12      1.0000 0.29110  0.30410  0.16850  Biso   1.000  H
  C17      1.0000 0.21060  0.30340  0.52910  Biso   1.000  C
  C18      1.0000 0.78940  0.80340  0.97090  Biso   1.000  C
  C19      1.0000 0.78940  0.69660  0.47090  Biso   1.000  C
  C20      1.0000 0.21060  0.19660  0.02910  Biso   1.000  C
  H13      1.0000 0.24890  0.38560  0.56120  Biso   1.000  H
  H14      1.0000 0.75110  0.88560  0.93880  Biso   1.000  H
  H15      1.0000 0.75110  0.61440  0.43880  Biso   1.000  H
  H16      1.0000 0.24890  0.11440  0.06120  Biso   1.000  H
  N13      1.0000 0.12900  0.28923  0.41962  Biso   1.000  N
  N14      1.0000 0.87100  0.78923  0.08038  Biso   1.000  N
  N15      1.0000 0.87100  0.71077  0.58038  Biso   1.000  N
  N16      1.0000 0.12900  0.21077  0.91962  Biso   1.000  N
  N17      1.0000 0.43020  0.20380  0.40780  Biso   1.000  N
  N18      1.0000 0.56980  0.70380  0.09220  Biso   1.000  N
  N19      1.0000 0.56980  0.79620  0.59220  Biso   1.000  N
  N20      1.0000 0.43020  0.29620  0.90780  Biso   1.000  N
  C21      1.0000 0.39450  0.10070  0.37550  Biso   1.000  C
  C22      1.0000 0.60550  0.60070  0.12450  Biso   1.000  C
  C23      1.0000 0.60550  0.89930  0.62450  Biso   1.000  C
  C24      1.0000 0.39450  0.39930  0.87550  Biso   1.000  C
  C25      1.0000 0.35020  0.96860  0.33400  Biso   1.000  C
  C26      1.0000 0.64980  0.46860  0.16600  Biso   1.000  C
  C27      1.0000 0.64980  0.03140  0.66600  Biso   1.000  C
  C28      1.0000 0.35020  0.53140  0.83400  Biso   1.000  C
  H17      1.0000 0.33350  0.91720  0.38880  Biso   1.000  H
  H18      1.0000 0.66650  0.41720  0.11120  Biso   1.000  H
  H19      1.0000 0.66650  0.08280  0.61120  Biso   1.000  H
  H20      1.0000 0.33350  0.58280  0.88880  Biso   1.000  H
  H21      1.0000 0.42860  0.92800  0.31960  Biso   1.000  H
  H22      1.0000 0.57140  0.42800  0.18040  Biso   1.000  H
  H23      1.0000 0.57140  0.07200  0.68040  Biso   1.000  H
  H24      1.0000 0.42860  0.57200  0.81960  Biso   1.000  H
  H25      1.0000 0.25870  0.97200  0.26570  Biso   1.000  H
  H26      1.0000 0.74130  0.47200  0.23430  Biso   1.000  H
  H27      1.0000 0.74130  0.02800  0.73430  Biso   1.000  H
  H28      1.0000 0.25870  0.52800  0.76570  Biso   1.000  H
