data_image0
_cell_length_a       4.2256
_cell_length_b       12.0889
_cell_length_c       19.0076
_cell_angle_alpha    90
_cell_angle_beta     90.007
_cell_angle_gamma    90

_symmetry_space_group_name_H-M    "P 1"
_symmetry_int_tables_number       1

loop_
  _symmetry_equiv_pos_as_xyz
  'x, y, z'

loop_
  _atom_site_label
  _atom_site_occupancy
  _atom_site_fract_x
  _atom_site_fract_y
  _atom_site_fract_z
  _atom_site_thermal_displace_type
  _atom_site_B_iso_or_equiv
  _atom_site_type_symbol
  I1       1.0000 0.01382  0.06118  0.64943  Biso   1.000  I
  I2       1.0000 0.98618  0.56118  0.85057  Biso   1.000  I
  I3       1.0000 0.98618  0.93882  0.35057  Biso   1.000  I
  I4       1.0000 0.01382  0.43882  0.14943  Biso   1.000  I
  I5       1.0000 0.40928  0.86112  0.80548  Biso   1.000  I
  I6       1.0000 0.59072  0.36112  0.69452  Biso   1.000  I
  I7       1.0000 0.59072  0.13888  0.19452  Biso   1.000  I
  I8       1.0000 0.40928  0.63888  0.30548  Biso   1.000  I
  Cu1      1.0000 0.51300  0.94044  0.68077  Biso   1.000  Cu
  Cu2      1.0000 0.48700  0.44044  0.81923  Biso   1.000  Cu
  Cu3      1.0000 0.48700  0.05956  0.31923  Biso   1.000  Cu
  Cu4      1.0000 0.51300  0.55956  0.18077  Biso   1.000  Cu
  Cu5      1.0000 0.09950  0.24485  0.72748  Biso   1.000  Cu
  Cu6      1.0000 0.90050  0.74485  0.77252  Biso   1.000  Cu
  Cu7      1.0000 0.90050  0.75515  0.27252  Biso   1.000  Cu
  Cu8      1.0000 0.09950  0.25515  0.22748  Biso   1.000  Cu
  N1       1.0000 0.56640  0.81720  0.60430  Biso   1.000  N
  N2       1.0000 0.43360  0.31720  0.89570  Biso   1.000  N
  N3       1.0000 0.43360  0.18280  0.39570  Biso   1.000  N
  N4       1.0000 0.56640  0.68280  0.10430  Biso   1.000  N
  N5       1.0000 0.84750  0.66230  0.55790  Biso   1.000  N
  N6       1.0000 0.15250  0.16230  0.94210  Biso   1.000  N
  N7       1.0000 0.15250  0.33770  0.44210  Biso   1.000  N
  N8       1.0000 0.84750  0.83770  0.05790  Biso   1.000  N
  C1       1.0000 0.46090  0.83150  0.53970  Biso   1.000  C
  C2       1.0000 0.53910  0.33150  0.96030  Biso   1.000  C
  C3       1.0000 0.53910  0.16850  0.46030  Biso   1.000  C
  C4       1.0000 0.46090  0.66850  0.03970  Biso   1.000  C
  H1       1.0000 0.32020  0.89120  0.53110  Biso   1.000  H
  H2       1.0000 0.67980  0.39120  0.96890  Biso   1.000  H
  H3       1.0000 0.67980  0.10880  0.46890  Biso   1.000  H
  H4       1.0000 0.32020  0.60880  0.03110  Biso   1.000  H
  C5       1.0000 0.54480  0.76340  0.48310  Biso   1.000  C
  C6       1.0000 0.45520  0.26340  0.01690  Biso   1.000  C
  C7       1.0000 0.45520  0.23660  0.51690  Biso   1.000  C
  C8       1.0000 0.54480  0.73660  0.98310  Biso   1.000  C
  H5       1.0000 0.46110  0.77810  0.43770  Biso   1.000  H
  H6       1.0000 0.53890  0.27810  0.06230  Biso   1.000  H
  H7       1.0000 0.53890  0.22190  0.56230  Biso   1.000  H
  H8       1.0000 0.46110  0.72190  0.93770  Biso   1.000  H
  C9       1.0000 0.76140  0.73090  0.61340  Biso   1.000  C
  C10      1.0000 0.23860  0.23090  0.88660  Biso   1.000  C
  C11      1.0000 0.23860  0.26910  0.38660  Biso   1.000  C
  C12      1.0000 0.76140  0.76910  0.11340  Biso   1.000  C
  C13      1.0000 0.74200  0.67770  0.49250  Biso   1.000  C
  C14      1.0000 0.25800  0.17770  0.00750  Biso   1.000  C
  C15      1.0000 0.25800  0.32230  0.50750  Biso   1.000  C
  C16      1.0000 0.74200  0.82230  0.99250  Biso   1.000  C
  H9       1.0000 0.80330  0.63080  0.45480  Biso   1.000  H
  H10      1.0000 0.19670  0.13080  0.04520  Biso   1.000  H
  H11      1.0000 0.19670  0.36920  0.54520  Biso   1.000  H
  H12      1.0000 0.80330  0.86920  0.95480  Biso   1.000  H
  N9       1.0000 0.90460  0.69450  0.67120  Biso   1.000  N
  N10      1.0000 0.09540  0.19450  0.82880  Biso   1.000  N
  N11      1.0000 0.09540  0.30550  0.32880  Biso   1.000  N
  N12      1.0000 0.90460  0.80550  0.17120  Biso   1.000  N
  N13      1.0000 0.05660  0.58150  0.58070  Biso   1.000  N
  N14      1.0000 0.94340  0.08150  0.91930  Biso   1.000  N
  N15      1.0000 0.94340  0.41850  0.41930  Biso   1.000  N
  N16      1.0000 0.05660  0.91850  0.08070  Biso   1.000  N
  C17      1.0000 0.07660  0.60620  0.64900  Biso   1.000  C
  C18      1.0000 0.92340  0.10620  0.85100  Biso   1.000  C
  C19      1.0000 0.92340  0.39380  0.35100  Biso   1.000  C
  C20      1.0000 0.07660  0.89380  0.14900  Biso   1.000  C
  H13      1.0000 0.20420  0.56430  0.68040  Biso   1.000  H
  H14      1.0000 0.79580  0.06430  0.81960  Biso   1.000  H
  H15      1.0000 0.79580  0.43570  0.31960  Biso   1.000  H
  H16      1.0000 0.20420  0.93570  0.18040  Biso   1.000  H
