data_image0
_cell_length_a       12.699
_cell_length_b       13.885
_cell_length_c       7.252
_cell_angle_alpha    90
_cell_angle_beta     90
_cell_angle_gamma    90

_symmetry_space_group_name_H-M    "P 1"
_symmetry_int_tables_number       1

loop_
  _symmetry_equiv_pos_as_xyz
  'x, y, z'

loop_
  _atom_site_label
  _atom_site_occupancy
  _atom_site_fract_x
  _atom_site_fract_y
  _atom_site_fract_z
  _atom_site_thermal_displace_type
  _atom_site_B_iso_or_equiv
  _atom_site_type_symbol
  Cu1      1.0000 0.16264  0.75000  0.10470  Biso   1.000  Cu
  Cu2      1.0000 0.66264  0.75000  0.39530  Biso   1.000  Cu
  Cu3      1.0000 0.33736  0.25000  0.60470  Biso   1.000  Cu
  Cu4      1.0000 0.83736  0.25000  0.89530  Biso   1.000  Cu
  Cl1      1.0000 0.98760  0.75000  0.05590  Biso   1.000  Cl
  Cl2      1.0000 0.48760  0.75000  0.44410  Biso   1.000  Cl
  Cl3      1.0000 0.51240  0.25000  0.55590  Biso   1.000  Cl
  Cl4      1.0000 0.01240  0.25000  0.94410  Biso   1.000  Cl
  N1       1.0000 0.22630  0.62030  0.11500  Biso   1.000  N
  N2       1.0000 0.72630  0.62030  0.38500  Biso   1.000  N
  N3       1.0000 0.22630  0.87970  0.11500  Biso   1.000  N
  N4       1.0000 0.27370  0.12030  0.61500  Biso   1.000  N
  N5       1.0000 0.77370  0.37970  0.88500  Biso   1.000  N
  N6       1.0000 0.27370  0.37970  0.61500  Biso   1.000  N
  N7       1.0000 0.77370  0.12030  0.88500  Biso   1.000  N
  N8       1.0000 0.72630  0.87970  0.38500  Biso   1.000  N
  C1       1.0000 0.33000  0.60700  0.13260  Biso   1.000  C
  C2       1.0000 0.83000  0.60700  0.36740  Biso   1.000  C
  C3       1.0000 0.33000  0.89300  0.13260  Biso   1.000  C
  C4       1.0000 0.17000  0.10700  0.63260  Biso   1.000  C
  C5       1.0000 0.67000  0.39300  0.86740  Biso   1.000  C
  C6       1.0000 0.17000  0.39300  0.63260  Biso   1.000  C
  C7       1.0000 0.67000  0.10700  0.86740  Biso   1.000  C
  C8       1.0000 0.83000  0.89300  0.36740  Biso   1.000  C
  H1       1.0000 0.37280  0.66090  0.14570  Biso   1.000  H
  H2       1.0000 0.87280  0.66090  0.35430  Biso   1.000  H
  H3       1.0000 0.37280  0.83910  0.14570  Biso   1.000  H
  H4       1.0000 0.12720  0.16090  0.64570  Biso   1.000  H
  H5       1.0000 0.62720  0.33910  0.85430  Biso   1.000  H
  H6       1.0000 0.12720  0.33910  0.64570  Biso   1.000  H
  H7       1.0000 0.62720  0.16090  0.85430  Biso   1.000  H
  H8       1.0000 0.87280  0.83910  0.35430  Biso   1.000  H
  C9       1.0000 0.37620  0.51820  0.13250  Biso   1.000  C
  C10      1.0000 0.87620  0.51820  0.36750  Biso   1.000  C
  C11      1.0000 0.37620  0.98180  0.13250  Biso   1.000  C
  C12      1.0000 0.12380  0.01820  0.63250  Biso   1.000  C
  C13      1.0000 0.62380  0.48180  0.86750  Biso   1.000  C
  C14      1.0000 0.12380  0.48180  0.63250  Biso   1.000  C
  C15      1.0000 0.62380  0.01820  0.86750  Biso   1.000  C
  C16      1.0000 0.87620  0.98180  0.36750  Biso   1.000  C
  H9       1.0000 0.44890  0.51320  0.14630  Biso   1.000  H
  H10      1.0000 0.94890  0.51320  0.35370  Biso   1.000  H
  H11      1.0000 0.44890  0.98680  0.14630  Biso   1.000  H
  H12      1.0000 0.05110  0.01320  0.64630  Biso   1.000  H
  H13      1.0000 0.55110  0.48680  0.85370  Biso   1.000  H
  H14      1.0000 0.05110  0.48680  0.64630  Biso   1.000  H
  H15      1.0000 0.55110  0.01320  0.85370  Biso   1.000  H
  H16      1.0000 0.94890  0.98680  0.35370  Biso   1.000  H
  C17      1.0000 0.31630  0.43520  0.11190  Biso   1.000  C
  C18      1.0000 0.81630  0.43520  0.38810  Biso   1.000  C
  C19      1.0000 0.31630  0.06480  0.11190  Biso   1.000  C
  C20      1.0000 0.18370  0.93520  0.61190  Biso   1.000  C
  C21      1.0000 0.68370  0.56480  0.88810  Biso   1.000  C
  C22      1.0000 0.18370  0.56480  0.61190  Biso   1.000  C
  C23      1.0000 0.68370  0.93520  0.88810  Biso   1.000  C
  C24      1.0000 0.81630  0.06480  0.38810  Biso   1.000  C
  C25      1.0000 0.20860  0.44820  0.09890  Biso   1.000  C
  C26      1.0000 0.70860  0.44820  0.40110  Biso   1.000  C
  C27      1.0000 0.20860  0.05180  0.09890  Biso   1.000  C
  C28      1.0000 0.29140  0.94820  0.59890  Biso   1.000  C
  C29      1.0000 0.79140  0.55180  0.90110  Biso   1.000  C
  C30      1.0000 0.29140  0.55180  0.59890  Biso   1.000  C
  C31      1.0000 0.79140  0.94820  0.90110  Biso   1.000  C
  C32      1.0000 0.70860  0.05180  0.40110  Biso   1.000  C
  H17      1.0000 0.16390  0.39540  0.08940  Biso   1.000  H
  H18      1.0000 0.66390  0.39540  0.41060  Biso   1.000  H
  H19      1.0000 0.16390  0.10460  0.08940  Biso   1.000  H
  H20      1.0000 0.33610  0.89540  0.58940  Biso   1.000  H
  H21      1.0000 0.83610  0.60460  0.91060  Biso   1.000  H
  H22      1.0000 0.33610  0.60460  0.58940  Biso   1.000  H
  H23      1.0000 0.83610  0.89540  0.91060  Biso   1.000  H
  H24      1.0000 0.66390  0.10460  0.41060  Biso   1.000  H
  C33      1.0000 0.16870  0.53960  0.09990  Biso   1.000  C
  C34      1.0000 0.66870  0.53960  0.40010  Biso   1.000  C
  C35      1.0000 0.16870  0.96040  0.09990  Biso   1.000  C
  C36      1.0000 0.33130  0.03960  0.59990  Biso   1.000  C
  C37      1.0000 0.83130  0.46040  0.90010  Biso   1.000  C
  C38      1.0000 0.33130  0.46040  0.59990  Biso   1.000  C
  C39      1.0000 0.83130  0.03960  0.90010  Biso   1.000  C
  C40      1.0000 0.66870  0.96040  0.40010  Biso   1.000  C
  H25      1.0000 0.09610  0.54640  0.08950  Biso   1.000  H
  H26      1.0000 0.59610  0.54640  0.41050  Biso   1.000  H
  H27      1.0000 0.09610  0.95360  0.08950  Biso   1.000  H
  H28      1.0000 0.40390  0.04640  0.58950  Biso   1.000  H
  H29      1.0000 0.90390  0.45360  0.91050  Biso   1.000  H
  H30      1.0000 0.40390  0.45360  0.58950  Biso   1.000  H
  H31      1.0000 0.90390  0.04640  0.91050  Biso   1.000  H
  H32      1.0000 0.59610  0.95360  0.41050  Biso   1.000  H
  C41      1.0000 0.37010  0.33920  0.10230  Biso   1.000  C
  C42      1.0000 0.87010  0.33920  0.39770  Biso   1.000  C
  C43      1.0000 0.37010  0.16080  0.10230  Biso   1.000  C
  C44      1.0000 0.12990  0.83920  0.60230  Biso   1.000  C
  C45      1.0000 0.62990  0.66080  0.89770  Biso   1.000  C
  C46      1.0000 0.12990  0.66080  0.60230  Biso   1.000  C
  C47      1.0000 0.62990  0.83920  0.89770  Biso   1.000  C
  C48      1.0000 0.87010  0.16080  0.39770  Biso   1.000  C
  H33      1.0000 0.42050  0.33600  0.20260  Biso   1.000  H
  H34      1.0000 0.92050  0.33600  0.29740  Biso   1.000  H
  H35      1.0000 0.42050  0.16400  0.20260  Biso   1.000  H
  H36      1.0000 0.07950  0.83600  0.70260  Biso   1.000  H
  H37      1.0000 0.57950  0.66400  0.79740  Biso   1.000  H
  H38      1.0000 0.07950  0.66400  0.70260  Biso   1.000  H
  H39      1.0000 0.57950  0.83600  0.79740  Biso   1.000  H
  H40      1.0000 0.92050  0.16400  0.29740  Biso   1.000  H
  H41      1.0000 0.40980  0.33690  0.98820  Biso   1.000  H
  H42      1.0000 0.90980  0.33690  0.51180  Biso   1.000  H
  H43      1.0000 0.40980  0.16310  0.98820  Biso   1.000  H
  H44      1.0000 0.09020  0.83690  0.48820  Biso   1.000  H
  H45      1.0000 0.59020  0.66310  0.01180  Biso   1.000  H
  H46      1.0000 0.09020  0.66310  0.48820  Biso   1.000  H
  H47      1.0000 0.59020  0.83690  0.01180  Biso   1.000  H
  H48      1.0000 0.90980  0.16310  0.51180  Biso   1.000  H
  C49      1.0000 0.30220  0.25000  0.11100  Biso   1.000  C
  C50      1.0000 0.80220  0.25000  0.38900  Biso   1.000  C
  C51      1.0000 0.19780  0.75000  0.61100  Biso   1.000  C
  C52      1.0000 0.69780  0.75000  0.88900  Biso   1.000  C
  H49      1.0000 0.25300  0.25000  0.21400  Biso   1.000  H
  H50      1.0000 0.75300  0.25000  0.28600  Biso   1.000  H
  H51      1.0000 0.24700  0.75000  0.71400  Biso   1.000  H
  H52      1.0000 0.74700  0.75000  0.78600  Biso   1.000  H
  H53      1.0000 0.24900  0.25000  0.01500  Biso   1.000  H
  H54      1.0000 0.74900  0.25000  0.48500  Biso   1.000  H
  H55      1.0000 0.25100  0.75000  0.51500  Biso   1.000  H
  H56      1.0000 0.75100  0.75000  0.98500  Biso   1.000  H
