data_image0
_cell_length_a       11.935
_cell_length_b       9.0046
_cell_length_c       15.3953
_cell_angle_alpha    90
_cell_angle_beta     90
_cell_angle_gamma    90

_symmetry_space_group_name_H-M    "P 1"
_symmetry_int_tables_number       1

loop_
  _symmetry_equiv_pos_as_xyz
  'x, y, z'

loop_
  _atom_site_label
  _atom_site_occupancy
  _atom_site_fract_x
  _atom_site_fract_y
  _atom_site_fract_z
  _atom_site_thermal_displace_type
  _atom_site_B_iso_or_equiv
  _atom_site_type_symbol
  Cu1      1.0000 0.33525  0.25000  0.52738  Biso   1.000  Cu
  Cu2      1.0000 0.16475  0.75000  0.02738  Biso   1.000  Cu
  Cu3      1.0000 0.66475  0.75000  0.47262  Biso   1.000  Cu
  Cu4      1.0000 0.83525  0.25000  0.97262  Biso   1.000  Cu
  Cu5      1.0000 0.46962  0.75000  0.12813  Biso   1.000  Cu
  Cu6      1.0000 0.03038  0.25000  0.62813  Biso   1.000  Cu
  Cu7      1.0000 0.53038  0.25000  0.87187  Biso   1.000  Cu
  Cu8      1.0000 0.96962  0.75000  0.37187  Biso   1.000  Cu
  Cu9      1.0000 0.25444  0.09234  0.40604  Biso   1.000  Cu
  Cu10     1.0000 0.24556  0.90766  0.90604  Biso   1.000  Cu
  Cu11     1.0000 0.74556  0.59234  0.59396  Biso   1.000  Cu
  Cu12     1.0000 0.75444  0.40766  0.09396  Biso   1.000  Cu
  Cu13     1.0000 0.74556  0.90766  0.59396  Biso   1.000  Cu
  Cu14     1.0000 0.75444  0.09234  0.09396  Biso   1.000  Cu
  Cu15     1.0000 0.25444  0.40766  0.40604  Biso   1.000  Cu
  Cu16     1.0000 0.24556  0.59234  0.90604  Biso   1.000  Cu
  Cu17     1.0000 0.09200  0.25000  0.21715  Biso   1.000  Cu
  Cu18     1.0000 0.40800  0.75000  0.71715  Biso   1.000  Cu
  Cu19     1.0000 0.90800  0.75000  0.78285  Biso   1.000  Cu
  Cu20     1.0000 0.59200  0.25000  0.28285  Biso   1.000  Cu
  Cl1      1.0000 0.09206  0.05160  0.33312  Biso   1.000  Cl
  Cl2      1.0000 0.40794  0.94840  0.83312  Biso   1.000  Cl
  Cl3      1.0000 0.90794  0.55160  0.66688  Biso   1.000  Cl
  Cl4      1.0000 0.59206  0.44840  0.16688  Biso   1.000  Cl
  Cl5      1.0000 0.90794  0.94840  0.66688  Biso   1.000  Cl
  Cl6      1.0000 0.59206  0.05160  0.16688  Biso   1.000  Cl
  Cl7      1.0000 0.09206  0.44840  0.33312  Biso   1.000  Cl
  Cl8      1.0000 0.40794  0.55160  0.83312  Biso   1.000  Cl
  Cl9      1.0000 0.22728  0.04057  0.55941  Biso   1.000  Cl
  Cl10     1.0000 0.27272  0.95943  0.05941  Biso   1.000  Cl
  Cl11     1.0000 0.77272  0.54057  0.44059  Biso   1.000  Cl
  Cl12     1.0000 0.72728  0.45943  0.94059  Biso   1.000  Cl
  Cl13     1.0000 0.77272  0.95943  0.44059  Biso   1.000  Cl
  Cl14     1.0000 0.72728  0.04057  0.94059  Biso   1.000  Cl
  Cl15     1.0000 0.22728  0.45943  0.55941  Biso   1.000  Cl
  Cl16     1.0000 0.27272  0.54057  0.05941  Biso   1.000  Cl
  C1       1.0000 0.46020  0.25000  0.34900  Biso   1.000  C
  C2       1.0000 0.03980  0.75000  0.84900  Biso   1.000  C
  C3       1.0000 0.53980  0.75000  0.65100  Biso   1.000  C
  C4       1.0000 0.96020  0.25000  0.15100  Biso   1.000  C
  N1       1.0000 0.34420  0.88670  0.37160  Biso   1.000  N
  N2       1.0000 0.15580  0.11330  0.87160  Biso   1.000  N
  N3       1.0000 0.65580  0.38670  0.62840  Biso   1.000  N
  N4       1.0000 0.84420  0.61330  0.12840  Biso   1.000  N
  N5       1.0000 0.65580  0.11330  0.62840  Biso   1.000  N
  N6       1.0000 0.84420  0.88670  0.12840  Biso   1.000  N
  N7       1.0000 0.34420  0.61330  0.37160  Biso   1.000  N
  N8       1.0000 0.15580  0.38670  0.87160  Biso   1.000  N
  N9       1.0000 0.51760  0.75000  0.40040  Biso   1.000  N
  N10      1.0000 0.98240  0.25000  0.90040  Biso   1.000  N
  N11      1.0000 0.48240  0.25000  0.59960  Biso   1.000  N
  N12      1.0000 0.01760  0.75000  0.09960  Biso   1.000  N
  O1       1.0000 0.25890  0.25000  0.18760  Biso   1.000  O
  O2       1.0000 0.24110  0.75000  0.68760  Biso   1.000  O
  O3       1.0000 0.74110  0.75000  0.81240  Biso   1.000  O
  O4       1.0000 0.75890  0.25000  0.31240  Biso   1.000  O
  O5       1.0000 0.51990  0.75000  0.01000  Biso   1.000  O
  O6       1.0000 0.98010  0.25000  0.51000  Biso   1.000  O
  O7       1.0000 0.48010  0.25000  0.99000  Biso   1.000  O
  O8       1.0000 0.01990  0.75000  0.49000  Biso   1.000  O
  N13      1.0000 0.43410  0.75000  0.25340  Biso   1.000  N
  N14      1.0000 0.06590  0.25000  0.75340  Biso   1.000  N
  N15      1.0000 0.56590  0.25000  0.74660  Biso   1.000  N
  N16      1.0000 0.93410  0.75000  0.24660  Biso   1.000  N
  C5       1.0000 0.27940  0.75000  0.39390  Biso   1.000  C
  C6       1.0000 0.22060  0.25000  0.89390  Biso   1.000  C
  C7       1.0000 0.72060  0.25000  0.60610  Biso   1.000  C
  C8       1.0000 0.77940  0.75000  0.10610  Biso   1.000  C
  H1       1.0000 0.20900  0.75000  0.36230  Biso   1.000  H
  H2       1.0000 0.29100  0.25000  0.86230  Biso   1.000  H
  H3       1.0000 0.79100  0.25000  0.63770  Biso   1.000  H
  H4       1.0000 0.70900  0.75000  0.13770  Biso   1.000  H
  H5       1.0000 0.26250  0.75000  0.45550  Biso   1.000  H
  H6       1.0000 0.23750  0.25000  0.95550  Biso   1.000  H
  H7       1.0000 0.73750  0.25000  0.54450  Biso   1.000  H
  H8       1.0000 0.76250  0.75000  0.04450  Biso   1.000  H
  C9       1.0000 0.36880  0.88470  0.27840  Biso   1.000  C
  C10      1.0000 0.13120  0.11530  0.77840  Biso   1.000  C
  C11      1.0000 0.63120  0.38470  0.72160  Biso   1.000  C
  C12      1.0000 0.86880  0.61530  0.22160  Biso   1.000  C
  C13      1.0000 0.63120  0.11530  0.72160  Biso   1.000  C
  C14      1.0000 0.86880  0.88470  0.22160  Biso   1.000  C
  C15      1.0000 0.36880  0.61530  0.27840  Biso   1.000  C
  C16      1.0000 0.13120  0.38470  0.77840  Biso   1.000  C
  H9       1.0000 0.41110  0.97290  0.26320  Biso   1.000  H
  H10      1.0000 0.08890  0.02710  0.76320  Biso   1.000  H
  H11      1.0000 0.58890  0.47290  0.73680  Biso   1.000  H
  H12      1.0000 0.91110  0.52710  0.23680  Biso   1.000  H
  H13      1.0000 0.58890  0.02710  0.73680  Biso   1.000  H
  H14      1.0000 0.91110  0.97290  0.23680  Biso   1.000  H
  H15      1.0000 0.41110  0.52710  0.26320  Biso   1.000  H
  H16      1.0000 0.08890  0.47290  0.76320  Biso   1.000  H
  H17      1.0000 0.29900  0.88670  0.24600  Biso   1.000  H
  H18      1.0000 0.20100  0.11330  0.74600  Biso   1.000  H
  H19      1.0000 0.70100  0.38670  0.75400  Biso   1.000  H
  H20      1.0000 0.79900  0.61330  0.25400  Biso   1.000  H
  H21      1.0000 0.70100  0.11330  0.75400  Biso   1.000  H
  H22      1.0000 0.79900  0.88670  0.25400  Biso   1.000  H
  H23      1.0000 0.29900  0.61330  0.24600  Biso   1.000  H
  H24      1.0000 0.20100  0.38670  0.74600  Biso   1.000  H
  C17      1.0000 0.44990  0.88280  0.42070  Biso   1.000  C
  C18      1.0000 0.05010  0.11720  0.92070  Biso   1.000  C
  C19      1.0000 0.55010  0.38280  0.57930  Biso   1.000  C
  C20      1.0000 0.94990  0.61720  0.07930  Biso   1.000  C
  C21      1.0000 0.55010  0.11720  0.57930  Biso   1.000  C
  C22      1.0000 0.94990  0.88280  0.07930  Biso   1.000  C
  C23      1.0000 0.44990  0.61720  0.42070  Biso   1.000  C
  C24      1.0000 0.05010  0.38280  0.92070  Biso   1.000  C
  H25      1.0000 0.43330  0.88390  0.48240  Biso   1.000  H
  H26      1.0000 0.06670  0.11610  0.98240  Biso   1.000  H
  H27      1.0000 0.56670  0.38390  0.51760  Biso   1.000  H
  H28      1.0000 0.93330  0.61610  0.01760  Biso   1.000  H
  H29      1.0000 0.56670  0.11610  0.51760  Biso   1.000  H
  H30      1.0000 0.93330  0.88390  0.01760  Biso   1.000  H
  H31      1.0000 0.43330  0.61610  0.48240  Biso   1.000  H
  H32      1.0000 0.06670  0.38390  0.98240  Biso   1.000  H
  H33      1.0000 0.49320  0.97110  0.40740  Biso   1.000  H
  H34      1.0000 0.00680  0.02890  0.90740  Biso   1.000  H
  H35      1.0000 0.50680  0.47110  0.59260  Biso   1.000  H
  H36      1.0000 0.99320  0.52890  0.09260  Biso   1.000  H
  H37      1.0000 0.50680  0.02890  0.59260  Biso   1.000  H
  H38      1.0000 0.99320  0.97110  0.09260  Biso   1.000  H
  H39      1.0000 0.49320  0.52890  0.40740  Biso   1.000  H
  H40      1.0000 0.00680  0.47110  0.90740  Biso   1.000  H
  C25      1.0000 0.54030  0.75000  0.30560  Biso   1.000  C
  C26      1.0000 0.95970  0.25000  0.80560  Biso   1.000  C
  C27      1.0000 0.45970  0.25000  0.69440  Biso   1.000  C
  C28      1.0000 0.04030  0.75000  0.19440  Biso   1.000  C
  H41      1.0000 0.58370  0.66380  0.29110  Biso   1.000  H
  H42      1.0000 0.91630  0.33620  0.79110  Biso   1.000  H
  H43      1.0000 0.41630  0.16380  0.70890  Biso   1.000  H
  H44      1.0000 0.08370  0.83620  0.20890  Biso   1.000  H
  H45      1.0000 0.41630  0.33620  0.70890  Biso   1.000  H
  H46      1.0000 0.08370  0.66380  0.20890  Biso   1.000  H
  H47      1.0000 0.58370  0.83620  0.29110  Biso   1.000  H
  H48      1.0000 0.91630  0.16380  0.79110  Biso   1.000  H
  N17      1.0000 0.38410  0.25000  0.39020  Biso   1.000  N
  N18      1.0000 0.11590  0.75000  0.89020  Biso   1.000  N
  N19      1.0000 0.61590  0.75000  0.60980  Biso   1.000  N
  N20      1.0000 0.88410  0.25000  0.10980  Biso   1.000  N
  H49      1.0000 0.56160  0.83160  0.00010  Biso   1.000  H
  H50      1.0000 0.93840  0.16840  0.50010  Biso   1.000  H
  H51      1.0000 0.43840  0.33160  0.99990  Biso   1.000  H
  H52      1.0000 0.06160  0.66840  0.49990  Biso   1.000  H
  H53      1.0000 0.43840  0.16840  0.99990  Biso   1.000  H
  H54      1.0000 0.06160  0.83160  0.49990  Biso   1.000  H
  H55      1.0000 0.56160  0.66840  0.00010  Biso   1.000  H
  H56      1.0000 0.93840  0.33160  0.50010  Biso   1.000  H
  Cu21     1.0000 0.10300  0.25000  0.23260  Biso   1.000  Cu
  Cu22     1.0000 0.39700  0.75000  0.73260  Biso   1.000  Cu
  Cu23     1.0000 0.89700  0.75000  0.76740  Biso   1.000  Cu
  Cu24     1.0000 0.60300  0.25000  0.26740  Biso   1.000  Cu
  Cu25     1.0000 0.17680  0.25000  0.27330  Biso   1.000  Cu
  Cu26     1.0000 0.32320  0.75000  0.77330  Biso   1.000  Cu
  Cu27     1.0000 0.82320  0.75000  0.72670  Biso   1.000  Cu
  Cu28     1.0000 0.67680  0.25000  0.22670  Biso   1.000  Cu
  H57      1.0000 0.27240  0.31750  0.14580  Biso   1.000  H
  H58      1.0000 0.22760  0.68250  0.64580  Biso   1.000  H
  H59      1.0000 0.72760  0.81750  0.85420  Biso   1.000  H
  H60      1.0000 0.77240  0.18250  0.35420  Biso   1.000  H
  H61      1.0000 0.72760  0.68250  0.85420  Biso   1.000  H
  H62      1.0000 0.77240  0.31750  0.35420  Biso   1.000  H
  H63      1.0000 0.27240  0.18250  0.14580  Biso   1.000  H
  H64      1.0000 0.22760  0.81750  0.64580  Biso   1.000  H
  H65      1.0000 0.29870  0.27320  0.23540  Biso   1.000  H
  H66      1.0000 0.20130  0.72680  0.73540  Biso   1.000  H
  H67      1.0000 0.70130  0.77320  0.76460  Biso   1.000  H
  H68      1.0000 0.79870  0.22680  0.26460  Biso   1.000  H
  H69      1.0000 0.70130  0.72680  0.76460  Biso   1.000  H
  H70      1.0000 0.79870  0.27320  0.26460  Biso   1.000  H
  H71      1.0000 0.29870  0.22680  0.23540  Biso   1.000  H
  H72      1.0000 0.20130  0.77320  0.73540  Biso   1.000  H
  H73      1.0000 0.27920  0.15930  0.16870  Biso   1.000  H
  H74      1.0000 0.22080  0.84070  0.66870  Biso   1.000  H
  H75      1.0000 0.72080  0.65930  0.83130  Biso   1.000  H
  H76      1.0000 0.77920  0.34070  0.33130  Biso   1.000  H
  H77      1.0000 0.72080  0.84070  0.83130  Biso   1.000  H
  H78      1.0000 0.77920  0.15930  0.33130  Biso   1.000  H
  H79      1.0000 0.27920  0.34070  0.16870  Biso   1.000  H
  H80      1.0000 0.22080  0.65930  0.66870  Biso   1.000  H
  H81      1.0000 0.46040  0.75000  0.97410  Biso   1.000  H
  H82      1.0000 0.03960  0.25000  0.47410  Biso   1.000  H
  H83      1.0000 0.53960  0.25000  0.02590  Biso   1.000  H
  H84      1.0000 0.96040  0.75000  0.52590  Biso   1.000  H
