data_image0
_cell_length_a       13.6658
_cell_length_b       13.1186
_cell_length_c       14.628
_cell_angle_alpha    90
_cell_angle_beta     90
_cell_angle_gamma    90

_symmetry_space_group_name_H-M    "P 1"
_symmetry_int_tables_number       1

loop_
  _symmetry_equiv_pos_as_xyz
  'x, y, z'

loop_
  _atom_site_label
  _atom_site_occupancy
  _atom_site_fract_x
  _atom_site_fract_y
  _atom_site_fract_z
  _atom_site_thermal_displace_type
  _atom_site_B_iso_or_equiv
  _atom_site_type_symbol
  Cu1      1.0000 0.18536  0.12069  0.18577  Biso   1.000  Cu
  Cu2      1.0000 0.31464  0.87931  0.68577  Biso   1.000  Cu
  Cu3      1.0000 0.81464  0.62069  0.31423  Biso   1.000  Cu
  Cu4      1.0000 0.68536  0.37931  0.81423  Biso   1.000  Cu
  Cu5      1.0000 0.81464  0.87931  0.81423  Biso   1.000  Cu
  Cu6      1.0000 0.68536  0.12069  0.31423  Biso   1.000  Cu
  Cu7      1.0000 0.18536  0.37931  0.68577  Biso   1.000  Cu
  Cu8      1.0000 0.31464  0.62069  0.18577  Biso   1.000  Cu
  Cu9      1.0000 0.15405  0.12847  0.35137  Biso   1.000  Cu
  Cu10     1.0000 0.34595  0.87153  0.85137  Biso   1.000  Cu
  Cu11     1.0000 0.84595  0.62847  0.14863  Biso   1.000  Cu
  Cu12     1.0000 0.65405  0.37153  0.64863  Biso   1.000  Cu
  Cu13     1.0000 0.84595  0.87153  0.64863  Biso   1.000  Cu
  Cu14     1.0000 0.65405  0.12847  0.14863  Biso   1.000  Cu
  Cu15     1.0000 0.15405  0.37153  0.85137  Biso   1.000  Cu
  Cu16     1.0000 0.34595  0.62847  0.35137  Biso   1.000  Cu
  Cu17     1.0000 0.14049  0.89689  0.34422  Biso   1.000  Cu
  Cu18     1.0000 0.35951  0.10311  0.84422  Biso   1.000  Cu
  Cu19     1.0000 0.85951  0.39689  0.15578  Biso   1.000  Cu
  Cu20     1.0000 0.64049  0.60311  0.65578  Biso   1.000  Cu
  Cu21     1.0000 0.85951  0.10311  0.65578  Biso   1.000  Cu
  Cu22     1.0000 0.64049  0.89689  0.15578  Biso   1.000  Cu
  Cu23     1.0000 0.14049  0.60311  0.84422  Biso   1.000  Cu
  Cu24     1.0000 0.35951  0.39689  0.34422  Biso   1.000  Cu
  Cl1      1.0000 0.03091  0.01880  0.28046  Biso   1.000  Cl
  Cl2      1.0000 0.46909  0.98120  0.78046  Biso   1.000  Cl
  Cl3      1.0000 0.96909  0.51880  0.21954  Biso   1.000  Cl
  Cl4      1.0000 0.53091  0.48120  0.71954  Biso   1.000  Cl
  Cl5      1.0000 0.96909  0.98120  0.71954  Biso   1.000  Cl
  Cl6      1.0000 0.53091  0.01880  0.21954  Biso   1.000  Cl
  Cl7      1.0000 0.03091  0.48120  0.78046  Biso   1.000  Cl
  Cl8      1.0000 0.46909  0.51880  0.28046  Biso   1.000  Cl
  Cl9      1.0000 0.24077  0.00385  0.43384  Biso   1.000  Cl
  Cl10     1.0000 0.25923  0.99615  0.93384  Biso   1.000  Cl
  Cl11     1.0000 0.75923  0.50385  0.06616  Biso   1.000  Cl
  Cl12     1.0000 0.74077  0.49615  0.56616  Biso   1.000  Cl
  Cl13     1.0000 0.75923  0.99615  0.56616  Biso   1.000  Cl
  Cl14     1.0000 0.74077  0.00385  0.06616  Biso   1.000  Cl
  Cl15     1.0000 0.24077  0.49615  0.93384  Biso   1.000  Cl
  Cl16     1.0000 0.25923  0.50385  0.43384  Biso   1.000  Cl
  N1       1.0000 0.96340  0.15090  0.97738  Biso   1.000  N
  N2       1.0000 0.53660  0.84910  0.47738  Biso   1.000  N
  N3       1.0000 0.03660  0.65090  0.52262  Biso   1.000  N
  N4       1.0000 0.46340  0.34910  0.02262  Biso   1.000  N
  N5       1.0000 0.03660  0.84910  0.02262  Biso   1.000  N
  N6       1.0000 0.46340  0.15090  0.52262  Biso   1.000  N
  N7       1.0000 0.96340  0.34910  0.47738  Biso   1.000  N
  N8       1.0000 0.53660  0.65090  0.97738  Biso   1.000  N
  N9       1.0000 0.07747  0.29020  0.95199  Biso   1.000  N
  N10      1.0000 0.42253  0.70980  0.45199  Biso   1.000  N
  N11      1.0000 0.92253  0.79020  0.54801  Biso   1.000  N
  N12      1.0000 0.57747  0.20980  0.04801  Biso   1.000  N
  N13      1.0000 0.92253  0.70980  0.04801  Biso   1.000  N
  N14      1.0000 0.57747  0.29020  0.54801  Biso   1.000  N
  N15      1.0000 0.07747  0.20980  0.45199  Biso   1.000  N
  N16      1.0000 0.42253  0.79020  0.95199  Biso   1.000  N
  N17      1.0000 0.22160  0.79460  0.28140  Biso   1.000  N
  N18      1.0000 0.27840  0.20540  0.78140  Biso   1.000  N
  N19      1.0000 0.77840  0.29460  0.21860  Biso   1.000  N
  N20      1.0000 0.72160  0.70540  0.71860  Biso   1.000  N
  N21      1.0000 0.77840  0.20540  0.71860  Biso   1.000  N
  N22      1.0000 0.72160  0.79460  0.21860  Biso   1.000  N
  N23      1.0000 0.22160  0.70540  0.78140  Biso   1.000  N
  N24      1.0000 0.27840  0.29460  0.28140  Biso   1.000  N
  N25      1.0000 0.95448  0.30370  0.07266  Biso   1.000  N
  N26      1.0000 0.54552  0.69630  0.57266  Biso   1.000  N
  N27      1.0000 0.04552  0.80370  0.42734  Biso   1.000  N
  N28      1.0000 0.45448  0.19630  0.92734  Biso   1.000  N
  N29      1.0000 0.04552  0.69630  0.92734  Biso   1.000  N
  N30      1.0000 0.45448  0.30370  0.42734  Biso   1.000  N
  N31      1.0000 0.95448  0.19630  0.57266  Biso   1.000  N
  N32      1.0000 0.54552  0.80370  0.07266  Biso   1.000  N
  C1       1.0000 0.01800  0.20680  0.90920  Biso   1.000  C
  C2       1.0000 0.48200  0.79320  0.40920  Biso   1.000  C
  C3       1.0000 0.98200  0.70680  0.59080  Biso   1.000  C
  C4       1.0000 0.51800  0.29320  0.09080  Biso   1.000  C
  C5       1.0000 0.98200  0.79320  0.09080  Biso   1.000  C
  C6       1.0000 0.51800  0.20680  0.59080  Biso   1.000  C
  C7       1.0000 0.01800  0.29320  0.40920  Biso   1.000  C
  C8       1.0000 0.48200  0.70680  0.90920  Biso   1.000  C
  H1       1.0000 0.97300  0.23610  0.86510  Biso   1.000  H
  H2       1.0000 0.52700  0.76390  0.36510  Biso   1.000  H
  H3       1.0000 0.02700  0.73610  0.63490  Biso   1.000  H
  H4       1.0000 0.47300  0.26390  0.13490  Biso   1.000  H
  H5       1.0000 0.02700  0.76390  0.13490  Biso   1.000  H
  H6       1.0000 0.47300  0.23610  0.63490  Biso   1.000  H
  H7       1.0000 0.97300  0.26390  0.36510  Biso   1.000  H
  H8       1.0000 0.52700  0.73610  0.86510  Biso   1.000  H
  H9       1.0000 0.06110  0.16040  0.87690  Biso   1.000  H
  H10      1.0000 0.43890  0.83960  0.37690  Biso   1.000  H
  H11      1.0000 0.93890  0.66040  0.62310  Biso   1.000  H
  H12      1.0000 0.56110  0.33960  0.12310  Biso   1.000  H
  H13      1.0000 0.93890  0.83960  0.12310  Biso   1.000  H
  H14      1.0000 0.56110  0.16040  0.62310  Biso   1.000  H
  H15      1.0000 0.06110  0.33960  0.37690  Biso   1.000  H
  H16      1.0000 0.43890  0.66040  0.87690  Biso   1.000  H
  N33      1.0000 0.09151  0.18570  0.08978  Biso   1.000  N
  N34      1.0000 0.40849  0.81430  0.58978  Biso   1.000  N
  N35      1.0000 0.90849  0.68570  0.41022  Biso   1.000  N
  N36      1.0000 0.59151  0.31430  0.91022  Biso   1.000  N
  N37      1.0000 0.90849  0.81430  0.91022  Biso   1.000  N
  N38      1.0000 0.59151  0.18570  0.41022  Biso   1.000  N
  N39      1.0000 0.09151  0.31430  0.58978  Biso   1.000  N
  N40      1.0000 0.40849  0.68570  0.08978  Biso   1.000  N
  C9       1.0000 0.26810  0.72710  0.27430  Biso   1.000  C
  C10      1.0000 0.23190  0.27290  0.77430  Biso   1.000  C
  C11      1.0000 0.73190  0.22710  0.22570  Biso   1.000  C
  C12      1.0000 0.76810  0.77290  0.72570  Biso   1.000  C
  C13      1.0000 0.73190  0.27290  0.72570  Biso   1.000  C
  C14      1.0000 0.76810  0.72710  0.22570  Biso   1.000  C
  C15      1.0000 0.26810  0.77290  0.77430  Biso   1.000  C
  C16      1.0000 0.23190  0.22710  0.27430  Biso   1.000  C
  C17      1.0000 0.14460  0.24300  0.01830  Biso   1.000  C
  C18      1.0000 0.35540  0.75700  0.51830  Biso   1.000  C
  C19      1.0000 0.85540  0.74300  0.48170  Biso   1.000  C
  C20      1.0000 0.64460  0.25700  0.98170  Biso   1.000  C
  C21      1.0000 0.85540  0.75700  0.98170  Biso   1.000  C
  C22      1.0000 0.64460  0.24300  0.48170  Biso   1.000  C
  C23      1.0000 0.14460  0.25700  0.51830  Biso   1.000  C
  C24      1.0000 0.35540  0.74300  0.01830  Biso   1.000  C
  H17      1.0000 0.18380  0.29570  0.04700  Biso   1.000  H
  H18      1.0000 0.31620  0.70430  0.54700  Biso   1.000  H
  H19      1.0000 0.81620  0.79570  0.45300  Biso   1.000  H
  H20      1.0000 0.68380  0.20430  0.95300  Biso   1.000  H
  H21      1.0000 0.81620  0.70430  0.95300  Biso   1.000  H
  H22      1.0000 0.68380  0.29570  0.45300  Biso   1.000  H
  H23      1.0000 0.18380  0.20430  0.54700  Biso   1.000  H
  H24      1.0000 0.31620  0.79570  0.04700  Biso   1.000  H
  H25      1.0000 0.18860  0.19720  0.98640  Biso   1.000  H
  H26      1.0000 0.31140  0.80280  0.48640  Biso   1.000  H
  H27      1.0000 0.81140  0.69720  0.51360  Biso   1.000  H
  H28      1.0000 0.68860  0.30280  0.01360  Biso   1.000  H
  H29      1.0000 0.81140  0.80280  0.01360  Biso   1.000  H
  H30      1.0000 0.68860  0.19720  0.51360  Biso   1.000  H
  H31      1.0000 0.18860  0.30280  0.48640  Biso   1.000  H
  H32      1.0000 0.31140  0.69720  0.98640  Biso   1.000  H
  C25      1.0000 0.03160  0.10600  0.04260  Biso   1.000  C
  C26      1.0000 0.46840  0.89400  0.54260  Biso   1.000  C
  C27      1.0000 0.96840  0.60600  0.45740  Biso   1.000  C
  C28      1.0000 0.53160  0.39400  0.95740  Biso   1.000  C
  C29      1.0000 0.96840  0.89400  0.95740  Biso   1.000  C
  C30      1.0000 0.53160  0.10600  0.45740  Biso   1.000  C
  C31      1.0000 0.03160  0.39400  0.54260  Biso   1.000  C
  C32      1.0000 0.46840  0.60600  0.04260  Biso   1.000  C
  H33      1.0000 0.07480  0.05920  0.01070  Biso   1.000  H
  H34      1.0000 0.42520  0.94080  0.51070  Biso   1.000  H
  H35      1.0000 0.92520  0.55920  0.48930  Biso   1.000  H
  H36      1.0000 0.57480  0.44080  0.98930  Biso   1.000  H
  H37      1.0000 0.92520  0.94080  0.98930  Biso   1.000  H
  H38      1.0000 0.57480  0.05920  0.48930  Biso   1.000  H
  H39      1.0000 0.07480  0.44080  0.51070  Biso   1.000  H
  H40      1.0000 0.42520  0.55920  0.01070  Biso   1.000  H
  H41      1.0000 0.99530  0.06730  0.08780  Biso   1.000  H
  H42      1.0000 0.50470  0.93270  0.58780  Biso   1.000  H
  H43      1.0000 0.00470  0.56730  0.41220  Biso   1.000  H
  H44      1.0000 0.49530  0.43270  0.91220  Biso   1.000  H
  H45      1.0000 0.00470  0.93270  0.91220  Biso   1.000  H
  H46      1.0000 0.49530  0.06730  0.41220  Biso   1.000  H
  H47      1.0000 0.99530  0.43270  0.58780  Biso   1.000  H
  H48      1.0000 0.50470  0.56730  0.08780  Biso   1.000  H
  C33      1.0000 0.02370  0.25620  0.13690  Biso   1.000  C
  C34      1.0000 0.47630  0.74380  0.63690  Biso   1.000  C
  C35      1.0000 0.97630  0.75620  0.36310  Biso   1.000  C
  C36      1.0000 0.52370  0.24380  0.86310  Biso   1.000  C
  C37      1.0000 0.97630  0.74380  0.86310  Biso   1.000  C
  C38      1.0000 0.52370  0.25620  0.36310  Biso   1.000  C
  C39      1.0000 0.02370  0.24380  0.63690  Biso   1.000  C
  C40      1.0000 0.47630  0.75620  0.13690  Biso   1.000  C
  H49      1.0000 0.98750  0.21900  0.18310  Biso   1.000  H
  H50      1.0000 0.51250  0.78100  0.68310  Biso   1.000  H
  H51      1.0000 0.01250  0.71900  0.31690  Biso   1.000  H
  H52      1.0000 0.48750  0.28100  0.81690  Biso   1.000  H
  H53      1.0000 0.01250  0.78100  0.81690  Biso   1.000  H
  H54      1.0000 0.48750  0.21900  0.31690  Biso   1.000  H
  H55      1.0000 0.98750  0.28100  0.68310  Biso   1.000  H
  H56      1.0000 0.51250  0.71900  0.18310  Biso   1.000  H
  H57      1.0000 0.06120  0.30900  0.16730  Biso   1.000  H
  H58      1.0000 0.43880  0.69100  0.66730  Biso   1.000  H
  H59      1.0000 0.93880  0.80900  0.33270  Biso   1.000  H
  H60      1.0000 0.56120  0.19100  0.83270  Biso   1.000  H
  H61      1.0000 0.93880  0.69100  0.83270  Biso   1.000  H
  H62      1.0000 0.56120  0.30900  0.33270  Biso   1.000  H
  H63      1.0000 0.06120  0.19100  0.66730  Biso   1.000  H
  H64      1.0000 0.43880  0.80900  0.16730  Biso   1.000  H
  C41      1.0000 0.01040  0.35920  0.00250  Biso   1.000  C
  C42      1.0000 0.48960  0.64080  0.50250  Biso   1.000  C
  C43      1.0000 0.98960  0.85920  0.49750  Biso   1.000  C
  C44      1.0000 0.51040  0.14080  0.99750  Biso   1.000  C
  C45      1.0000 0.98960  0.64080  0.99750  Biso   1.000  C
  C46      1.0000 0.51040  0.35920  0.49750  Biso   1.000  C
  C47      1.0000 0.01040  0.14080  0.50250  Biso   1.000  C
  C48      1.0000 0.48960  0.85920  0.00250  Biso   1.000  C
  H65      1.0000 0.04820  0.41280  0.03150  Biso   1.000  H
  H66      1.0000 0.45180  0.58720  0.53150  Biso   1.000  H
  H67      1.0000 0.95180  0.91280  0.46850  Biso   1.000  H
  H68      1.0000 0.54820  0.08720  0.96850  Biso   1.000  H
  H69      1.0000 0.95180  0.58720  0.96850  Biso   1.000  H
  H70      1.0000 0.54820  0.41280  0.46850  Biso   1.000  H
  H71      1.0000 0.04820  0.08720  0.53150  Biso   1.000  H
  H72      1.0000 0.45180  0.91280  0.03150  Biso   1.000  H
  H73      1.0000 0.96540  0.39080  0.95980  Biso   1.000  H
  H74      1.0000 0.53460  0.60920  0.45980  Biso   1.000  H
  H75      1.0000 0.03460  0.89080  0.54020  Biso   1.000  H
  H76      1.0000 0.46540  0.10920  0.04020  Biso   1.000  H
  H77      1.0000 0.03460  0.60920  0.04020  Biso   1.000  H
  H78      1.0000 0.46540  0.39080  0.54020  Biso   1.000  H
  H79      1.0000 0.96540  0.10920  0.45980  Biso   1.000  H
  H80      1.0000 0.53460  0.89080  0.95980  Biso   1.000  H
  C49      1.0000 0.89850  0.22140  0.02570  Biso   1.000  C
  C50      1.0000 0.60150  0.77860  0.52570  Biso   1.000  C
  C51      1.0000 0.10150  0.72140  0.47430  Biso   1.000  C
  C52      1.0000 0.39850  0.27860  0.97430  Biso   1.000  C
  C53      1.0000 0.10150  0.77860  0.97430  Biso   1.000  C
  C54      1.0000 0.39850  0.22140  0.47430  Biso   1.000  C
  C55      1.0000 0.89850  0.27860  0.52570  Biso   1.000  C
  C56      1.0000 0.60150  0.72140  0.02570  Biso   1.000  C
  H81      1.0000 0.86060  0.18390  0.07060  Biso   1.000  H
  H82      1.0000 0.63940  0.81610  0.57060  Biso   1.000  H
  H83      1.0000 0.13940  0.68390  0.42940  Biso   1.000  H
  H84      1.0000 0.36060  0.31610  0.92940  Biso   1.000  H
  H85      1.0000 0.13940  0.81610  0.92940  Biso   1.000  H
  H86      1.0000 0.36060  0.18390  0.42940  Biso   1.000  H
  H87      1.0000 0.86060  0.31610  0.57060  Biso   1.000  H
  H88      1.0000 0.63940  0.68390  0.07060  Biso   1.000  H
  H89      1.0000 0.85320  0.25170  0.98250  Biso   1.000  H
  H90      1.0000 0.64680  0.74830  0.48250  Biso   1.000  H
  H91      1.0000 0.14680  0.75170  0.51750  Biso   1.000  H
  H92      1.0000 0.35320  0.24830  0.01750  Biso   1.000  H
  H93      1.0000 0.14680  0.74830  0.01750  Biso   1.000  H
  H94      1.0000 0.35320  0.25170  0.51750  Biso   1.000  H
  H95      1.0000 0.85320  0.24830  0.48250  Biso   1.000  H
  H96      1.0000 0.64680  0.75170  0.98250  Biso   1.000  H
  O1       1.0000 0.26790  0.00030  0.15810  Biso   1.000  O
  O2       1.0000 0.23210  0.99970  0.65810  Biso   1.000  O
  O3       1.0000 0.73210  0.50030  0.34190  Biso   1.000  O
  O4       1.0000 0.76790  0.49970  0.84190  Biso   1.000  O
  O5       1.0000 0.73210  0.99970  0.84190  Biso   1.000  O
  O6       1.0000 0.76790  0.00030  0.34190  Biso   1.000  O
  O7       1.0000 0.26790  0.49970  0.65810  Biso   1.000  O
  O8       1.0000 0.23210  0.50030  0.15810  Biso   1.000  O
  H97      1.0000 0.27940  0.99740  0.09760  Biso   1.000  H
  H98      1.0000 0.22060  0.00260  0.59760  Biso   1.000  H
  H99      1.0000 0.72060  0.49740  0.40240  Biso   1.000  H
  H100     1.0000 0.77940  0.50260  0.90240  Biso   1.000  H
  H101     1.0000 0.72060  0.00260  0.90240  Biso   1.000  H
  H102     1.0000 0.77940  0.99740  0.40240  Biso   1.000  H
  H103     1.0000 0.27940  0.50260  0.59760  Biso   1.000  H
  H104     1.0000 0.22060  0.49740  0.09760  Biso   1.000  H
  H105     1.0000 0.32510  0.00560  0.18830  Biso   1.000  H
  H106     1.0000 0.17490  0.99440  0.68830  Biso   1.000  H
  H107     1.0000 0.67490  0.50560  0.31170  Biso   1.000  H
  H108     1.0000 0.82510  0.49440  0.81170  Biso   1.000  H
  H109     1.0000 0.67490  0.99440  0.81170  Biso   1.000  H
  H110     1.0000 0.82510  0.00560  0.31170  Biso   1.000  H
  H111     1.0000 0.32510  0.49440  0.68830  Biso   1.000  H
  H112     1.0000 0.17490  0.50560  0.18830  Biso   1.000  H
  H113     1.0000 0.23660  0.94340  0.17600  Biso   1.000  H
  H114     1.0000 0.26340  0.05660  0.67600  Biso   1.000  H
  H115     1.0000 0.76340  0.44340  0.32400  Biso   1.000  H
  H116     1.0000 0.73660  0.55660  0.82400  Biso   1.000  H
  H117     1.0000 0.76340  0.05660  0.82400  Biso   1.000  H
  H118     1.0000 0.73660  0.94340  0.32400  Biso   1.000  H
  H119     1.0000 0.23660  0.55660  0.67600  Biso   1.000  H
  H120     1.0000 0.26340  0.44340  0.17600  Biso   1.000  H
