data_image0
_cell_length_a       10.749
_cell_length_b       10.987
_cell_length_c       11.774
_cell_angle_alpha    68.908
_cell_angle_beta     64.794
_cell_angle_gamma    76.046

_symmetry_space_group_name_H-M    "P 1"
_symmetry_int_tables_number       1

loop_
  _symmetry_equiv_pos_as_xyz
  'x, y, z'

loop_
  _atom_site_label
  _atom_site_occupancy
  _atom_site_fract_x
  _atom_site_fract_y
  _atom_site_fract_z
  _atom_site_thermal_displace_type
  _atom_site_B_iso_or_equiv
  _atom_site_type_symbol
  Br1      1.0000 0.24294  0.23729  0.61435  Biso   1.000  Br
  Br2      1.0000 0.75706  0.76271  0.38565  Biso   1.000  Br
  Br3      1.0000 0.15887  0.60648  0.38447  Biso   1.000  Br
  Br4      1.0000 0.84113  0.39352  0.61553  Biso   1.000  Br
  C1       1.0000 0.92340  0.19400  0.06600  Biso   1.000  C
  C2       1.0000 0.07660  0.80600  0.93400  Biso   1.000  C
  H1       1.0000 0.93950  0.22510  0.12170  Biso   1.000  H
  H2       1.0000 0.06050  0.77490  0.87830  Biso   1.000  H
  C3       1.0000 0.83720  0.10320  0.10400  Biso   1.000  C
  C4       1.0000 0.16280  0.89680  0.89600  Biso   1.000  C
  H3       1.0000 0.78470  0.05980  0.18990  Biso   1.000  H
  H4       1.0000 0.21530  0.94020  0.81010  Biso   1.000  H
  C5       1.0000 0.93010  0.16770  0.89070  Biso   1.000  C
  C6       1.0000 0.06990  0.83230  0.10930  Biso   1.000  C
  H5       1.0000 0.95140  0.17690  0.80290  Biso   1.000  H
  H6       1.0000 0.04860  0.82310  0.19710  Biso   1.000  H
  C7       1.0000 0.76330  0.00170  0.98400  Biso   1.000  C
  C8       1.0000 0.23670  0.99830  0.01600  Biso   1.000  C
  C9       1.0000 0.66560  0.93710  0.09790  Biso   1.000  C
  C10      1.0000 0.33440  0.06290  0.90210  Biso   1.000  C
  H7       1.0000 0.65160  0.94820  0.17730  Biso   1.000  H
  H8       1.0000 0.34840  0.05180  0.82270  Biso   1.000  H
  C11      1.0000 0.58750  0.85540  0.09530  Biso   1.000  C
  C12      1.0000 0.41250  0.14460  0.90470  Biso   1.000  C
  H9       1.0000 0.52040  0.81190  0.17210  Biso   1.000  H
  H10      1.0000 0.47960  0.18810  0.82790  Biso   1.000  H
  C13      1.0000 0.61140  0.84010  0.97690  Biso   1.000  C
  C14      1.0000 0.38860  0.15990  0.02310  Biso   1.000  C
  C15      1.0000 0.71230  0.90300  0.86030  Biso   1.000  C
  C16      1.0000 0.28770  0.09700  0.13970  Biso   1.000  C
  C17      1.0000 0.78860  0.98480  0.86550  Biso   1.000  C
  C18      1.0000 0.21140  0.01520  0.13450  Biso   1.000  C
  H11      1.0000 0.85640  0.02800  0.78930  Biso   1.000  H
  H12      1.0000 0.14360  0.97200  0.21070  Biso   1.000  H
  C19      1.0000 0.71840  0.86760  0.74410  Biso   1.000  C
  C20      1.0000 0.28160  0.13240  0.25590  Biso   1.000  C
  C21      1.0000 0.60100  0.77730  0.81240  Biso   1.000  C
  C22      1.0000 0.39900  0.22270  0.18760  Biso   1.000  C
  C23      1.0000 0.54200  0.76130  0.94740  Biso   1.000  C
  C24      1.0000 0.45800  0.23870  0.05260  Biso   1.000  C
  C25      1.0000 0.43170  0.68650  0.02880  Biso   1.000  C
  C26      1.0000 0.56830  0.31350  0.97120  Biso   1.000  C
  H13      1.0000 0.39180  0.67620  0.11850  Biso   1.000  H
  H14      1.0000 0.60820  0.32380  0.88150  Biso   1.000  H
  C27      1.0000 0.38360  0.62820  0.97130  Biso   1.000  C
  C28      1.0000 0.61640  0.37180  0.02870  Biso   1.000  C
  H15      1.0000 0.30900  0.57880  0.02340  Biso   1.000  H
  H16      1.0000 0.69100  0.42120  0.97660  Biso   1.000  H
  C29      1.0000 0.44310  0.64110  0.83940  Biso   1.000  C
  C30      1.0000 0.55690  0.35890  0.16060  Biso   1.000  C
  C31      1.0000 0.55390  0.71360  0.75800  Biso   1.000  C
  C32      1.0000 0.44610  0.28640  0.24200  Biso   1.000  C
  H17      1.0000 0.59580  0.71960  0.66910  Biso   1.000  H
  H18      1.0000 0.40420  0.28040  0.33090  Biso   1.000  H
  C33      1.0000 0.28470  0.50430  0.84770  Biso   1.000  C
  C34      1.0000 0.71530  0.49570  0.15230  Biso   1.000  C
  H19      1.0000 0.23810  0.48670  0.92810  Biso   1.000  H
  H20      1.0000 0.76190  0.51330  0.07190  Biso   1.000  H
  C35      1.0000 0.86000  0.79310  0.68360  Biso   1.000  C
  C36      1.0000 0.14000  0.20690  0.31640  Biso   1.000  C
  H21      1.0000 0.86080  0.77510  0.60850  Biso   1.000  H
  H22      1.0000 0.13920  0.22490  0.39150  Biso   1.000  H
  H23      1.0000 0.93090  0.85090  0.65120  Biso   1.000  H
  H24      1.0000 0.06910  0.14910  0.34880  Biso   1.000  H
  C37      1.0000 0.89960  0.66500  0.77320  Biso   1.000  C
  C38      1.0000 0.10040  0.33500  0.22680  Biso   1.000  C
  H25      1.0000 0.88320  0.67740  0.85530  Biso   1.000  H
  H26      1.0000 0.11680  0.32260  0.14470  Biso   1.000  H
  H27      1.0000 0.99580  0.63740  0.73250  Biso   1.000  H
  H28      1.0000 0.00420  0.36260  0.26750  Biso   1.000  H
  H29      1.0000 0.84500  0.59920  0.78840  Biso   1.000  H
  H30      1.0000 0.15500  0.40080  0.21160  Biso   1.000  H
  C39      1.0000 0.67980  0.98540  0.63790  Biso   1.000  C
  C40      1.0000 0.32020  0.01460  0.36210  Biso   1.000  C
  H31      1.0000 0.66300  0.95080  0.58120  Biso   1.000  H
  H32      1.0000 0.33700  0.04920  0.41880  Biso   1.000  H
  H33      1.0000 0.59380  0.03220  0.68170  Biso   1.000  H
  H34      1.0000 0.40620  0.96780  0.31830  Biso   1.000  H
  C41      1.0000 0.78150  0.07890  0.55600  Biso   1.000  C
  C42      1.0000 0.21850  0.92110  0.44400  Biso   1.000  C
  H35      1.0000 0.77050  0.14090  0.60080  Biso   1.000  H
  H36      1.0000 0.22950  0.85910  0.39920  Biso   1.000  H
  H37      1.0000 0.76840  0.12450  0.47480  Biso   1.000  H
  H38      1.0000 0.23160  0.87550  0.52520  Biso   1.000  H
  H39      1.0000 0.87270  0.03320  0.53840  Biso   1.000  H
  H40      1.0000 0.12730  0.96680  0.46160  Biso   1.000  H
  Cu1      1.0000 0.13094  0.33972  0.82370  Biso   1.000  Cu
  Cu2      1.0000 0.86906  0.66028  0.17630  Biso   1.000  Cu
  Cu3      1.0000 0.08466  0.40153  0.54748  Biso   1.000  Cu
  Cu4      1.0000 0.91534  0.59847  0.45252  Biso   1.000  Cu
  N1       1.0000 0.98320  0.23250  0.93200  Biso   1.000  N
  N2       1.0000 0.01680  0.76750  0.06800  Biso   1.000  N
  N3       1.0000 0.84170  0.08740  0.99180  Biso   1.000  N
  N4       1.0000 0.15830  0.91260  0.00820  Biso   1.000  N
  N5       1.0000 0.39030  0.57900  0.78420  Biso   1.000  N
  N6       1.0000 0.60970  0.42100  0.21580  Biso   1.000  N
  C43      1.0000 0.32620  0.53720  0.64770  Biso   1.000  C
  C44      1.0000 0.67380  0.46280  0.35230  Biso   1.000  C
  H41      1.0000 0.32870  0.53200  0.56970  Biso   1.000  H
  H42      1.0000 0.67130  0.46800  0.43030  Biso   1.000  H
  C45      1.0000 0.40200  0.61410  0.65780  Biso   1.000  C
  C46      1.0000 0.59800  0.38590  0.34220  Biso   1.000  C
  H43      1.0000 0.45270  0.67960  0.58910  Biso   1.000  H
  H44      1.0000 0.54730  0.32040  0.41090  Biso   1.000  H
  N7       1.0000 0.25100  0.47300  0.76400  Biso   1.000  N
  N8       1.0000 0.74900  0.52700  0.23600  Biso   1.000  N
  N9       1.0000 0.26800  0.44600  0.78200  Biso   1.000  N
  N10      1.0000 0.73200  0.55400  0.21800  Biso   1.000  N
  C47      1.0000 0.46100  0.55100  0.66250  Biso   1.000  C
  C48      1.0000 0.53900  0.44900  0.33750  Biso   1.000  C
  H45      1.0000 0.54340  0.58070  0.59710  Biso   1.000  H
  H46      1.0000 0.45660  0.41930  0.40290  Biso   1.000  H
  C49      1.0000 0.38500  0.47400  0.66100  Biso   1.000  C
  C50      1.0000 0.61500  0.52600  0.33900  Biso   1.000  C
  H47      1.0000 0.40560  0.44130  0.59180  Biso   1.000  H
  H48      1.0000 0.59440  0.55870  0.40820  Biso   1.000  H
