data_image0
_cell_length_a       13.718
_cell_length_b       10.1127
_cell_length_c       19.0653
_cell_angle_alpha    90
_cell_angle_beta     108.971
_cell_angle_gamma    90

_symmetry_space_group_name_H-M    "P 1"
_symmetry_int_tables_number       1

loop_
  _symmetry_equiv_pos_as_xyz
  'x, y, z'

loop_
  _atom_site_label
  _atom_site_occupancy
  _atom_site_fract_x
  _atom_site_fract_y
  _atom_site_fract_z
  _atom_site_thermal_displace_type
  _atom_site_B_iso_or_equiv
  _atom_site_type_symbol
  Cu1      1.0000 0.76404  0.30916  0.48526  Biso   1.000  Cu
  Cu2      1.0000 0.76404  0.19084  0.98526  Biso   1.000  Cu
  Cu3      1.0000 0.23596  0.69084  0.51474  Biso   1.000  Cu
  Cu4      1.0000 0.23596  0.80916  0.01474  Biso   1.000  Cu
  Cl1      1.0000 0.69957  0.79804  0.67280  Biso   1.000  Cl
  Cl2      1.0000 0.69957  0.70196  0.17280  Biso   1.000  Cl
  Cl3      1.0000 0.30043  0.20196  0.32720  Biso   1.000  Cl
  Cl4      1.0000 0.30043  0.29804  0.82720  Biso   1.000  Cl
  O1       1.0000 0.76800  0.69080  0.67500  Biso   1.000  O
  O2       1.0000 0.76800  0.80920  0.17500  Biso   1.000  O
  O3       1.0000 0.23200  0.30920  0.32500  Biso   1.000  O
  O4       1.0000 0.23200  0.19080  0.82500  Biso   1.000  O
  O5       1.0000 0.66420  0.79120  0.73335  Biso   1.000  O
  O6       1.0000 0.66420  0.70880  0.23335  Biso   1.000  O
  O7       1.0000 0.33580  0.20880  0.26665  Biso   1.000  O
  O8       1.0000 0.33580  0.29120  0.76665  Biso   1.000  O
  O9       1.0000 0.75030  0.91970  0.67736  Biso   1.000  O
  O10      1.0000 0.75030  0.58030  0.17736  Biso   1.000  O
  O11      1.0000 0.24970  0.08030  0.32264  Biso   1.000  O
  O12      1.0000 0.24970  0.41970  0.82264  Biso   1.000  O
  O13      1.0000 0.61540  0.79560  0.60652  Biso   1.000  O
  O14      1.0000 0.61540  0.70440  0.10652  Biso   1.000  O
  O15      1.0000 0.38460  0.20440  0.39348  Biso   1.000  O
  O16      1.0000 0.38460  0.29560  0.89348  Biso   1.000  O
  N1       1.0000 0.69640  0.46620  0.51146  Biso   1.000  N
  N2       1.0000 0.69640  0.03380  0.01146  Biso   1.000  N
  N3       1.0000 0.30360  0.53380  0.48854  Biso   1.000  N
  N4       1.0000 0.30360  0.96620  0.98854  Biso   1.000  N
  N5       1.0000 0.81030  0.46240  0.41004  Biso   1.000  N
  N6       1.0000 0.81030  0.03760  0.91004  Biso   1.000  N
  N7       1.0000 0.18970  0.53760  0.58996  Biso   1.000  N
  N8       1.0000 0.18970  0.96240  0.08996  Biso   1.000  N
  N9       1.0000 0.39100  0.99860  0.65084  Biso   1.000  N
  N10      1.0000 0.39100  0.50140  0.15084  Biso   1.000  N
  N11      1.0000 0.60900  0.00140  0.34916  Biso   1.000  N
  N12      1.0000 0.60900  0.49860  0.84916  Biso   1.000  N
  N13      1.0000 0.28980  0.85100  0.57692  Biso   1.000  N
  N14      1.0000 0.28980  0.64900  0.07692  Biso   1.000  N
  N15      1.0000 0.71020  0.14900  0.42308  Biso   1.000  N
  N16      1.0000 0.71020  0.35100  0.92308  Biso   1.000  N
  N17      1.0000 0.02640  0.86700  0.33094  Biso   1.000  N
  N18      1.0000 0.02640  0.63300  0.83094  Biso   1.000  N
  N19      1.0000 0.97360  0.13300  0.66906  Biso   1.000  N
  N20      1.0000 0.97360  0.36700  0.16906  Biso   1.000  N
  N21      1.0000 0.11350  0.75320  0.43023  Biso   1.000  N
  N22      1.0000 0.11350  0.74680  0.93023  Biso   1.000  N
  N23      1.0000 0.88650  0.24680  0.56977  Biso   1.000  N
  N24      1.0000 0.88650  0.25320  0.06977  Biso   1.000  N
  C1       1.0000 0.74000  0.58890  0.49207  Biso   1.000  C
  C2       1.0000 0.74000  0.91110  0.99207  Biso   1.000  C
  C3       1.0000 0.26000  0.41110  0.50793  Biso   1.000  C
  C4       1.0000 0.26000  0.08890  0.00793  Biso   1.000  C
  H1       1.0000 0.80850  0.60540  0.52920  Biso   1.000  H
  H2       1.0000 0.80850  0.89460  0.02920  Biso   1.000  H
  H3       1.0000 0.19150  0.39460  0.47080  Biso   1.000  H
  H4       1.0000 0.19150  0.10540  0.97080  Biso   1.000  H
  H5       1.0000 0.69470  0.66430  0.49360  Biso   1.000  H
  H6       1.0000 0.69470  0.83570  0.99360  Biso   1.000  H
  H7       1.0000 0.30530  0.33570  0.50640  Biso   1.000  H
  H8       1.0000 0.30530  0.16430  0.00640  Biso   1.000  H
  C5       1.0000 0.75060  0.58020  0.41660  Biso   1.000  C
  C6       1.0000 0.75060  0.91980  0.91660  Biso   1.000  C
  C7       1.0000 0.24940  0.41980  0.58340  Biso   1.000  C
  C8       1.0000 0.24940  0.08020  0.08340  Biso   1.000  C
  H9       1.0000 0.68120  0.57590  0.37880  Biso   1.000  H
  H10      1.0000 0.68120  0.92410  0.87880  Biso   1.000  H
  H11      1.0000 0.31880  0.42410  0.62120  Biso   1.000  H
  H12      1.0000 0.31880  0.07590  0.12120  Biso   1.000  H
  H13      1.0000 0.78550  0.66060  0.40700  Biso   1.000  H
  H14      1.0000 0.78550  0.83940  0.90700  Biso   1.000  H
  H15      1.0000 0.21450  0.33940  0.59300  Biso   1.000  H
  H16      1.0000 0.21450  0.16060  0.09300  Biso   1.000  H
  C9       1.0000 0.63650  0.47950  0.54967  Biso   1.000  C
  C10      1.0000 0.63650  0.02050  0.04967  Biso   1.000  C
  C11      1.0000 0.36350  0.52050  0.45033  Biso   1.000  C
  C12      1.0000 0.36350  0.97950  0.95033  Biso   1.000  C
  H17      1.0000 0.61760  0.56710  0.55790  Biso   1.000  H
  H18      1.0000 0.61760  0.93290  0.05790  Biso   1.000  H
  H19      1.0000 0.38240  0.43290  0.44210  Biso   1.000  H
  H20      1.0000 0.38240  0.06710  0.94210  Biso   1.000  H
  C13      1.0000 0.59400  0.37220  0.58200  Biso   1.000  C
  C14      1.0000 0.59400  0.12780  0.08200  Biso   1.000  C
  C15      1.0000 0.40600  0.62780  0.41800  Biso   1.000  C
  C16      1.0000 0.40600  0.87220  0.91800  Biso   1.000  C
  C17      1.0000 0.59110  0.24160  0.56032  Biso   1.000  C
  C18      1.0000 0.59110  0.25840  0.06032  Biso   1.000  C
  C19      1.0000 0.40890  0.75840  0.43968  Biso   1.000  C
  C20      1.0000 0.40890  0.74160  0.93968  Biso   1.000  C
  H21      1.0000 0.61480  0.21900  0.52020  Biso   1.000  H
  H22      1.0000 0.61480  0.28100  0.02020  Biso   1.000  H
  H23      1.0000 0.38520  0.78100  0.47980  Biso   1.000  H
  H24      1.0000 0.38520  0.71900  0.97980  Biso   1.000  H
  C21      1.0000 0.55490  0.14340  0.59541  Biso   1.000  C
  C22      1.0000 0.55490  0.35660  0.09541  Biso   1.000  C
  C23      1.0000 0.44510  0.85660  0.40459  Biso   1.000  C
  C24      1.0000 0.44510  0.64340  0.90459  Biso   1.000  C
  H25      1.0000 0.55450  0.05410  0.57970  Biso   1.000  H
  H26      1.0000 0.55450  0.44590  0.07970  Biso   1.000  H
  H27      1.0000 0.44550  0.94590  0.42030  Biso   1.000  H
  H28      1.0000 0.44550  0.55410  0.92030  Biso   1.000  H
  C25      1.0000 0.51880  0.17440  0.65368  Biso   1.000  C
  C26      1.0000 0.51880  0.32560  0.15368  Biso   1.000  C
  C27      1.0000 0.48120  0.82560  0.34632  Biso   1.000  C
  C28      1.0000 0.48120  0.67440  0.84632  Biso   1.000  C
  C29      1.0000 0.52000  0.30360  0.67454  Biso   1.000  C
  C30      1.0000 0.52000  0.19640  0.17454  Biso   1.000  C
  C31      1.0000 0.48000  0.69640  0.32546  Biso   1.000  C
  C32      1.0000 0.48000  0.80360  0.82546  Biso   1.000  C
  H29      1.0000 0.49650  0.32600  0.71470  Biso   1.000  H
  H30      1.0000 0.49650  0.17400  0.21470  Biso   1.000  H
  H31      1.0000 0.50350  0.67400  0.28530  Biso   1.000  H
  H32      1.0000 0.50350  0.82600  0.78530  Biso   1.000  H
  C33      1.0000 0.55480  0.40310  0.63844  Biso   1.000  C
  C34      1.0000 0.55480  0.09690  0.13844  Biso   1.000  C
  C35      1.0000 0.44520  0.59690  0.36156  Biso   1.000  C
  C36      1.0000 0.44520  0.90310  0.86156  Biso   1.000  C
  H33      1.0000 0.55170  0.49270  0.65250  Biso   1.000  H
  H34      1.0000 0.55170  0.00730  0.15250  Biso   1.000  H
  H35      1.0000 0.44830  0.50730  0.34750  Biso   1.000  H
  H36      1.0000 0.44830  0.99270  0.84750  Biso   1.000  H
  C37      1.0000 0.48500  0.06520  0.69585  Biso   1.000  C
  C38      1.0000 0.48500  0.43480  0.19585  Biso   1.000  C
  C39      1.0000 0.51500  0.93480  0.30415  Biso   1.000  C
  C40      1.0000 0.51500  0.56520  0.80415  Biso   1.000  C
  H37      1.0000 0.54100  0.99920  0.71310  Biso   1.000  H
  H38      1.0000 0.54100  0.50080  0.21310  Biso   1.000  H
  H39      1.0000 0.45900  0.00080  0.28690  Biso   1.000  H
  H40      1.0000 0.45900  0.49920  0.78690  Biso   1.000  H
  H41      1.0000 0.47330  0.10380  0.74020  Biso   1.000  H
  H42      1.0000 0.47330  0.39620  0.24020  Biso   1.000  H
  H43      1.0000 0.52670  0.89620  0.25980  Biso   1.000  H
  H44      1.0000 0.52670  0.60380  0.75980  Biso   1.000  H
  C41      1.0000 0.79570  0.41830  0.34630  Biso   1.000  C
  C42      1.0000 0.79570  0.08170  0.84630  Biso   1.000  C
  C43      1.0000 0.20430  0.58170  0.65370  Biso   1.000  C
  C44      1.0000 0.20430  0.91830  0.15370  Biso   1.000  C
  H45      1.0000 0.74570  0.46140  0.30630  Biso   1.000  H
  H46      1.0000 0.74570  0.03860  0.80630  Biso   1.000  H
  H47      1.0000 0.25430  0.53860  0.69370  Biso   1.000  H
  H48      1.0000 0.25430  0.96140  0.19370  Biso   1.000  H
  C45      1.0000 0.84980  0.30530  0.32872  Biso   1.000  C
  C46      1.0000 0.84980  0.19470  0.82872  Biso   1.000  C
  C47      1.0000 0.15020  0.69470  0.67128  Biso   1.000  C
  C48      1.0000 0.15020  0.80530  0.17128  Biso   1.000  C
  C49      1.0000 0.80720  0.23990  0.26166  Biso   1.000  C
  C50      1.0000 0.80720  0.26010  0.76166  Biso   1.000  C
  C51      1.0000 0.19280  0.76010  0.73834  Biso   1.000  C
  C52      1.0000 0.19280  0.73990  0.23834  Biso   1.000  C
  H49      1.0000 0.74440  0.27020  0.22700  Biso   1.000  H
  H50      1.0000 0.74440  0.22980  0.72700  Biso   1.000  H
  H51      1.0000 0.25560  0.72980  0.77300  Biso   1.000  H
  H52      1.0000 0.25560  0.77020  0.27300  Biso   1.000  H
  C53      1.0000 0.85610  0.13130  0.24548  Biso   1.000  C
  C54      1.0000 0.85610  0.36870  0.74548  Biso   1.000  C
  C55      1.0000 0.14390  0.86870  0.75452  Biso   1.000  C
  C56      1.0000 0.14390  0.63130  0.25452  Biso   1.000  C
  H53      1.0000 0.82530  0.08570  0.20010  Biso   1.000  H
  H54      1.0000 0.82530  0.41430  0.70010  Biso   1.000  H
  H55      1.0000 0.17470  0.91430  0.79990  Biso   1.000  H
  H56      1.0000 0.17470  0.58570  0.29990  Biso   1.000  H
  C57      1.0000 0.94820  0.08730  0.29328  Biso   1.000  C
  C58      1.0000 0.94820  0.41270  0.79328  Biso   1.000  C
  C59      1.0000 0.05180  0.91270  0.70672  Biso   1.000  C
  C60      1.0000 0.05180  0.58730  0.20672  Biso   1.000  C
  C61      1.0000 0.99210  0.15490  0.35968  Biso   1.000  C
  C62      1.0000 0.99210  0.34510  0.85968  Biso   1.000  C
  C63      1.0000 0.00790  0.84510  0.64032  Biso   1.000  C
  C64      1.0000 0.00790  0.65490  0.14032  Biso   1.000  C
  H57      1.0000 0.05670  0.12680  0.39290  Biso   1.000  H
  H58      1.0000 0.05670  0.37320  0.89290  Biso   1.000  H
  H59      1.0000 0.94330  0.87320  0.60710  Biso   1.000  H
  H60      1.0000 0.94330  0.62680  0.10710  Biso   1.000  H
  C65      1.0000 0.94320  0.26240  0.37791  Biso   1.000  C
  C66      1.0000 0.94320  0.23760  0.87791  Biso   1.000  C
  C67      1.0000 0.05680  0.73760  0.62209  Biso   1.000  C
  C68      1.0000 0.05680  0.76240  0.12209  Biso   1.000  C
  H61      1.0000 0.97310  0.30660  0.42380  Biso   1.000  H
  H62      1.0000 0.97310  0.19340  0.92380  Biso   1.000  H
  H63      1.0000 0.02690  0.69340  0.57620  Biso   1.000  H
  H64      1.0000 0.02690  0.80660  0.07620  Biso   1.000  H
  C69      1.0000 0.00220  0.96940  0.27377  Biso   1.000  C
  C70      1.0000 0.00220  0.53060  0.77377  Biso   1.000  C
  C71      1.0000 0.99780  0.03060  0.72623  Biso   1.000  C
  C72      1.0000 0.99780  0.46940  0.22623  Biso   1.000  C
  H65      1.0000 0.95770  0.93110  0.22640  Biso   1.000  H
  H66      1.0000 0.95770  0.56890  0.72640  Biso   1.000  H
  H67      1.0000 0.04230  0.06890  0.77360  Biso   1.000  H
  H68      1.0000 0.04230  0.43110  0.27360  Biso   1.000  H
  H69      1.0000 0.06690  0.99940  0.26640  Biso   1.000  H
  H70      1.0000 0.06690  0.50060  0.76640  Biso   1.000  H
  H71      1.0000 0.93310  0.00060  0.73360  Biso   1.000  H
  H72      1.0000 0.93310  0.49940  0.23360  Biso   1.000  H
  C73      1.0000 0.38520  0.88080  0.61642  Biso   1.000  C
  C74      1.0000 0.38520  0.61920  0.11642  Biso   1.000  C
  C75      1.0000 0.61480  0.11920  0.38358  Biso   1.000  C
  C76      1.0000 0.61480  0.38080  0.88358  Biso   1.000  C
  H73      1.0000 0.44300  0.82610  0.62030  Biso   1.000  H
  H74      1.0000 0.44300  0.67390  0.12030  Biso   1.000  H
  H75      1.0000 0.55700  0.17390  0.37970  Biso   1.000  H
  H76      1.0000 0.55700  0.32610  0.87970  Biso   1.000  H
  C77      1.0000 0.23180  0.95540  0.58660  Biso   1.000  C
  C78      1.0000 0.23180  0.54460  0.08660  Biso   1.000  C
  C79      1.0000 0.76820  0.04460  0.41340  Biso   1.000  C
  C80      1.0000 0.76820  0.45540  0.91340  Biso   1.000  C
  H77      1.0000 0.15930  0.96350  0.56450  Biso   1.000  H
  H78      1.0000 0.15930  0.53650  0.06450  Biso   1.000  H
  H79      1.0000 0.84070  0.03650  0.43550  Biso   1.000  H
  H80      1.0000 0.84070  0.46350  0.93550  Biso   1.000  H
  C81      1.0000 0.29360  0.04520  0.63260  Biso   1.000  C
  C82      1.0000 0.29360  0.45480  0.13260  Biso   1.000  C
  C83      1.0000 0.70640  0.95480  0.36740  Biso   1.000  C
  C84      1.0000 0.70640  0.54520  0.86740  Biso   1.000  C
  H81      1.0000 0.27260  0.12580  0.64890  Biso   1.000  H
  H82      1.0000 0.27260  0.37420  0.14890  Biso   1.000  H
  H83      1.0000 0.72740  0.87420  0.35110  Biso   1.000  H
  H84      1.0000 0.72740  0.62580  0.85110  Biso   1.000  H
  C85      1.0000 0.11610  0.85270  0.38612  Biso   1.000  C
  C86      1.0000 0.11610  0.64730  0.88612  Biso   1.000  C
  C87      1.0000 0.88390  0.14730  0.61388  Biso   1.000  C
  C88      1.0000 0.88390  0.35270  0.11388  Biso   1.000  C
  H85      1.0000 0.17450  0.90770  0.39270  Biso   1.000  H
  H86      1.0000 0.17450  0.59230  0.89270  Biso   1.000  H
  H87      1.0000 0.82550  0.09230  0.60730  Biso   1.000  H
  H88      1.0000 0.82550  0.40770  0.10730  Biso   1.000  H
  C89      1.0000 0.01650  0.70200  0.40138  Biso   1.000  C
  C90      1.0000 0.01650  0.79800  0.90138  Biso   1.000  C
  C91      1.0000 0.98350  0.29800  0.59862  Biso   1.000  C
  C92      1.0000 0.98350  0.20200  0.09862  Biso   1.000  C
  H89      1.0000 0.99100  0.62810  0.42090  Biso   1.000  H
  H90      1.0000 0.99100  0.87190  0.92090  Biso   1.000  H
  H91      1.0000 0.00900  0.37190  0.57910  Biso   1.000  H
  H92      1.0000 0.00900  0.12810  0.07910  Biso   1.000  H
  C93      1.0000 0.96190  0.77200  0.34080  Biso   1.000  C
  C94      1.0000 0.96190  0.72800  0.84080  Biso   1.000  C
  C95      1.0000 0.03810  0.22800  0.65920  Biso   1.000  C
  C96      1.0000 0.03810  0.27200  0.15920  Biso   1.000  C
  H93      1.0000 0.89230  0.75770  0.31110  Biso   1.000  H
  H94      1.0000 0.89230  0.74230  0.81110  Biso   1.000  H
  H95      1.0000 0.10770  0.24230  0.68890  Biso   1.000  H
  H96      1.0000 0.10770  0.25770  0.18890  Biso   1.000  H
