data_image0
_cell_length_a       13.7
_cell_length_b       9.979
_cell_length_c       19.23
_cell_angle_alpha    90
_cell_angle_beta     109.56
_cell_angle_gamma    90

_symmetry_space_group_name_H-M    "P 1"
_symmetry_int_tables_number       1

loop_
  _symmetry_equiv_pos_as_xyz
  'x, y, z'

loop_
  _atom_site_label
  _atom_site_occupancy
  _atom_site_fract_x
  _atom_site_fract_y
  _atom_site_fract_z
  _atom_site_thermal_displace_type
  _atom_site_B_iso_or_equiv
  _atom_site_type_symbol
  Cu1      1.0000 0.73533  0.18560  0.01287  Biso   1.000  Cu
  Cu2      1.0000 0.73533  0.31440  0.51287  Biso   1.000  Cu
  Cu3      1.0000 0.26467  0.81440  0.98713  Biso   1.000  Cu
  Cu4      1.0000 0.26467  0.68560  0.48713  Biso   1.000  Cu
  F1       1.0000 0.73440  0.81040  0.82021  Biso   1.000  F
  F2       1.0000 0.73440  0.68960  0.32021  Biso   1.000  F
  F3       1.0000 0.26560  0.18960  0.17979  Biso   1.000  F
  F4       1.0000 0.26560  0.31040  0.67979  Biso   1.000  F
  F5       1.0000 0.87770  0.69920  0.89150  Biso   1.000  F
  F6       1.0000 0.87770  0.80080  0.39150  Biso   1.000  F
  F7       1.0000 0.12230  0.30080  0.10850  Biso   1.000  F
  F8       1.0000 0.12230  0.19920  0.60850  Biso   1.000  F
  F9       1.0000 0.89700  0.73960  0.86380  Biso   1.000  F
  F10      1.0000 0.89700  0.76040  0.36380  Biso   1.000  F
  F11      1.0000 0.10300  0.26040  0.13620  Biso   1.000  F
  F12      1.0000 0.10300  0.23960  0.63620  Biso   1.000  F
  F13      1.0000 0.84810  0.72050  0.77110  Biso   1.000  F
  F14      1.0000 0.84810  0.77950  0.27110  Biso   1.000  F
  F15      1.0000 0.15190  0.27950  0.22890  Biso   1.000  F
  F16      1.0000 0.15190  0.22050  0.72890  Biso   1.000  F
  F17      1.0000 0.80130  0.69710  0.74840  Biso   1.000  F
  F18      1.0000 0.80130  0.80290  0.24840  Biso   1.000  F
  F19      1.0000 0.19870  0.30290  0.25160  Biso   1.000  F
  F20      1.0000 0.19870  0.19710  0.75160  Biso   1.000  F
  F21      1.0000 0.75380  0.58240  0.80960  Biso   1.000  F
  F22      1.0000 0.75380  0.91760  0.30960  Biso   1.000  F
  F23      1.0000 0.24620  0.41760  0.19040  Biso   1.000  F
  F24      1.0000 0.24620  0.08240  0.69040  Biso   1.000  F
  F25      1.0000 0.75080  0.59780  0.83700  Biso   1.000  F
  F26      1.0000 0.75080  0.90220  0.33700  Biso   1.000  F
  F27      1.0000 0.24920  0.40220  0.16300  Biso   1.000  F
  F28      1.0000 0.24920  0.09780  0.66300  Biso   1.000  F
  N1       1.0000 0.80260  0.02780  0.98518  Biso   1.000  N
  N2       1.0000 0.80260  0.47220  0.48518  Biso   1.000  N
  N3       1.0000 0.19740  0.97220  0.01482  Biso   1.000  N
  N4       1.0000 0.19740  0.52780  0.51482  Biso   1.000  N
  N5       1.0000 0.68860  0.02730  0.08420  Biso   1.000  N
  N6       1.0000 0.68860  0.47270  0.58420  Biso   1.000  N
  N7       1.0000 0.31140  0.97270  0.91580  Biso   1.000  N
  N8       1.0000 0.31140  0.52730  0.41580  Biso   1.000  N
  N9       1.0000 0.10530  0.50780  0.84803  Biso   1.000  N
  N10      1.0000 0.10530  0.99220  0.34803  Biso   1.000  N
  N11      1.0000 0.89470  0.49220  0.15197  Biso   1.000  N
  N12      1.0000 0.89470  0.00780  0.65197  Biso   1.000  N
  N13      1.0000 0.20900  0.65500  0.92345  Biso   1.000  N
  N14      1.0000 0.20900  0.84500  0.42345  Biso   1.000  N
  N15      1.0000 0.79100  0.34500  0.07655  Biso   1.000  N
  N16      1.0000 0.79100  0.15500  0.57655  Biso   1.000  N
  N17      1.0000 0.47230  0.62670  0.16850  Biso   1.000  N
  N18      1.0000 0.47230  0.87330  0.66850  Biso   1.000  N
  N19      1.0000 0.52770  0.37330  0.83150  Biso   1.000  N
  N20      1.0000 0.52770  0.12670  0.33150  Biso   1.000  N
  N21      1.0000 0.38550  0.74720  0.07090  Biso   1.000  N
  N22      1.0000 0.38550  0.75280  0.57090  Biso   1.000  N
  N23      1.0000 0.61450  0.25280  0.92910  Biso   1.000  N
  N24      1.0000 0.61450  0.24720  0.42910  Biso   1.000  N
  C1       1.0000 0.75790  0.90250  0.00260  Biso   1.000  C
  C2       1.0000 0.75790  0.59750  0.50260  Biso   1.000  C
  C3       1.0000 0.24210  0.09750  0.99740  Biso   1.000  C
  C4       1.0000 0.24210  0.40250  0.49740  Biso   1.000  C
  H1       1.0000 0.80260  0.82600  0.00020  Biso   1.000  H
  H2       1.0000 0.80260  0.67400  0.50020  Biso   1.000  H
  H3       1.0000 0.19740  0.17400  0.99980  Biso   1.000  H
  H4       1.0000 0.19740  0.32600  0.49980  Biso   1.000  H
  H5       1.0000 0.68870  0.88770  0.96520  Biso   1.000  H
  H6       1.0000 0.68870  0.61230  0.46520  Biso   1.000  H
  H7       1.0000 0.31130  0.11230  0.03480  Biso   1.000  H
  H8       1.0000 0.31130  0.38770  0.53480  Biso   1.000  H
  C5       1.0000 0.74800  0.90810  0.07720  Biso   1.000  C
  C6       1.0000 0.74800  0.59190  0.57720  Biso   1.000  C
  C7       1.0000 0.25200  0.09190  0.92280  Biso   1.000  C
  C8       1.0000 0.25200  0.40810  0.42280  Biso   1.000  C
  H9       1.0000 0.71260  0.82630  0.08560  Biso   1.000  H
  H10      1.0000 0.71260  0.67370  0.58560  Biso   1.000  H
  H11      1.0000 0.28740  0.17370  0.91440  Biso   1.000  H
  H12      1.0000 0.28740  0.32630  0.41440  Biso   1.000  H
  H13      1.0000 0.81780  0.91110  0.11510  Biso   1.000  H
  H14      1.0000 0.81780  0.58890  0.61510  Biso   1.000  H
  H15      1.0000 0.18220  0.08890  0.88490  Biso   1.000  H
  H16      1.0000 0.18220  0.41110  0.38490  Biso   1.000  H
  C9       1.0000 0.86180  0.01550  0.94640  Biso   1.000  C
  C10      1.0000 0.86180  0.48450  0.44640  Biso   1.000  C
  C11      1.0000 0.13820  0.98450  0.05360  Biso   1.000  C
  C12      1.0000 0.13820  0.51550  0.55360  Biso   1.000  C
  H17      1.0000 0.87900  0.92710  0.93640  Biso   1.000  H
  H18      1.0000 0.87900  0.57290  0.43640  Biso   1.000  H
  H19      1.0000 0.12100  0.07290  0.06360  Biso   1.000  H
  H20      1.0000 0.12100  0.42710  0.56360  Biso   1.000  H
  C13      1.0000 0.90540  0.12600  0.91610  Biso   1.000  C
  C14      1.0000 0.90540  0.37400  0.41610  Biso   1.000  C
  C15      1.0000 0.09460  0.87400  0.08390  Biso   1.000  C
  C16      1.0000 0.09460  0.62600  0.58390  Biso   1.000  C
  C17      1.0000 0.90510  0.25960  0.93740  Biso   1.000  C
  C18      1.0000 0.90510  0.24040  0.43740  Biso   1.000  C
  C19      1.0000 0.09490  0.74040  0.06260  Biso   1.000  C
  C20      1.0000 0.09490  0.75960  0.56260  Biso   1.000  C
  H21      1.0000 0.87900  0.28210  0.97580  Biso   1.000  H
  H22      1.0000 0.87900  0.21790  0.47580  Biso   1.000  H
  H23      1.0000 0.12100  0.71790  0.02420  Biso   1.000  H
  H24      1.0000 0.12100  0.78210  0.52420  Biso   1.000  H
  C21      1.0000 0.94210  0.35870  0.90350  Biso   1.000  C
  C22      1.0000 0.94210  0.14130  0.40350  Biso   1.000  C
  C23      1.0000 0.05790  0.64130  0.09650  Biso   1.000  C
  C24      1.0000 0.05790  0.85870  0.59650  Biso   1.000  C
  H25      1.0000 0.94310  0.44860  0.91980  Biso   1.000  H
  H26      1.0000 0.94310  0.05140  0.41980  Biso   1.000  H
  H27      1.0000 0.05690  0.55140  0.08020  Biso   1.000  H
  H28      1.0000 0.05690  0.94860  0.58020  Biso   1.000  H
  C25      1.0000 0.97820  0.33030  0.84570  Biso   1.000  C
  C26      1.0000 0.97820  0.16970  0.34570  Biso   1.000  C
  C27      1.0000 0.02180  0.66970  0.15430  Biso   1.000  C
  C28      1.0000 0.02180  0.83030  0.65430  Biso   1.000  C
  C29      1.0000 0.97870  0.19990  0.82410  Biso   1.000  C
  C30      1.0000 0.97870  0.30010  0.32410  Biso   1.000  C
  C31      1.0000 0.02130  0.80010  0.17590  Biso   1.000  C
  C32      1.0000 0.02130  0.69990  0.67590  Biso   1.000  C
  H29      1.0000 0.00290  0.17850  0.78460  Biso   1.000  H
  H30      1.0000 0.00290  0.32150  0.28460  Biso   1.000  H
  H31      1.0000 0.99710  0.82150  0.21540  Biso   1.000  H
  H32      1.0000 0.99710  0.67850  0.71540  Biso   1.000  H
  C33      1.0000 0.94350  0.09720  0.85970  Biso   1.000  C
  C34      1.0000 0.94350  0.40280  0.35970  Biso   1.000  C
  C35      1.0000 0.05650  0.90280  0.14030  Biso   1.000  C
  C36      1.0000 0.05650  0.59720  0.64030  Biso   1.000  C
  H33      1.0000 0.94600  0.00680  0.84490  Biso   1.000  H
  H34      1.0000 0.94600  0.49320  0.34490  Biso   1.000  H
  H35      1.0000 0.05400  0.99320  0.15510  Biso   1.000  H
  H36      1.0000 0.05400  0.50680  0.65510  Biso   1.000  H
  C37      1.0000 0.00940  0.44060  0.80400  Biso   1.000  C
  C38      1.0000 0.00940  0.05940  0.30400  Biso   1.000  C
  C39      1.0000 0.99060  0.55940  0.19600  Biso   1.000  C
  C40      1.0000 0.99060  0.94060  0.69600  Biso   1.000  C
  H37      1.0000 0.95300  0.50760  0.78800  Biso   1.000  H
  H38      1.0000 0.95300  0.99240  0.28800  Biso   1.000  H
  H39      1.0000 0.04700  0.49240  0.21200  Biso   1.000  H
  H40      1.0000 0.04700  0.00760  0.71200  Biso   1.000  H
  H41      1.0000 0.01880  0.40250  0.75910  Biso   1.000  H
  H42      1.0000 0.01880  0.09750  0.25910  Biso   1.000  H
  H43      1.0000 0.98120  0.59750  0.24090  Biso   1.000  H
  H44      1.0000 0.98120  0.90250  0.74090  Biso   1.000  H
  C41      1.0000 0.70200  0.06810  0.14820  Biso   1.000  C
  C42      1.0000 0.70200  0.43190  0.64820  Biso   1.000  C
  C43      1.0000 0.29800  0.93190  0.85180  Biso   1.000  C
  C44      1.0000 0.29800  0.56810  0.35180  Biso   1.000  C
  H45      1.0000 0.75060  0.02140  0.18780  Biso   1.000  H
  H46      1.0000 0.75060  0.47860  0.68780  Biso   1.000  H
  H47      1.0000 0.24940  0.97860  0.81220  Biso   1.000  H
  H48      1.0000 0.24940  0.52140  0.31220  Biso   1.000  H
  C45      1.0000 0.64810  0.18290  0.16670  Biso   1.000  C
  C46      1.0000 0.64810  0.31710  0.66670  Biso   1.000  C
  C47      1.0000 0.35190  0.81710  0.83330  Biso   1.000  C
  C48      1.0000 0.35190  0.68290  0.33330  Biso   1.000  C
  C49      1.0000 0.55450  0.22740  0.11860  Biso   1.000  C
  C50      1.0000 0.55450  0.27260  0.61860  Biso   1.000  C
  C51      1.0000 0.44550  0.77260  0.88140  Biso   1.000  C
  C52      1.0000 0.44550  0.72740  0.38140  Biso   1.000  C
  H49      1.0000 0.52400  0.18350  0.07260  Biso   1.000  H
  H50      1.0000 0.52400  0.31650  0.57260  Biso   1.000  H
  H51      1.0000 0.47600  0.81650  0.92740  Biso   1.000  H
  H52      1.0000 0.47600  0.68350  0.42740  Biso   1.000  H
  C53      1.0000 0.50490  0.33520  0.13700  Biso   1.000  C
  C54      1.0000 0.50490  0.16480  0.63700  Biso   1.000  C
  C55      1.0000 0.49510  0.66480  0.86300  Biso   1.000  C
  C56      1.0000 0.49510  0.83520  0.36300  Biso   1.000  C
  H53      1.0000 0.44020  0.36450  0.10360  Biso   1.000  H
  H54      1.0000 0.44020  0.13550  0.60360  Biso   1.000  H
  H55      1.0000 0.55980  0.63550  0.89640  Biso   1.000  H
  H56      1.0000 0.55980  0.86450  0.39640  Biso   1.000  H
  C57      1.0000 0.54900  0.40150  0.20400  Biso   1.000  C
  C58      1.0000 0.54900  0.09850  0.70400  Biso   1.000  C
  C59      1.0000 0.45100  0.59850  0.79600  Biso   1.000  C
  C60      1.0000 0.45100  0.90150  0.29600  Biso   1.000  C
  C61      1.0000 0.64190  0.35700  0.25230  Biso   1.000  C
  C62      1.0000 0.64190  0.14300  0.75230  Biso   1.000  C
  C63      1.0000 0.35810  0.64300  0.74770  Biso   1.000  C
  C64      1.0000 0.35810  0.85700  0.24770  Biso   1.000  C
  H57      1.0000 0.67280  0.40120  0.29820  Biso   1.000  H
  H58      1.0000 0.67280  0.09880  0.79820  Biso   1.000  H
  H59      1.0000 0.32720  0.59880  0.70180  Biso   1.000  H
  H60      1.0000 0.32720  0.90120  0.20180  Biso   1.000  H
  C65      1.0000 0.69040  0.24770  0.23370  Biso   1.000  C
  C66      1.0000 0.69040  0.25230  0.73370  Biso   1.000  C
  C67      1.0000 0.30960  0.75230  0.76630  Biso   1.000  C
  C68      1.0000 0.30960  0.74770  0.26630  Biso   1.000  C
  H61      1.0000 0.75400  0.21660  0.26770  Biso   1.000  H
  H62      1.0000 0.75400  0.28340  0.76770  Biso   1.000  H
  H63      1.0000 0.24600  0.78340  0.73230  Biso   1.000  H
  H64      1.0000 0.24600  0.71660  0.23230  Biso   1.000  H
  C69      1.0000 0.49440  0.51970  0.22380  Biso   1.000  C
  C70      1.0000 0.49440  0.98030  0.72380  Biso   1.000  C
  C71      1.0000 0.50560  0.48030  0.77620  Biso   1.000  C
  C72      1.0000 0.50560  0.01970  0.27620  Biso   1.000  C
  H65      1.0000 0.53820  0.55600  0.27200  Biso   1.000  H
  H66      1.0000 0.53820  0.94400  0.77200  Biso   1.000  H
  H67      1.0000 0.46180  0.44400  0.72800  Biso   1.000  H
  H68      1.0000 0.46180  0.05600  0.22800  Biso   1.000  H
  H69      1.0000 0.42860  0.48880  0.22890  Biso   1.000  H
  H70      1.0000 0.42860  0.01120  0.72890  Biso   1.000  H
  H71      1.0000 0.57140  0.51120  0.77110  Biso   1.000  H
  H72      1.0000 0.57140  0.98880  0.27110  Biso   1.000  H
  C73      1.0000 0.11260  0.62560  0.88410  Biso   1.000  C
  C74      1.0000 0.11260  0.87440  0.38410  Biso   1.000  C
  C75      1.0000 0.88740  0.37440  0.11590  Biso   1.000  C
  C76      1.0000 0.88740  0.12560  0.61590  Biso   1.000  C
  H73      1.0000 0.05490  0.68080  0.88130  Biso   1.000  H
  H74      1.0000 0.05490  0.81920  0.38130  Biso   1.000  H
  H75      1.0000 0.94510  0.31920  0.11870  Biso   1.000  H
  H76      1.0000 0.94510  0.18080  0.61870  Biso   1.000  H
  C77      1.0000 0.26550  0.54970  0.91090  Biso   1.000  C
  C78      1.0000 0.26550  0.95030  0.41090  Biso   1.000  C
  C79      1.0000 0.73450  0.45030  0.08910  Biso   1.000  C
  C80      1.0000 0.73450  0.04970  0.58910  Biso   1.000  C
  H77      1.0000 0.33860  0.54130  0.93170  Biso   1.000  H
  H78      1.0000 0.33860  0.95870  0.43170  Biso   1.000  H
  H79      1.0000 0.66140  0.45870  0.06830  Biso   1.000  H
  H80      1.0000 0.66140  0.04130  0.56830  Biso   1.000  H
  C81      1.0000 0.20290  0.45990  0.86500  Biso   1.000  C
  C82      1.0000 0.20290  0.04010  0.36500  Biso   1.000  C
  C83      1.0000 0.79710  0.54010  0.13500  Biso   1.000  C
  C84      1.0000 0.79710  0.95990  0.63500  Biso   1.000  C
  H81      1.0000 0.22320  0.37890  0.84790  Biso   1.000  H
  H82      1.0000 0.22320  0.12110  0.34790  Biso   1.000  H
  H83      1.0000 0.77680  0.62110  0.15210  Biso   1.000  H
  H84      1.0000 0.77680  0.87890  0.65210  Biso   1.000  H
  C85      1.0000 0.38120  0.64350  0.11330  Biso   1.000  C
  C86      1.0000 0.38120  0.85650  0.61330  Biso   1.000  C
  C87      1.0000 0.61880  0.35650  0.88670  Biso   1.000  C
  C88      1.0000 0.61880  0.14350  0.38670  Biso   1.000  C
  H85      1.0000 0.32200  0.58850  0.10570  Biso   1.000  H
  H86      1.0000 0.32200  0.91150  0.60570  Biso   1.000  H
  H87      1.0000 0.67800  0.41150  0.89430  Biso   1.000  H
  H88      1.0000 0.67800  0.08850  0.39430  Biso   1.000  H
  C89      1.0000 0.48490  0.79580  0.10120  Biso   1.000  C
  C90      1.0000 0.48490  0.70420  0.60120  Biso   1.000  C
  C91      1.0000 0.51510  0.20420  0.89880  Biso   1.000  C
  C92      1.0000 0.51510  0.29580  0.39880  Biso   1.000  C
  H89      1.0000 0.51190  0.87040  0.08280  Biso   1.000  H
  H90      1.0000 0.51190  0.62960  0.58280  Biso   1.000  H
  H91      1.0000 0.48810  0.12960  0.91720  Biso   1.000  H
  H92      1.0000 0.48810  0.37040  0.41720  Biso   1.000  H
  C93      1.0000 0.53830  0.72220  0.16060  Biso   1.000  C
  C94      1.0000 0.53830  0.77780  0.66060  Biso   1.000  C
  C95      1.0000 0.46170  0.27780  0.83940  Biso   1.000  C
  C96      1.0000 0.46170  0.22220  0.33940  Biso   1.000  C
  H93      1.0000 0.60840  0.73480  0.19090  Biso   1.000  H
  H94      1.0000 0.60840  0.76520  0.69090  Biso   1.000  H
  H95      1.0000 0.39160  0.26520  0.80910  Biso   1.000  H
  H96      1.0000 0.39160  0.23480  0.30910  Biso   1.000  H
  B1       1.0000 0.79890  0.70650  0.82210  Biso   1.000  B
  B2       1.0000 0.79890  0.79350  0.32210  Biso   1.000  B
  B3       1.0000 0.20110  0.29350  0.17790  Biso   1.000  B
  B4       1.0000 0.20110  0.20650  0.67790  Biso   1.000  B
