data_image0
_cell_length_a       7.6042
_cell_length_b       7.2155
_cell_length_c       13.6004
_cell_angle_alpha    90
_cell_angle_beta     98.233
_cell_angle_gamma    90

_symmetry_space_group_name_H-M    "P 1"
_symmetry_int_tables_number       1

loop_
  _symmetry_equiv_pos_as_xyz
  'x, y, z'

loop_
  _atom_site_label
  _atom_site_occupancy
  _atom_site_fract_x
  _atom_site_fract_y
  _atom_site_fract_z
  _atom_site_thermal_displace_type
  _atom_site_B_iso_or_equiv
  _atom_site_type_symbol
  Cu1      1.0000 0.50000  0.36138  0.50000  Biso   1.000  Cu
  Cu2      1.0000 0.50000  0.63862  0.00000  Biso   1.000  Cu
  Cu3      1.0000 0.54659  0.71478  0.37083  Biso   1.000  Cu
  Cu4      1.0000 0.54659  0.28522  0.87083  Biso   1.000  Cu
  C1       1.0000 0.52050  0.12620  0.43980  Biso   1.000  C
  C2       1.0000 0.52050  0.87380  0.93980  Biso   1.000  C
  N1       1.0000 0.53420  0.97480  0.41460  Biso   1.000  N
  N2       1.0000 0.53420  0.02520  0.91460  Biso   1.000  N
  C3       1.0000 0.52830  0.66870  0.23120  Biso   1.000  C
  C4       1.0000 0.52830  0.33130  0.73120  Biso   1.000  C
  N3       1.0000 0.51880  0.64600  0.14880  Biso   1.000  N
  N4       1.0000 0.51880  0.35400  0.64880  Biso   1.000  N
  S1       1.0000 0.77240  0.55740  0.47650  Biso   1.000  S
  S2       1.0000 0.77240  0.44260  0.97650  Biso   1.000  S
  C5       1.0000 0.79440  0.66320  0.59010  Biso   1.000  C
  C6       1.0000 0.79440  0.33680  0.09010  Biso   1.000  C
  N5       1.0000 0.88070  0.59310  0.67650  Biso   1.000  N
  N6       1.0000 0.88070  0.40690  0.17650  Biso   1.000  N
  C7       1.0000 0.96740  0.41550  0.68430  Biso   1.000  C
  C8       1.0000 0.96740  0.58450  0.18430  Biso   1.000  C
  N7       1.0000 0.72600  0.82640  0.61300  Biso   1.000  N
  N8       1.0000 0.72600  0.17360  0.11300  Biso   1.000  N
  H1       1.0000 0.68430  0.89760  0.57180  Biso   1.000  H
  H2       1.0000 0.68430  0.10240  0.07180  Biso   1.000  H
  C9       1.0000 0.76240  0.85700  0.71500  Biso   1.000  C
  C10      1.0000 0.76240  0.14300  0.21500  Biso   1.000  C
  C11      1.0000 0.85790  0.71160  0.75340  Biso   1.000  C
  C12      1.0000 0.85790  0.28840  0.25340  Biso   1.000  C
  S3       1.0000 0.27710  0.56880  0.43340  Biso   1.000  S
  S4       1.0000 0.27710  0.43120  0.93340  Biso   1.000  S
  C13      1.0000 0.25140  0.72230  0.52590  Biso   1.000  C
  C14      1.0000 0.25140  0.27770  0.02590  Biso   1.000  C
  N9       1.0000 0.16500  0.88440  0.51790  Biso   1.000  N
  N10      1.0000 0.16500  0.11560  0.01790  Biso   1.000  N
  C15      1.0000 0.07030  0.95910  0.42550  Biso   1.000  C
  C16      1.0000 0.07030  0.04090  0.92550  Biso   1.000  C
  N11      1.0000 0.32030  0.70870  0.62260  Biso   1.000  N
  N12      1.0000 0.32030  0.29130  0.12260  Biso   1.000  N
  H3       1.0000 0.37060  0.63750  0.64040  Biso   1.000  H
  H4       1.0000 0.37060  0.36250  0.14040  Biso   1.000  H
  C17      1.0000 0.27860  0.86120  0.67340  Biso   1.000  C
  C18      1.0000 0.27860  0.13880  0.17340  Biso   1.000  C
  C19      1.0000 0.18290  0.96970  0.60900  Biso   1.000  C
  C20      1.0000 0.18290  0.03030  0.10900  Biso   1.000  C
