data_image0
_cell_length_a       11.84
_cell_length_b       7.874
_cell_length_c       17.51
_cell_angle_alpha    90
_cell_angle_beta     90
_cell_angle_gamma    90

_symmetry_space_group_name_H-M    "P 1"
_symmetry_int_tables_number       1

loop_
  _symmetry_equiv_pos_as_xyz
  'x, y, z'

loop_
  _atom_site_label
  _atom_site_occupancy
  _atom_site_fract_x
  _atom_site_fract_y
  _atom_site_fract_z
  _atom_site_thermal_displace_type
  _atom_site_B_iso_or_equiv
  _atom_site_type_symbol
  Cu1      1.0000 0.88434  0.05857  0.85503  Biso   1.000  Cu
  Cu2      1.0000 0.61566  0.94143  0.35503  Biso   1.000  Cu
  Cu3      1.0000 0.38434  0.44143  0.14497  Biso   1.000  Cu
  Cu4      1.0000 0.11566  0.55857  0.64497  Biso   1.000  Cu
  Cu5      1.0000 0.05533  0.82940  0.73921  Biso   1.000  Cu
  Cu6      1.0000 0.44467  0.17060  0.23921  Biso   1.000  Cu
  Cu7      1.0000 0.55533  0.67060  0.26079  Biso   1.000  Cu
  Cu8      1.0000 0.94467  0.32940  0.76079  Biso   1.000  Cu
  Cu9      1.0000 0.84086  0.05373  0.66874  Biso   1.000  Cu
  Cu10     1.0000 0.65914  0.94627  0.16874  Biso   1.000  Cu
  Cu11     1.0000 0.34086  0.44627  0.33126  Biso   1.000  Cu
  Cu12     1.0000 0.15914  0.55373  0.83126  Biso   1.000  Cu
  S1       1.0000 0.73730  0.07820  0.77563  Biso   1.000  S
  S2       1.0000 0.76270  0.92180  0.27563  Biso   1.000  S
  S3       1.0000 0.23730  0.42180  0.22437  Biso   1.000  S
  S4       1.0000 0.26270  0.57820  0.72437  Biso   1.000  S
  S5       1.0000 0.98298  0.81500  0.85796  Biso   1.000  S
  S6       1.0000 0.51702  0.18500  0.35796  Biso   1.000  S
  S7       1.0000 0.48298  0.68500  0.14204  Biso   1.000  S
  S8       1.0000 0.01702  0.31500  0.64204  Biso   1.000  S
  S9       1.0000 0.07535  0.30530  0.85303  Biso   1.000  S
  S10      1.0000 0.42465  0.69470  0.35303  Biso   1.000  S
  S11      1.0000 0.57535  0.19470  0.14697  Biso   1.000  S
  S12      1.0000 0.92465  0.80530  0.64697  Biso   1.000  S
  N1       1.0000 0.78520  0.41170  0.77400  Biso   1.000  N
  N2       1.0000 0.71480  0.58830  0.27400  Biso   1.000  N
  N3       1.0000 0.28520  0.08830  0.22600  Biso   1.000  N
  N4       1.0000 0.21480  0.91170  0.72600  Biso   1.000  N
  N5       1.0000 0.58930  0.33210  0.77860  Biso   1.000  N
  N6       1.0000 0.91070  0.66790  0.27860  Biso   1.000  N
  N7       1.0000 0.08930  0.16790  0.22140  Biso   1.000  N
  N8       1.0000 0.41070  0.83210  0.72140  Biso   1.000  N
  N9       1.0000 0.08520  0.95020  0.98070  Biso   1.000  N
  N10      1.0000 0.41480  0.04980  0.48070  Biso   1.000  N
  N11      1.0000 0.58520  0.54980  0.01930  Biso   1.000  N
  N12      1.0000 0.91480  0.45020  0.51930  Biso   1.000  N
  N13      1.0000 0.18390  0.73220  0.91260  Biso   1.000  N
  N14      1.0000 0.31610  0.26780  0.41260  Biso   1.000  N
  N15      1.0000 0.68390  0.76780  0.08740  Biso   1.000  N
  N16      1.0000 0.81610  0.23220  0.58740  Biso   1.000  N
  N17      1.0000 0.90600  0.21930  0.94410  Biso   1.000  N
  N18      1.0000 0.59400  0.78070  0.44410  Biso   1.000  N
  N19      1.0000 0.40600  0.28070  0.05590  Biso   1.000  N
  N20      1.0000 0.09400  0.71930  0.55590  Biso   1.000  N
  N21      1.0000 0.05100  0.38970  0.00130  Biso   1.000  N
  N22      1.0000 0.44900  0.61030  0.50130  Biso   1.000  N
  N23      1.0000 0.55100  0.11030  0.99870  Biso   1.000  N
  N24      1.0000 0.94900  0.88970  0.49870  Biso   1.000  N
  C1       1.0000 0.70090  0.29400  0.77580  Biso   1.000  C
  C2       1.0000 0.79910  0.70600  0.27580  Biso   1.000  C
  C3       1.0000 0.20090  0.20600  0.22420  Biso   1.000  C
  C4       1.0000 0.29910  0.79400  0.72420  Biso   1.000  C
  C5       1.0000 0.56290  0.49910  0.78010  Biso   1.000  C
  C6       1.0000 0.93710  0.50090  0.28010  Biso   1.000  C
  C7       1.0000 0.06290  0.00090  0.21990  Biso   1.000  C
  C8       1.0000 0.43710  0.99910  0.71990  Biso   1.000  C
  H1       1.0000 0.48550  0.53070  0.78170  Biso   1.000  H
  H2       1.0000 0.01450  0.46930  0.28170  Biso   1.000  H
  H3       1.0000 0.98550  0.96930  0.21830  Biso   1.000  H
  H4       1.0000 0.51450  0.03070  0.71830  Biso   1.000  H
  C9       1.0000 0.64340  0.62580  0.77950  Biso   1.000  C
  C10      1.0000 0.85660  0.37420  0.27950  Biso   1.000  C
  C11      1.0000 0.14340  0.87420  0.22050  Biso   1.000  C
  C12      1.0000 0.35660  0.12580  0.72050  Biso   1.000  C
  H5       1.0000 0.62310  0.74240  0.78150  Biso   1.000  H
  H6       1.0000 0.87690  0.25760  0.28150  Biso   1.000  H
  H7       1.0000 0.12310  0.75760  0.21850  Biso   1.000  H
  H8       1.0000 0.37690  0.24240  0.71850  Biso   1.000  H
  C13      1.0000 0.75380  0.57550  0.77610  Biso   1.000  C
  C14      1.0000 0.74620  0.42450  0.27610  Biso   1.000  C
  C15      1.0000 0.25380  0.92450  0.22390  Biso   1.000  C
  C16      1.0000 0.24620  0.07550  0.72390  Biso   1.000  C
  H9       1.0000 0.81090  0.66020  0.77510  Biso   1.000  H
  H10      1.0000 0.68910  0.33980  0.27510  Biso   1.000  H
  H11      1.0000 0.31090  0.83980  0.22490  Biso   1.000  H
  H12      1.0000 0.18910  0.16020  0.72490  Biso   1.000  H
  C17      1.0000 0.09530  0.83650  0.92370  Biso   1.000  C
  C18      1.0000 0.40470  0.16350  0.42370  Biso   1.000  C
  C19      1.0000 0.59530  0.66350  0.07630  Biso   1.000  C
  C20      1.0000 0.90470  0.33650  0.57630  Biso   1.000  C
  C21      1.0000 0.17470  0.96090  0.02630  Biso   1.000  C
  C22      1.0000 0.32530  0.03910  0.52630  Biso   1.000  C
  C23      1.0000 0.67470  0.53910  0.97370  Biso   1.000  C
  C24      1.0000 0.82530  0.46090  0.47370  Biso   1.000  C
  H13      1.0000 0.17210  0.04050  0.06710  Biso   1.000  H
  H14      1.0000 0.32790  0.95950  0.56710  Biso   1.000  H
  H15      1.0000 0.67210  0.45950  0.93290  Biso   1.000  H
  H16      1.0000 0.82790  0.54050  0.43290  Biso   1.000  H
  C25      1.0000 0.27110  0.86430  0.01840  Biso   1.000  C
  C26      1.0000 0.22890  0.13570  0.51840  Biso   1.000  C
  C27      1.0000 0.77110  0.63570  0.98160  Biso   1.000  C
  C28      1.0000 0.72890  0.36430  0.48160  Biso   1.000  C
  H17      1.0000 0.33400  0.87720  0.05150  Biso   1.000  H
  H18      1.0000 0.16600  0.12280  0.55150  Biso   1.000  H
  H19      1.0000 0.83400  0.62280  0.94850  Biso   1.000  H
  H20      1.0000 0.66600  0.37720  0.44850  Biso   1.000  H
  C29      1.0000 0.27090  0.74880  0.96020  Biso   1.000  C
  C30      1.0000 0.22910  0.25120  0.46020  Biso   1.000  C
  C31      1.0000 0.77090  0.75120  0.03980  Biso   1.000  C
  C32      1.0000 0.72910  0.24880  0.53980  Biso   1.000  C
  H21      1.0000 0.33510  0.67790  0.95340  Biso   1.000  H
  H22      1.0000 0.16490  0.32210  0.45340  Biso   1.000  H
  H23      1.0000 0.83510  0.82210  0.04660  Biso   1.000  H
  H24      1.0000 0.66490  0.17790  0.54660  Biso   1.000  H
  C33      1.0000 0.00350  0.30860  0.94150  Biso   1.000  C
  C34      1.0000 0.49650  0.69140  0.44150  Biso   1.000  C
  C35      1.0000 0.50350  0.19140  0.05850  Biso   1.000  C
  C36      1.0000 0.99650  0.80860  0.55850  Biso   1.000  C
  C37      1.0000 0.99500  0.37630  0.06760  Biso   1.000  C
  C38      1.0000 0.50500  0.62370  0.56760  Biso   1.000  C
  C39      1.0000 0.49500  0.12370  0.93240  Biso   1.000  C
  C40      1.0000 0.00500  0.87630  0.43240  Biso   1.000  C
  H25      1.0000 0.02660  0.42810  0.11170  Biso   1.000  H
  H26      1.0000 0.47340  0.57190  0.61170  Biso   1.000  H
  H27      1.0000 0.52660  0.07190  0.88830  Biso   1.000  H
  H28      1.0000 0.97340  0.92810  0.38830  Biso   1.000  H
  C41      1.0000 0.89300  0.29060  0.07510  Biso   1.000  C
  C42      1.0000 0.60700  0.70940  0.57510  Biso   1.000  C
  C43      1.0000 0.39300  0.20940  0.92490  Biso   1.000  C
  C44      1.0000 0.10700  0.79060  0.42490  Biso   1.000  C
  H29      1.0000 0.85390  0.28580  0.12240  Biso   1.000  H
  H30      1.0000 0.64610  0.71420  0.62240  Biso   1.000  H
  H31      1.0000 0.35390  0.21420  0.87760  Biso   1.000  H
  H32      1.0000 0.14610  0.78580  0.37760  Biso   1.000  H
  C45      1.0000 0.85180  0.21360  0.01120  Biso   1.000  C
  C46      1.0000 0.64820  0.78640  0.51120  Biso   1.000  C
  C47      1.0000 0.35180  0.28640  0.98880  Biso   1.000  C
  C48      1.0000 0.14820  0.71360  0.48880  Biso   1.000  C
  H33      1.0000 0.78230  0.15390  0.01430  Biso   1.000  H
  H34      1.0000 0.71770  0.84610  0.51430  Biso   1.000  H
  H35      1.0000 0.28230  0.34610  0.98570  Biso   1.000  H
  H36      1.0000 0.21770  0.65390  0.48570  Biso   1.000  H
