data_image0
_cell_length_a       13.62
_cell_length_b       13.62
_cell_length_c       22.642
_cell_angle_alpha    90
_cell_angle_beta     90
_cell_angle_gamma    90

_symmetry_space_group_name_H-M    "P 1"
_symmetry_int_tables_number       1

loop_
  _symmetry_equiv_pos_as_xyz
  'x, y, z'

loop_
  _atom_site_label
  _atom_site_occupancy
  _atom_site_fract_x
  _atom_site_fract_y
  _atom_site_fract_z
  _atom_site_thermal_displace_type
  _atom_site_B_iso_or_equiv
  _atom_site_type_symbol
  Cu1      1.0000 0.00000  0.00000  0.00000  Biso   1.000  Cu
  Cu2      1.0000 0.50000  0.50000  0.50000  Biso   1.000  Cu
  N1       1.0000 0.00000  0.11900  0.05400  Biso   1.000  N
  N2       1.0000 0.50000  0.61900  0.55400  Biso   1.000  N
  N3       1.0000 0.88100  0.00000  0.94600  Biso   1.000  N
  N4       1.0000 0.38100  0.50000  0.44600  Biso   1.000  N
  N5       1.0000 0.00000  0.88100  0.05400  Biso   1.000  N
  N6       1.0000 0.50000  0.38100  0.55400  Biso   1.000  N
  N7       1.0000 0.11900  0.00000  0.94600  Biso   1.000  N
  N8       1.0000 0.61900  0.50000  0.44600  Biso   1.000  N
  C1       1.0000 0.00000  0.17600  0.08400  Biso   1.000  C
  C2       1.0000 0.50000  0.67600  0.58400  Biso   1.000  C
  C3       1.0000 0.82400  0.00000  0.91600  Biso   1.000  C
  C4       1.0000 0.32400  0.50000  0.41600  Biso   1.000  C
  C5       1.0000 0.00000  0.82400  0.08400  Biso   1.000  C
  C6       1.0000 0.50000  0.32400  0.58400  Biso   1.000  C
  C7       1.0000 0.17600  0.00000  0.91600  Biso   1.000  C
  C8       1.0000 0.67600  0.50000  0.41600  Biso   1.000  C
  C9       1.0000 0.00000  0.25800  0.12400  Biso   1.000  C
  C10      1.0000 0.50000  0.75800  0.62400  Biso   1.000  C
  C11      1.0000 0.74200  0.00000  0.87600  Biso   1.000  C
  C12      1.0000 0.24200  0.50000  0.37600  Biso   1.000  C
  C13      1.0000 0.00000  0.74200  0.12400  Biso   1.000  C
  C14      1.0000 0.50000  0.24200  0.62400  Biso   1.000  C
  C15      1.0000 0.25800  0.00000  0.87600  Biso   1.000  C
  C16      1.0000 0.75800  0.50000  0.37600  Biso   1.000  C
  C17      1.0000 0.09500  0.29700  0.14400  Biso   1.000  C
  C18      1.0000 0.59500  0.79700  0.64400  Biso   1.000  C
  C19      1.0000 0.70300  0.09500  0.85600  Biso   1.000  C
  C20      1.0000 0.20300  0.59500  0.35600  Biso   1.000  C
  C21      1.0000 0.90500  0.70300  0.14400  Biso   1.000  C
  C22      1.0000 0.40500  0.20300  0.64400  Biso   1.000  C
  C23      1.0000 0.29700  0.90500  0.85600  Biso   1.000  C
  C24      1.0000 0.79700  0.40500  0.35600  Biso   1.000  C
  C25      1.0000 0.90500  0.29700  0.14400  Biso   1.000  C
  C26      1.0000 0.40500  0.79700  0.64400  Biso   1.000  C
  C27      1.0000 0.29700  0.09500  0.85600  Biso   1.000  C
  C28      1.0000 0.79700  0.59500  0.35600  Biso   1.000  C
  C29      1.0000 0.09500  0.70300  0.14400  Biso   1.000  C
  C30      1.0000 0.59500  0.20300  0.64400  Biso   1.000  C
  C31      1.0000 0.70300  0.90500  0.85600  Biso   1.000  C
  C32      1.0000 0.20300  0.40500  0.35600  Biso   1.000  C
  C33      1.0000 0.09300  0.38000  0.18800  Biso   1.000  C
  C34      1.0000 0.59300  0.88000  0.68800  Biso   1.000  C
  C35      1.0000 0.62000  0.09300  0.81200  Biso   1.000  C
  C36      1.0000 0.12000  0.59300  0.31200  Biso   1.000  C
  C37      1.0000 0.90700  0.62000  0.18800  Biso   1.000  C
  C38      1.0000 0.40700  0.12000  0.68800  Biso   1.000  C
  C39      1.0000 0.38000  0.90700  0.81200  Biso   1.000  C
  C40      1.0000 0.88000  0.40700  0.31200  Biso   1.000  C
  C41      1.0000 0.90700  0.38000  0.18800  Biso   1.000  C
  C42      1.0000 0.40700  0.88000  0.68800  Biso   1.000  C
  C43      1.0000 0.38000  0.09300  0.81200  Biso   1.000  C
  C44      1.0000 0.88000  0.59300  0.31200  Biso   1.000  C
  C45      1.0000 0.09300  0.62000  0.18800  Biso   1.000  C
  C46      1.0000 0.59300  0.12000  0.68800  Biso   1.000  C
  C47      1.0000 0.62000  0.90700  0.81200  Biso   1.000  C
  C48      1.0000 0.12000  0.40700  0.31200  Biso   1.000  C
  C49      1.0000 0.00000  0.41300  0.21000  Biso   1.000  C
  C50      1.0000 0.50000  0.91300  0.71000  Biso   1.000  C
  C51      1.0000 0.58700  0.00000  0.79000  Biso   1.000  C
  C52      1.0000 0.08700  0.50000  0.29000  Biso   1.000  C
  C53      1.0000 0.00000  0.58700  0.21000  Biso   1.000  C
  C54      1.0000 0.50000  0.08700  0.71000  Biso   1.000  C
  C55      1.0000 0.41300  0.00000  0.79000  Biso   1.000  C
  C56      1.0000 0.91300  0.50000  0.29000  Biso   1.000  C
  C57      1.0000 0.00000  0.50000  0.25000  Biso   1.000  C
  C58      1.0000 0.50000  0.00000  0.75000  Biso   1.000  C
