data_image0
_cell_length_a       11.3793
_cell_length_b       9.6944
_cell_length_c       13.5323
_cell_angle_alpha    90
_cell_angle_beta     90
_cell_angle_gamma    90

_symmetry_space_group_name_H-M    "P 1"
_symmetry_int_tables_number       1

loop_
  _symmetry_equiv_pos_as_xyz
  'x, y, z'

loop_
  _atom_site_label
  _atom_site_occupancy
  _atom_site_fract_x
  _atom_site_fract_y
  _atom_site_fract_z
  _atom_site_thermal_displace_type
  _atom_site_B_iso_or_equiv
  _atom_site_type_symbol
  I1       1.0000 0.39798  0.40011  0.60116  Biso   1.000  I
  I2       1.0000 0.10202  0.59989  0.10116  Biso   1.000  I
  I3       1.0000 0.60202  0.90011  0.89884  Biso   1.000  I
  I4       1.0000 0.89798  0.09989  0.39884  Biso   1.000  I
  I5       1.0000 0.60202  0.59989  0.39884  Biso   1.000  I
  I6       1.0000 0.89798  0.40011  0.89884  Biso   1.000  I
  I7       1.0000 0.39798  0.09989  0.10116  Biso   1.000  I
  I8       1.0000 0.10202  0.90011  0.60116  Biso   1.000  I
  Cu1      1.0000 0.65376  0.26108  0.49528  Biso   1.000  Cu
  Cu2      1.0000 0.84624  0.73892  0.99528  Biso   1.000  Cu
  Cu3      1.0000 0.34624  0.76108  0.00472  Biso   1.000  Cu
  Cu4      1.0000 0.15376  0.23892  0.50472  Biso   1.000  Cu
  Cu5      1.0000 0.34624  0.73892  0.50472  Biso   1.000  Cu
  Cu6      1.0000 0.15376  0.26108  0.00472  Biso   1.000  Cu
  Cu7      1.0000 0.65376  0.23892  0.99528  Biso   1.000  Cu
  Cu8      1.0000 0.84624  0.76108  0.49528  Biso   1.000  Cu
  N1       1.0000 0.50270  0.20190  0.45870  Biso   1.000  N
  N2       1.0000 0.99730  0.79810  0.95870  Biso   1.000  N
  N3       1.0000 0.49730  0.70190  0.04130  Biso   1.000  N
  N4       1.0000 0.00270  0.29810  0.54130  Biso   1.000  N
  N5       1.0000 0.49730  0.79810  0.54130  Biso   1.000  N
  N6       1.0000 0.00270  0.20190  0.04130  Biso   1.000  N
  N7       1.0000 0.50270  0.29810  0.95870  Biso   1.000  N
  N8       1.0000 0.99730  0.70190  0.45870  Biso   1.000  N
  N9       1.0000 0.30610  0.18580  0.46860  Biso   1.000  N
  N10      1.0000 0.19390  0.81420  0.96860  Biso   1.000  N
  N11      1.0000 0.69390  0.68580  0.03140  Biso   1.000  N
  N12      1.0000 0.80610  0.31420  0.53140  Biso   1.000  N
  N13      1.0000 0.69390  0.81420  0.53140  Biso   1.000  N
  N14      1.0000 0.80610  0.18580  0.03140  Biso   1.000  N
  N15      1.0000 0.30610  0.31420  0.96860  Biso   1.000  N
  N16      1.0000 0.19390  0.68580  0.46860  Biso   1.000  N
  C1       1.0000 0.47130  0.09490  0.39690  Biso   1.000  C
  C2       1.0000 0.02870  0.90510  0.89690  Biso   1.000  C
  C3       1.0000 0.52870  0.59490  0.10310  Biso   1.000  C
  C4       1.0000 0.97130  0.40510  0.60310  Biso   1.000  C
  C5       1.0000 0.52870  0.90510  0.60310  Biso   1.000  C
  C6       1.0000 0.97130  0.09490  0.10310  Biso   1.000  C
  C7       1.0000 0.47130  0.40510  0.89690  Biso   1.000  C
  C8       1.0000 0.02870  0.59490  0.39690  Biso   1.000  C
  C9       1.0000 0.53220  0.00670  0.33710  Biso   1.000  C
  C10      1.0000 0.96780  0.99330  0.83710  Biso   1.000  C
  C11      1.0000 0.46780  0.50670  0.16290  Biso   1.000  C
  C12      1.0000 0.03220  0.49330  0.66290  Biso   1.000  C
  C13      1.0000 0.46780  0.99330  0.66290  Biso   1.000  C
  C14      1.0000 0.03220  0.00670  0.16290  Biso   1.000  C
  C15      1.0000 0.53220  0.49330  0.83710  Biso   1.000  C
  C16      1.0000 0.96780  0.50670  0.33710  Biso   1.000  C
  H1       1.0000 0.61510  0.01450  0.33070  Biso   1.000  H
  H2       1.0000 0.88490  0.98550  0.83070  Biso   1.000  H
  H3       1.0000 0.38490  0.51450  0.16930  Biso   1.000  H
  H4       1.0000 0.11510  0.48550  0.66930  Biso   1.000  H
  H5       1.0000 0.38490  0.98550  0.66930  Biso   1.000  H
  H6       1.0000 0.11510  0.01450  0.16930  Biso   1.000  H
  H7       1.0000 0.61510  0.48550  0.83070  Biso   1.000  H
  H8       1.0000 0.88490  0.51450  0.33070  Biso   1.000  H
  C17      1.0000 0.47110  0.90570  0.28600  Biso   1.000  C
  C18      1.0000 0.02890  0.09430  0.78600  Biso   1.000  C
  C19      1.0000 0.52890  0.40570  0.21400  Biso   1.000  C
  C20      1.0000 0.97110  0.59430  0.71400  Biso   1.000  C
  C21      1.0000 0.52890  0.09430  0.71400  Biso   1.000  C
  C22      1.0000 0.97110  0.90570  0.21400  Biso   1.000  C
  C23      1.0000 0.47110  0.59430  0.78600  Biso   1.000  C
  C24      1.0000 0.02890  0.40570  0.28600  Biso   1.000  C
  H9       1.0000 0.51350  0.84180  0.24650  Biso   1.000  H
  H10      1.0000 0.98650  0.15820  0.74650  Biso   1.000  H
  H11      1.0000 0.48650  0.34180  0.25350  Biso   1.000  H
  H12      1.0000 0.01350  0.65820  0.75350  Biso   1.000  H
  H13      1.0000 0.48650  0.15820  0.75350  Biso   1.000  H
  H14      1.0000 0.01350  0.84180  0.25350  Biso   1.000  H
  H15      1.0000 0.51350  0.65820  0.74650  Biso   1.000  H
  H16      1.0000 0.98650  0.34180  0.24650  Biso   1.000  H
  C25      1.0000 0.35010  0.89540  0.29090  Biso   1.000  C
  C26      1.0000 0.14990  0.10460  0.79090  Biso   1.000  C
  C27      1.0000 0.64990  0.39540  0.20910  Biso   1.000  C
  C28      1.0000 0.85010  0.60460  0.70910  Biso   1.000  C
  C29      1.0000 0.64990  0.10460  0.70910  Biso   1.000  C
  C30      1.0000 0.85010  0.89540  0.20910  Biso   1.000  C
  C31      1.0000 0.35010  0.60460  0.79090  Biso   1.000  C
  C32      1.0000 0.14990  0.39540  0.29090  Biso   1.000  C
  H17      1.0000 0.31120  0.82540  0.25420  Biso   1.000  H
  H18      1.0000 0.18880  0.17460  0.75420  Biso   1.000  H
  H19      1.0000 0.68880  0.32540  0.24580  Biso   1.000  H
  H20      1.0000 0.81120  0.67460  0.74580  Biso   1.000  H
  H21      1.0000 0.68880  0.17460  0.74580  Biso   1.000  H
  H22      1.0000 0.81120  0.82540  0.24580  Biso   1.000  H
  H23      1.0000 0.31120  0.67460  0.75420  Biso   1.000  H
  H24      1.0000 0.18880  0.32540  0.25420  Biso   1.000  H
  C33      1.0000 0.28430  0.98550  0.34860  Biso   1.000  C
  C34      1.0000 0.21570  0.01450  0.84860  Biso   1.000  C
  C35      1.0000 0.71570  0.48550  0.15140  Biso   1.000  C
  C36      1.0000 0.78430  0.51450  0.65140  Biso   1.000  C
  C37      1.0000 0.71570  0.01450  0.65140  Biso   1.000  C
  C38      1.0000 0.78430  0.98550  0.15140  Biso   1.000  C
  C39      1.0000 0.28430  0.51450  0.84860  Biso   1.000  C
  C40      1.0000 0.21570  0.48550  0.34860  Biso   1.000  C
  H25      1.0000 0.20100  0.97910  0.35050  Biso   1.000  H
  H26      1.0000 0.29900  0.02090  0.85050  Biso   1.000  H
  H27      1.0000 0.79900  0.47910  0.14950  Biso   1.000  H
  H28      1.0000 0.70100  0.52090  0.64950  Biso   1.000  H
  H29      1.0000 0.79900  0.02090  0.64950  Biso   1.000  H
  H30      1.0000 0.70100  0.97910  0.14950  Biso   1.000  H
  H31      1.0000 0.20100  0.52090  0.85050  Biso   1.000  H
  H32      1.0000 0.29900  0.47910  0.35050  Biso   1.000  H
  C41      1.0000 0.34310  0.08480  0.40300  Biso   1.000  C
  C42      1.0000 0.15690  0.91520  0.90300  Biso   1.000  C
  C43      1.0000 0.65690  0.58480  0.09700  Biso   1.000  C
  C44      1.0000 0.84310  0.41520  0.59700  Biso   1.000  C
  C45      1.0000 0.65690  0.91520  0.59700  Biso   1.000  C
  C46      1.0000 0.84310  0.08480  0.09700  Biso   1.000  C
  C47      1.0000 0.34310  0.41520  0.90300  Biso   1.000  C
  C48      1.0000 0.15690  0.58480  0.40300  Biso   1.000  C
  C49      1.0000 0.40130  0.24780  0.49720  Biso   1.000  C
  C50      1.0000 0.09870  0.75220  0.99720  Biso   1.000  C
  C51      1.0000 0.59870  0.74780  0.00280  Biso   1.000  C
  C52      1.0000 0.90130  0.25220  0.50280  Biso   1.000  C
  C53      1.0000 0.59870  0.75220  0.50280  Biso   1.000  C
  C54      1.0000 0.90130  0.24780  0.00280  Biso   1.000  C
  C55      1.0000 0.40130  0.25220  0.99720  Biso   1.000  C
  C56      1.0000 0.09870  0.74780  0.49720  Biso   1.000  C
