data_image0
_cell_length_a       15.8807
_cell_length_b       4.1476
_cell_length_c       17.2672
_cell_angle_alpha    90
_cell_angle_beta     111.929
_cell_angle_gamma    90

_symmetry_space_group_name_H-M    "P 1"
_symmetry_int_tables_number       1

loop_
  _symmetry_equiv_pos_as_xyz
  'x, y, z'

loop_
  _atom_site_label
  _atom_site_occupancy
  _atom_site_fract_x
  _atom_site_fract_y
  _atom_site_fract_z
  _atom_site_thermal_displace_type
  _atom_site_B_iso_or_equiv
  _atom_site_type_symbol
  I1       1.0000 0.25690  0.13631  0.18739  Biso   1.000  I
  I2       1.0000 0.74310  0.63631  0.31261  Biso   1.000  I
  I3       1.0000 0.74310  0.86369  0.81261  Biso   1.000  I
  I4       1.0000 0.25690  0.36369  0.68739  Biso   1.000  I
  I5       1.0000 0.50204  0.61735  0.36290  Biso   1.000  I
  I6       1.0000 0.49796  0.11735  0.13710  Biso   1.000  I
  I7       1.0000 0.49796  0.38265  0.63710  Biso   1.000  I
  I8       1.0000 0.50204  0.88265  0.86290  Biso   1.000  I
  Cu1      1.0000 0.31414  0.61148  0.29090  Biso   1.000  Cu
  Cu2      1.0000 0.68586  0.11148  0.20910  Biso   1.000  Cu
  Cu3      1.0000 0.68586  0.38852  0.70910  Biso   1.000  Cu
  Cu4      1.0000 0.31414  0.88852  0.79090  Biso   1.000  Cu
  Cu5      1.0000 0.43175  0.11140  0.26106  Biso   1.000  Cu
  Cu6      1.0000 0.56825  0.61140  0.23894  Biso   1.000  Cu
  Cu7      1.0000 0.56825  0.88860  0.73894  Biso   1.000  Cu
  Cu8      1.0000 0.43175  0.38860  0.76106  Biso   1.000  Cu
  N1       1.0000 0.27600  0.70840  0.38540  Biso   1.000  N
  N2       1.0000 0.72400  0.20840  0.11460  Biso   1.000  N
  N3       1.0000 0.72400  0.29160  0.61460  Biso   1.000  N
  N4       1.0000 0.27600  0.79160  0.88540  Biso   1.000  N
  N5       1.0000 0.27180  0.93450  0.49930  Biso   1.000  N
  N6       1.0000 0.72820  0.43450  0.00070  Biso   1.000  N
  N7       1.0000 0.72820  0.06550  0.50070  Biso   1.000  N
  N8       1.0000 0.27180  0.56550  0.99930  Biso   1.000  N
  H1       1.0000 0.29020  0.03640  0.54610  Biso   1.000  H
  H2       1.0000 0.70980  0.53640  0.95390  Biso   1.000  H
  H3       1.0000 0.70980  0.96360  0.45390  Biso   1.000  H
  H4       1.0000 0.29020  0.46360  0.04610  Biso   1.000  H
  C1       1.0000 0.18950  0.66410  0.38700  Biso   1.000  C
  C2       1.0000 0.81050  0.16410  0.11300  Biso   1.000  C
  C3       1.0000 0.81050  0.33590  0.61300  Biso   1.000  C
  C4       1.0000 0.18950  0.83590  0.88700  Biso   1.000  C
  C5       1.0000 0.11410  0.50900  0.33040  Biso   1.000  C
  C6       1.0000 0.88590  0.00900  0.16960  Biso   1.000  C
  C7       1.0000 0.88590  0.49100  0.66960  Biso   1.000  C
  C8       1.0000 0.11410  0.99100  0.83040  Biso   1.000  C
  H5       1.0000 0.11600  0.40780  0.28300  Biso   1.000  H
  H6       1.0000 0.88400  0.90780  0.21700  Biso   1.000  H
  H7       1.0000 0.88400  0.59220  0.71700  Biso   1.000  H
  H8       1.0000 0.11600  0.09220  0.78300  Biso   1.000  H
  C9       1.0000 0.03650  0.51290  0.34800  Biso   1.000  C
  C10      1.0000 0.96350  0.01290  0.15200  Biso   1.000  C
  C11      1.0000 0.96350  0.48710  0.65200  Biso   1.000  C
  C12      1.0000 0.03650  0.98710  0.84800  Biso   1.000  C
  H9       1.0000 0.98420  0.41600  0.31090  Biso   1.000  H
  H10      1.0000 0.01580  0.91600  0.18910  Biso   1.000  H
  H11      1.0000 0.01580  0.58400  0.68910  Biso   1.000  H
  H12      1.0000 0.98420  0.08400  0.81090  Biso   1.000  H
  C13      1.0000 0.03410  0.65820  0.42000  Biso   1.000  C
  C14      1.0000 0.96590  0.15820  0.08000  Biso   1.000  C
  C15      1.0000 0.96590  0.34180  0.58000  Biso   1.000  C
  C16      1.0000 0.03410  0.84180  0.92000  Biso   1.000  C
  H13      1.0000 0.98030  0.65520  0.42960  Biso   1.000  H
  H14      1.0000 0.01970  0.15520  0.07040  Biso   1.000  H
  H15      1.0000 0.01970  0.34480  0.57040  Biso   1.000  H
  H16      1.0000 0.98030  0.84480  0.92960  Biso   1.000  H
  C17      1.0000 0.10840  0.80430  0.47660  Biso   1.000  C
  C18      1.0000 0.89160  0.30430  0.02340  Biso   1.000  C
  C19      1.0000 0.89160  0.19570  0.52340  Biso   1.000  C
  C20      1.0000 0.10840  0.69570  0.97660  Biso   1.000  C
  H17      1.0000 0.10690  0.89860  0.52490  Biso   1.000  H
  H18      1.0000 0.89310  0.39860  0.97510  Biso   1.000  H
  H19      1.0000 0.89310  0.10140  0.47510  Biso   1.000  H
  H20      1.0000 0.10690  0.60140  0.02490  Biso   1.000  H
  C21      1.0000 0.18590  0.80540  0.45870  Biso   1.000  C
  C22      1.0000 0.81410  0.30540  0.04130  Biso   1.000  C
  C23      1.0000 0.81410  0.19460  0.54130  Biso   1.000  C
  C24      1.0000 0.18590  0.69460  0.95870  Biso   1.000  C
  C25      1.0000 0.32140  0.87160  0.45240  Biso   1.000  C
  C26      1.0000 0.67860  0.37160  0.04760  Biso   1.000  C
  C27      1.0000 0.67860  0.12840  0.54760  Biso   1.000  C
  C28      1.0000 0.32140  0.62840  0.95240  Biso   1.000  C
  H21      1.0000 0.38130  0.93750  0.46640  Biso   1.000  H
  H22      1.0000 0.61870  0.43750  0.03360  Biso   1.000  H
  H23      1.0000 0.61870  0.06250  0.53360  Biso   1.000  H
  H24      1.0000 0.38130  0.56250  0.96640  Biso   1.000  H
