data_image0
_cell_length_a       27.349
_cell_length_b       27.349
_cell_length_c       45.793
_cell_angle_alpha    90
_cell_angle_beta     90
_cell_angle_gamma    120

_symmetry_space_group_name_H-M    "P 1"
_symmetry_int_tables_number       1

loop_
  _symmetry_equiv_pos_as_xyz
  'x, y, z'

loop_
  _atom_site_label
  _atom_site_occupancy
  _atom_site_fract_x
  _atom_site_fract_y
  _atom_site_fract_z
  _atom_site_thermal_displace_type
  _atom_site_B_iso_or_equiv
  _atom_site_type_symbol
  Zn1      1.0000 0.68133  0.84066  0.18697  Biso   1.000  Zn
  Zn2      1.0000 0.84067  0.68133  0.68697  Biso   1.000  Zn
  Zn3      1.0000 0.15934  0.84067  0.18697  Biso   1.000  Zn
  Zn4      1.0000 0.31867  0.15934  0.68697  Biso   1.000  Zn
  Zn5      1.0000 0.15933  0.31867  0.18697  Biso   1.000  Zn
  Zn6      1.0000 0.84066  0.15933  0.68697  Biso   1.000  Zn
  Zn7      1.0000 0.66670  0.33330  0.94391  Biso   1.000  Zn
  Zn8      1.0000 0.33340  0.66670  0.44391  Biso   1.000  Zn
  Zn9      1.0000 0.70508  0.41017  0.00011  Biso   1.000  Zn
  Zn10     1.0000 0.29491  0.70508  0.50011  Biso   1.000  Zn
  Zn11     1.0000 0.58983  0.29491  0.00011  Biso   1.000  Zn
  Zn12     1.0000 0.29492  0.58983  0.50011  Biso   1.000  Zn
  Zn13     1.0000 0.70509  0.29492  0.00011  Biso   1.000  Zn
  Zn14     1.0000 0.41017  0.70509  0.50011  Biso   1.000  Zn
  Zn15     1.0000 0.96108  0.03892  0.01612  Biso   1.000  Zn
  Zn16     1.0000 0.92216  0.96108  0.51612  Biso   1.000  Zn
  Zn17     1.0000 0.96108  0.92216  0.01612  Biso   1.000  Zn
  Zn18     1.0000 0.03892  0.96108  0.51612  Biso   1.000  Zn
  Zn19     1.0000 0.07784  0.03892  0.01612  Biso   1.000  Zn
  Zn20     1.0000 0.03892  0.07784  0.51612  Biso   1.000  Zn
  Zn21     1.0000 0.00000  0.00000  0.96047  Biso   1.000  Zn
  Zn22     1.0000 0.00000  0.00000  0.46047  Biso   1.000  Zn
  Zn23     1.0000 0.81138  0.90569  0.20739  Biso   1.000  Zn
  Zn24     1.0000 0.90569  0.81138  0.70739  Biso   1.000  Zn
  Zn25     1.0000 0.09431  0.90569  0.20739  Biso   1.000  Zn
  Zn26     1.0000 0.18862  0.09431  0.70739  Biso   1.000  Zn
  Zn27     1.0000 0.09431  0.18862  0.20739  Biso   1.000  Zn
  Zn28     1.0000 0.90569  0.09431  0.70739  Biso   1.000  Zn
  Zn29     1.0000 0.77440  0.82964  0.15094  Biso   1.000  Zn
  Zn30     1.0000 0.94476  0.77440  0.65094  Biso   1.000  Zn
  Zn31     1.0000 0.17036  0.94476  0.15094  Biso   1.000  Zn
  Zn32     1.0000 0.22560  0.17036  0.65094  Biso   1.000  Zn
  Zn33     1.0000 0.05524  0.22560  0.15094  Biso   1.000  Zn
  Zn34     1.0000 0.82964  0.05524  0.65094  Biso   1.000  Zn
  Zn35     1.0000 0.82964  0.77440  0.65094  Biso   1.000  Zn
  Zn36     1.0000 0.05524  0.82964  0.15094  Biso   1.000  Zn
  Zn37     1.0000 0.22560  0.05524  0.65094  Biso   1.000  Zn
  Zn38     1.0000 0.17036  0.22560  0.15094  Biso   1.000  Zn
  Zn39     1.0000 0.94476  0.17036  0.65094  Biso   1.000  Zn
  Zn40     1.0000 0.77440  0.94476  0.15094  Biso   1.000  Zn
  Cu1      1.0000 0.47166  0.52834  0.14412  Biso   1.000  Cu
  Cu2      1.0000 0.94332  0.47166  0.64412  Biso   1.000  Cu
  Cu3      1.0000 0.47166  0.94332  0.14412  Biso   1.000  Cu
  Cu4      1.0000 0.52834  0.47166  0.64412  Biso   1.000  Cu
  Cu5      1.0000 0.05668  0.52834  0.14412  Biso   1.000  Cu
  Cu6      1.0000 0.52834  0.05668  0.64412  Biso   1.000  Cu
  Cu7      1.0000 0.57998  0.53711  0.10457  Biso   1.000  Cu
  Cu8      1.0000 0.04287  0.57998  0.60457  Biso   1.000  Cu
  Cu9      1.0000 0.46289  0.04287  0.10457  Biso   1.000  Cu
  Cu10     1.0000 0.42002  0.46289  0.60457  Biso   1.000  Cu
  Cu11     1.0000 0.95713  0.42002  0.10457  Biso   1.000  Cu
  Cu12     1.0000 0.53711  0.95713  0.60457  Biso   1.000  Cu
  Cu13     1.0000 0.53711  0.57998  0.60457  Biso   1.000  Cu
  Cu14     1.0000 0.95713  0.53711  0.10457  Biso   1.000  Cu
  Cu15     1.0000 0.42002  0.95713  0.60457  Biso   1.000  Cu
  Cu16     1.0000 0.46289  0.42002  0.10457  Biso   1.000  Cu
  Cu17     1.0000 0.04287  0.46289  0.60457  Biso   1.000  Cu
  Cu18     1.0000 0.57998  0.04287  0.10457  Biso   1.000  Cu
  Cu19     1.0000 0.74635  0.87317  0.36179  Biso   1.000  Cu
  Cu20     1.0000 0.87318  0.74635  0.86179  Biso   1.000  Cu
  Cu21     1.0000 0.12683  0.87318  0.36179  Biso   1.000  Cu
  Cu22     1.0000 0.25365  0.12683  0.86179  Biso   1.000  Cu
  Cu23     1.0000 0.12682  0.25365  0.36179  Biso   1.000  Cu
  Cu24     1.0000 0.87317  0.12682  0.86179  Biso   1.000  Cu
  Cu25     1.0000 0.60651  0.80326  0.35203  Biso   1.000  Cu
  Cu26     1.0000 0.80325  0.60651  0.85203  Biso   1.000  Cu
  Cu27     1.0000 0.19674  0.80325  0.35203  Biso   1.000  Cu
  Cu28     1.0000 0.39349  0.19674  0.85203  Biso   1.000  Cu
  Cu29     1.0000 0.19675  0.39349  0.35203  Biso   1.000  Cu
  Cu30     1.0000 0.80326  0.19675  0.85203  Biso   1.000  Cu
  Cu31     1.0000 0.83541  0.16459  0.91731  Biso   1.000  Cu
  Cu32     1.0000 0.67082  0.83541  0.41731  Biso   1.000  Cu
  Cu33     1.0000 0.83541  0.67082  0.91731  Biso   1.000  Cu
  Cu34     1.0000 0.16459  0.83541  0.41731  Biso   1.000  Cu
  Cu35     1.0000 0.32918  0.16459  0.91731  Biso   1.000  Cu
  Cu36     1.0000 0.16459  0.32918  0.41731  Biso   1.000  Cu
  O1       1.0000 0.70760  0.75650  0.14980  Biso   1.000  O
  O2       1.0000 0.95110  0.70760  0.64980  Biso   1.000  O
  O3       1.0000 0.24350  0.95110  0.14980  Biso   1.000  O
  O4       1.0000 0.29240  0.24350  0.64980  Biso   1.000  O
  O5       1.0000 0.04890  0.29240  0.14980  Biso   1.000  O
  O6       1.0000 0.75650  0.04890  0.64980  Biso   1.000  O
  O7       1.0000 0.75650  0.70760  0.64980  Biso   1.000  O
  O8       1.0000 0.04890  0.75650  0.14980  Biso   1.000  O
  O9       1.0000 0.29240  0.04890  0.64980  Biso   1.000  O
  O10      1.0000 0.24350  0.29240  0.14980  Biso   1.000  O
  O11      1.0000 0.95110  0.24350  0.64980  Biso   1.000  O
  O12      1.0000 0.70760  0.95110  0.14980  Biso   1.000  O
  O13      1.0000 0.63800  0.76180  0.17337  Biso   1.000  O
  O14      1.0000 0.87620  0.63800  0.67337  Biso   1.000  O
  O15      1.0000 0.23820  0.87620  0.17337  Biso   1.000  O
  O16      1.0000 0.36200  0.23820  0.67337  Biso   1.000  O
  O17      1.0000 0.12380  0.36200  0.17337  Biso   1.000  O
  O18      1.0000 0.76180  0.12380  0.67337  Biso   1.000  O
  O19      1.0000 0.76180  0.63800  0.67337  Biso   1.000  O
  O20      1.0000 0.12380  0.76180  0.17337  Biso   1.000  O
  O21      1.0000 0.36200  0.12380  0.67337  Biso   1.000  O
  O22      1.0000 0.23820  0.36200  0.17337  Biso   1.000  O
  O23      1.0000 0.87620  0.23820  0.67337  Biso   1.000  O
  O24      1.0000 0.63800  0.87620  0.17337  Biso   1.000  O
  O25      1.0000 0.75920  0.87961  0.17440  Biso   1.000  O
  O26      1.0000 0.87959  0.75920  0.67440  Biso   1.000  O
  O27      1.0000 0.12039  0.87959  0.17440  Biso   1.000  O
  O28      1.0000 0.24080  0.12039  0.67440  Biso   1.000  O
  O29      1.0000 0.12041  0.24080  0.17440  Biso   1.000  O
  O30      1.0000 0.87961  0.12041  0.67440  Biso   1.000  O
  O31      1.0000 0.79730  0.86160  0.11290  Biso   1.000  O
  O32      1.0000 0.93570  0.79730  0.61290  Biso   1.000  O
  O33      1.0000 0.13840  0.93570  0.11290  Biso   1.000  O
  O34      1.0000 0.20270  0.13840  0.61290  Biso   1.000  O
  O35      1.0000 0.06430  0.20270  0.11290  Biso   1.000  O
  O36      1.0000 0.86160  0.06430  0.61290  Biso   1.000  O
  O37      1.0000 0.86160  0.79730  0.61290  Biso   1.000  O
  O38      1.0000 0.06430  0.86160  0.11290  Biso   1.000  O
  O39      1.0000 0.20270  0.06430  0.61290  Biso   1.000  O
  O40      1.0000 0.13840  0.20270  0.11290  Biso   1.000  O
  O41      1.0000 0.93570  0.13840  0.61290  Biso   1.000  O
  O42      1.0000 0.79730  0.93570  0.11290  Biso   1.000  O
  O43      1.0000 0.66930  0.83470  0.23010  Biso   1.000  O
  O44      1.0000 0.83460  0.66930  0.73010  Biso   1.000  O
  O45      1.0000 0.16530  0.83460  0.23010  Biso   1.000  O
  O46      1.0000 0.33070  0.16530  0.73010  Biso   1.000  O
  O47      1.0000 0.16540  0.33070  0.23010  Biso   1.000  O
  O48      1.0000 0.83470  0.16540  0.73010  Biso   1.000  O
  O49      1.0000 0.76370  0.88180  0.24170  Biso   1.000  O
  O50      1.0000 0.88190  0.76370  0.74170  Biso   1.000  O
  O51      1.0000 0.11820  0.88190  0.24170  Biso   1.000  O
  O52      1.0000 0.23630  0.11820  0.74170  Biso   1.000  O
  O53      1.0000 0.11810  0.23630  0.24170  Biso   1.000  O
  O54      1.0000 0.88180  0.11810  0.74170  Biso   1.000  O
  O55      1.0000 0.00000  0.00000  0.00400  Biso   1.000  O
  O56      1.0000 0.00000  0.00000  0.50400  Biso   1.000  O
  O57      1.0000 0.70190  0.40390  0.92620  Biso   1.000  O
  O58      1.0000 0.29800  0.70190  0.42620  Biso   1.000  O
  O59      1.0000 0.59610  0.29800  0.92620  Biso   1.000  O
  O60      1.0000 0.29810  0.59610  0.42620  Biso   1.000  O
  O61      1.0000 0.70200  0.29810  0.92620  Biso   1.000  O
  O62      1.0000 0.40390  0.70200  0.42620  Biso   1.000  O
  O63      1.0000 0.66670  0.33330  0.98870  Biso   1.000  O
  O64      1.0000 0.33340  0.66670  0.48870  Biso   1.000  O
  O65      1.0000 0.65660  0.42490  0.02670  Biso   1.000  O
  O66      1.0000 0.23170  0.65660  0.52670  Biso   1.000  O
  O67      1.0000 0.57510  0.23170  0.02670  Biso   1.000  O
  O68      1.0000 0.34340  0.57510  0.52670  Biso   1.000  O
  O69      1.0000 0.76830  0.34340  0.02670  Biso   1.000  O
  O70      1.0000 0.42490  0.76830  0.52670  Biso   1.000  O
  O71      1.0000 0.42490  0.65660  0.52670  Biso   1.000  O
  O72      1.0000 0.76830  0.42490  0.02670  Biso   1.000  O
  O73      1.0000 0.34340  0.76830  0.52670  Biso   1.000  O
  O74      1.0000 0.57510  0.34340  0.02670  Biso   1.000  O
  O75      1.0000 0.23170  0.57510  0.52670  Biso   1.000  O
  O76      1.0000 0.65660  0.23170  0.02670  Biso   1.000  O
  O77      1.0000 0.72890  0.45770  0.96740  Biso   1.000  O
  O78      1.0000 0.27120  0.72890  0.46740  Biso   1.000  O
  O79      1.0000 0.54230  0.27120  0.96740  Biso   1.000  O
  O80      1.0000 0.27110  0.54230  0.46740  Biso   1.000  O
  O81      1.0000 0.72880  0.27110  0.96740  Biso   1.000  O
  O82      1.0000 0.45770  0.72880  0.46740  Biso   1.000  O
  O83      1.0000 0.96600  0.03400  0.94380  Biso   1.000  O
  O84      1.0000 0.93200  0.96600  0.44380  Biso   1.000  O
  O85      1.0000 0.96600  0.93200  0.94380  Biso   1.000  O
  O86      1.0000 0.03400  0.96600  0.44380  Biso   1.000  O
  O87      1.0000 0.06800  0.03400  0.94380  Biso   1.000  O
  O88      1.0000 0.03400  0.06800  0.44380  Biso   1.000  O
  O89      1.0000 0.93740  0.06260  0.97930  Biso   1.000  O
  O90      1.0000 0.87480  0.93740  0.47930  Biso   1.000  O
  O91      1.0000 0.93740  0.87480  0.97930  Biso   1.000  O
  O92      1.0000 0.06260  0.93740  0.47930  Biso   1.000  O
  O93      1.0000 0.12520  0.06260  0.97930  Biso   1.000  O
  O94      1.0000 0.06260  0.12520  0.47930  Biso   1.000  O
  N1       1.0000 0.83660  0.00940  0.16930  Biso   1.000  N
  N2       1.0000 0.82720  0.83660  0.66930  Biso   1.000  N
  N3       1.0000 0.99060  0.82720  0.16930  Biso   1.000  N
  N4       1.0000 0.16340  0.99060  0.66930  Biso   1.000  N
  N5       1.0000 0.17280  0.16340  0.16930  Biso   1.000  N
  N6       1.0000 0.00940  0.17280  0.66930  Biso   1.000  N
  N7       1.0000 0.00940  0.83660  0.66930  Biso   1.000  N
  N8       1.0000 0.17280  0.00940  0.16930  Biso   1.000  N
  N9       1.0000 0.16340  0.17280  0.66930  Biso   1.000  N
  N10      1.0000 0.99060  0.16340  0.16930  Biso   1.000  N
  N11      1.0000 0.82720  0.99060  0.66930  Biso   1.000  N
  N12      1.0000 0.83660  0.82720  0.16930  Biso   1.000  N
  N13      1.0000 0.85860  0.98830  0.20080  Biso   1.000  N
  N14      1.0000 0.87030  0.85860  0.70080  Biso   1.000  N
  N15      1.0000 0.01170  0.87030  0.20080  Biso   1.000  N
  N16      1.0000 0.14140  0.01170  0.70080  Biso   1.000  N
  N17      1.0000 0.12970  0.14140  0.20080  Biso   1.000  N
  N18      1.0000 0.98830  0.12970  0.70080  Biso   1.000  N
  N19      1.0000 0.98830  0.85860  0.70080  Biso   1.000  N
  N20      1.0000 0.12970  0.98830  0.20080  Biso   1.000  N
  N21      1.0000 0.14140  0.12970  0.70080  Biso   1.000  N
  N22      1.0000 0.01170  0.14140  0.20080  Biso   1.000  N
  N23      1.0000 0.87030  0.01170  0.70080  Biso   1.000  N
  N24      1.0000 0.85860  0.87030  0.20080  Biso   1.000  N
  N25      1.0000 0.57110  0.47750  0.08100  Biso   1.000  N
  N26      1.0000 0.09360  0.57110  0.58100  Biso   1.000  N
  N27      1.0000 0.52250  0.09360  0.08100  Biso   1.000  N
  N28      1.0000 0.42890  0.52250  0.58100  Biso   1.000  N
  N29      1.0000 0.90640  0.42890  0.08100  Biso   1.000  N
  N30      1.0000 0.47750  0.90640  0.58100  Biso   1.000  N
  N31      1.0000 0.47750  0.57110  0.58100  Biso   1.000  N
  N32      1.0000 0.90640  0.47750  0.08100  Biso   1.000  N
  N33      1.0000 0.42890  0.90640  0.58100  Biso   1.000  N
  N34      1.0000 0.52250  0.42890  0.08100  Biso   1.000  N
  N35      1.0000 0.09360  0.52250  0.58100  Biso   1.000  N
  N36      1.0000 0.57110  0.09360  0.08100  Biso   1.000  N
  N37      1.0000 0.58450  0.59640  0.12680  Biso   1.000  N
  N38      1.0000 0.98810  0.58450  0.62680  Biso   1.000  N
  N39      1.0000 0.40360  0.98810  0.12680  Biso   1.000  N
  N40      1.0000 0.41550  0.40360  0.62680  Biso   1.000  N
  N41      1.0000 0.01190  0.41550  0.12680  Biso   1.000  N
  N42      1.0000 0.59640  0.01190  0.62680  Biso   1.000  N
  N43      1.0000 0.59640  0.58450  0.62680  Biso   1.000  N
  N44      1.0000 0.01190  0.59640  0.12680  Biso   1.000  N
  N45      1.0000 0.41550  0.01190  0.62680  Biso   1.000  N
  N46      1.0000 0.40360  0.41550  0.12680  Biso   1.000  N
  N47      1.0000 0.98810  0.40360  0.62680  Biso   1.000  N
  N48      1.0000 0.58450  0.98810  0.12680  Biso   1.000  N
  N49      1.0000 0.54420  0.59520  0.14340  Biso   1.000  N
  N50      1.0000 0.94900  0.54420  0.64340  Biso   1.000  N
  N51      1.0000 0.40480  0.94900  0.14340  Biso   1.000  N
  N52      1.0000 0.45580  0.40480  0.64340  Biso   1.000  N
  N53      1.0000 0.05100  0.45580  0.14340  Biso   1.000  N
  N54      1.0000 0.59520  0.05100  0.64340  Biso   1.000  N
  N55      1.0000 0.59520  0.54420  0.64340  Biso   1.000  N
  N56      1.0000 0.05100  0.59520  0.14340  Biso   1.000  N
  N57      1.0000 0.45580  0.05100  0.64340  Biso   1.000  N
  N58      1.0000 0.40480  0.45580  0.14340  Biso   1.000  N
  N59      1.0000 0.94900  0.40480  0.64340  Biso   1.000  N
  N60      1.0000 0.54420  0.94900  0.14340  Biso   1.000  N
  N61      1.0000 0.65420  0.82710  0.31800  Biso   1.000  N
  N62      1.0000 0.82710  0.65420  0.81800  Biso   1.000  N
  N63      1.0000 0.17290  0.82710  0.31800  Biso   1.000  N
  N64      1.0000 0.34580  0.17290  0.81800  Biso   1.000  N
  N65      1.0000 0.17290  0.34580  0.31800  Biso   1.000  N
  N66      1.0000 0.82710  0.17290  0.81800  Biso   1.000  N
  N67      1.0000 0.70570  0.85280  0.32540  Biso   1.000  N
  N68      1.0000 0.85290  0.70570  0.82540  Biso   1.000  N
  N69      1.0000 0.14720  0.85290  0.32540  Biso   1.000  N
  N70      1.0000 0.29430  0.14720  0.82540  Biso   1.000  N
  N71      1.0000 0.14710  0.29430  0.32540  Biso   1.000  N
  N72      1.0000 0.85280  0.14710  0.82540  Biso   1.000  N
  N73      1.0000 0.89800  0.97960  0.03880  Biso   1.000  N
  N74      1.0000 0.91840  0.89800  0.53880  Biso   1.000  N
  N75      1.0000 0.02040  0.91840  0.03880  Biso   1.000  N
  N76      1.0000 0.10200  0.02040  0.53880  Biso   1.000  N
  N77      1.0000 0.08160  0.10200  0.03880  Biso   1.000  N
  N78      1.0000 0.97960  0.08160  0.53880  Biso   1.000  N
  N79      1.0000 0.97960  0.89800  0.53880  Biso   1.000  N
  N80      1.0000 0.08160  0.97960  0.03880  Biso   1.000  N
  N81      1.0000 0.10200  0.08160  0.53880  Biso   1.000  N
  N82      1.0000 0.02040  0.10200  0.03880  Biso   1.000  N
  N83      1.0000 0.91840  0.02040  0.53880  Biso   1.000  N
  N84      1.0000 0.89800  0.91840  0.03880  Biso   1.000  N
  N85      1.0000 0.89430  0.10570  0.89850  Biso   1.000  N
  N86      1.0000 0.78860  0.89430  0.39850  Biso   1.000  N
  N87      1.0000 0.89430  0.78860  0.89850  Biso   1.000  N
  N88      1.0000 0.10570  0.89430  0.39850  Biso   1.000  N
  N89      1.0000 0.21140  0.10570  0.89850  Biso   1.000  N
  N90      1.0000 0.10570  0.21140  0.39850  Biso   1.000  N
  N91      1.0000 0.87470  0.12530  0.92340  Biso   1.000  N
  N92      1.0000 0.74940  0.87470  0.42340  Biso   1.000  N
  N93      1.0000 0.87470  0.74940  0.92340  Biso   1.000  N
  N94      1.0000 0.12530  0.87470  0.42340  Biso   1.000  N
  N95      1.0000 0.25060  0.12530  0.92340  Biso   1.000  N
  N96      1.0000 0.12530  0.25060  0.42340  Biso   1.000  N
  N97      1.0000 0.78170  0.56330  0.88880  Biso   1.000  N
  N98      1.0000 0.21840  0.78170  0.38880  Biso   1.000  N
  N99      1.0000 0.43670  0.21840  0.88880  Biso   1.000  N
  N100     1.0000 0.21830  0.43670  0.38880  Biso   1.000  N
  N101     1.0000 0.78160  0.21830  0.88880  Biso   1.000  N
  N102     1.0000 0.56330  0.78160  0.38880  Biso   1.000  N
  N103     1.0000 0.79590  0.59190  0.91370  Biso   1.000  N
  N104     1.0000 0.20400  0.79590  0.41370  Biso   1.000  N
  N105     1.0000 0.40810  0.20400  0.91370  Biso   1.000  N
  N106     1.0000 0.20410  0.40810  0.41370  Biso   1.000  N
  N107     1.0000 0.79600  0.20410  0.91370  Biso   1.000  N
  N108     1.0000 0.59190  0.79600  0.41370  Biso   1.000  N
  C1       1.0000 0.65990  0.73960  0.15740  Biso   1.000  C
  C2       1.0000 0.92030  0.65990  0.65740  Biso   1.000  C
  C3       1.0000 0.26040  0.92030  0.15740  Biso   1.000  C
  C4       1.0000 0.34010  0.26040  0.65740  Biso   1.000  C
  C5       1.0000 0.07970  0.34010  0.15740  Biso   1.000  C
  C6       1.0000 0.73960  0.07970  0.65740  Biso   1.000  C
  C7       1.0000 0.73960  0.65990  0.65740  Biso   1.000  C
  C8       1.0000 0.07970  0.73960  0.15740  Biso   1.000  C
  C9       1.0000 0.34010  0.07970  0.65740  Biso   1.000  C
  C10      1.0000 0.26040  0.34010  0.15740  Biso   1.000  C
  C11      1.0000 0.92030  0.26040  0.65740  Biso   1.000  C
  C12      1.0000 0.65990  0.92030  0.15740  Biso   1.000  C
  C13      1.0000 0.61810  0.67890  0.14850  Biso   1.000  C
  C14      1.0000 0.93920  0.61810  0.64850  Biso   1.000  C
  C15      1.0000 0.32110  0.93920  0.14850  Biso   1.000  C
  C16      1.0000 0.38190  0.32110  0.64850  Biso   1.000  C
  C17      1.0000 0.06080  0.38190  0.14850  Biso   1.000  C
  C18      1.0000 0.67890  0.06080  0.64850  Biso   1.000  C
  C19      1.0000 0.67890  0.61810  0.64850  Biso   1.000  C
  C20      1.0000 0.06080  0.67890  0.14850  Biso   1.000  C
  C21      1.0000 0.38190  0.06080  0.64850  Biso   1.000  C
  C22      1.0000 0.32110  0.38190  0.14850  Biso   1.000  C
  C23      1.0000 0.93920  0.32110  0.64850  Biso   1.000  C
  C24      1.0000 0.61810  0.93920  0.14850  Biso   1.000  C
  C25      1.0000 0.62890  0.64420  0.13020  Biso   1.000  C
  C26      1.0000 0.98470  0.62890  0.63020  Biso   1.000  C
  C27      1.0000 0.35580  0.98470  0.13020  Biso   1.000  C
  C28      1.0000 0.37110  0.35580  0.63020  Biso   1.000  C
  C29      1.0000 0.01530  0.37110  0.13020  Biso   1.000  C
  C30      1.0000 0.64420  0.01530  0.63020  Biso   1.000  C
  C31      1.0000 0.64420  0.62890  0.63020  Biso   1.000  C
  C32      1.0000 0.01530  0.64420  0.13020  Biso   1.000  C
  C33      1.0000 0.37110  0.01530  0.63020  Biso   1.000  C
  C34      1.0000 0.35580  0.37110  0.13020  Biso   1.000  C
  C35      1.0000 0.98470  0.35580  0.63020  Biso   1.000  C
  C36      1.0000 0.62890  0.98470  0.13020  Biso   1.000  C
  H1       1.0000 0.66360  0.65460  0.12160  Biso   1.000  H
  H2       1.0000 0.00900  0.66360  0.62160  Biso   1.000  H
  H3       1.0000 0.34540  0.00900  0.12160  Biso   1.000  H
  H4       1.0000 0.33640  0.34540  0.62160  Biso   1.000  H
  H5       1.0000 0.99100  0.33640  0.12160  Biso   1.000  H
  H6       1.0000 0.65460  0.99100  0.62160  Biso   1.000  H
  H7       1.0000 0.65460  0.66360  0.62160  Biso   1.000  H
  H8       1.0000 0.99100  0.65460  0.12160  Biso   1.000  H
  H9       1.0000 0.33640  0.99100  0.62160  Biso   1.000  H
  H10      1.0000 0.34540  0.33640  0.12160  Biso   1.000  H
  H11      1.0000 0.00900  0.34540  0.62160  Biso   1.000  H
  H12      1.0000 0.66360  0.00900  0.12160  Biso   1.000  H
  C37      1.0000 0.56130  0.64280  0.15470  Biso   1.000  C
  C38      1.0000 0.91850  0.56130  0.65470  Biso   1.000  C
  C39      1.0000 0.35720  0.91850  0.15470  Biso   1.000  C
  C40      1.0000 0.43870  0.35720  0.65470  Biso   1.000  C
  C41      1.0000 0.08150  0.43870  0.15470  Biso   1.000  C
  C42      1.0000 0.64280  0.08150  0.65470  Biso   1.000  C
  C43      1.0000 0.64280  0.56130  0.65470  Biso   1.000  C
  C44      1.0000 0.08150  0.64280  0.15470  Biso   1.000  C
  C45      1.0000 0.43870  0.08150  0.65470  Biso   1.000  C
  C46      1.0000 0.35720  0.43870  0.15470  Biso   1.000  C
  C47      1.0000 0.91850  0.35720  0.65470  Biso   1.000  C
  C48      1.0000 0.56130  0.91850  0.15470  Biso   1.000  C
  H13      1.0000 0.53910  0.65270  0.16580  Biso   1.000  H
  H14      1.0000 0.88640  0.53910  0.66580  Biso   1.000  H
  H15      1.0000 0.34730  0.88640  0.16580  Biso   1.000  H
  H16      1.0000 0.46090  0.34730  0.66580  Biso   1.000  H
  H17      1.0000 0.11360  0.46090  0.16580  Biso   1.000  H
  H18      1.0000 0.65270  0.11360  0.66580  Biso   1.000  H
  H19      1.0000 0.65270  0.53910  0.66580  Biso   1.000  H
  H20      1.0000 0.11360  0.65270  0.16580  Biso   1.000  H
  H21      1.0000 0.46090  0.11360  0.66580  Biso   1.000  H
  H22      1.0000 0.34730  0.46090  0.16580  Biso   1.000  H
  H23      1.0000 0.88640  0.34730  0.66580  Biso   1.000  H
  H24      1.0000 0.53910  0.88640  0.16580  Biso   1.000  H
  C49      1.0000 0.60620  0.46950  0.06550  Biso   1.000  C
  C50      1.0000 0.13670  0.60620  0.56550  Biso   1.000  C
  C51      1.0000 0.53050  0.13670  0.06550  Biso   1.000  C
  C52      1.0000 0.39380  0.53050  0.56550  Biso   1.000  C
  C53      1.0000 0.86330  0.39380  0.06550  Biso   1.000  C
  C54      1.0000 0.46950  0.86330  0.56550  Biso   1.000  C
  C55      1.0000 0.46950  0.60620  0.56550  Biso   1.000  C
  C56      1.0000 0.86330  0.46950  0.06550  Biso   1.000  C
  C57      1.0000 0.39380  0.86330  0.56550  Biso   1.000  C
  C58      1.0000 0.53050  0.39380  0.06550  Biso   1.000  C
  C59      1.0000 0.13670  0.53050  0.56550  Biso   1.000  C
  C60      1.0000 0.60620  0.13670  0.06550  Biso   1.000  C
  H25      1.0000 0.64330  0.49700  0.06140  Biso   1.000  H
  H26      1.0000 0.14630  0.64330  0.56140  Biso   1.000  H
  H27      1.0000 0.50300  0.14630  0.06140  Biso   1.000  H
  H28      1.0000 0.35670  0.50300  0.56140  Biso   1.000  H
  H29      1.0000 0.85370  0.35670  0.06140  Biso   1.000  H
  H30      1.0000 0.49700  0.85370  0.56140  Biso   1.000  H
  H31      1.0000 0.49700  0.64330  0.56140  Biso   1.000  H
  H32      1.0000 0.85370  0.49700  0.06140  Biso   1.000  H
  H33      1.0000 0.35670  0.85370  0.56140  Biso   1.000  H
  H34      1.0000 0.50300  0.35670  0.06140  Biso   1.000  H
  H35      1.0000 0.14630  0.50300  0.56140  Biso   1.000  H
  H36      1.0000 0.64330  0.14630  0.06140  Biso   1.000  H
  C61      1.0000 0.58240  0.41760  0.05640  Biso   1.000  C
  C62      1.0000 0.16480  0.58240  0.55640  Biso   1.000  C
  C63      1.0000 0.58240  0.16480  0.05640  Biso   1.000  C
  C64      1.0000 0.41760  0.58240  0.55640  Biso   1.000  C
  C65      1.0000 0.83520  0.41760  0.05640  Biso   1.000  C
  C66      1.0000 0.41760  0.83520  0.55640  Biso   1.000  C
  C67      1.0000 0.69890  0.84950  0.27780  Biso   1.000  C
  C68      1.0000 0.84940  0.69890  0.77780  Biso   1.000  C
  C69      1.0000 0.15050  0.84940  0.27780  Biso   1.000  C
  C70      1.0000 0.30110  0.15050  0.77780  Biso   1.000  C
  C71      1.0000 0.15060  0.30110  0.27780  Biso   1.000  C
  C72      1.0000 0.84950  0.15060  0.77780  Biso   1.000  C
  C73      1.0000 0.64850  0.82430  0.29180  Biso   1.000  C
  C74      1.0000 0.82420  0.64850  0.79180  Biso   1.000  C
  C75      1.0000 0.17570  0.82420  0.29180  Biso   1.000  C
  C76      1.0000 0.35150  0.17570  0.79180  Biso   1.000  C
  C77      1.0000 0.17580  0.35150  0.29180  Biso   1.000  C
  C78      1.0000 0.82430  0.17580  0.79180  Biso   1.000  C
  H37      1.0000 0.61370  0.80690  0.28230  Biso   1.000  H
  H38      1.0000 0.80680  0.61370  0.78230  Biso   1.000  H
  H39      1.0000 0.19310  0.80680  0.28230  Biso   1.000  H
  H40      1.0000 0.38630  0.19310  0.78230  Biso   1.000  H
  H41      1.0000 0.19320  0.38630  0.28230  Biso   1.000  H
  H42      1.0000 0.80690  0.19320  0.78230  Biso   1.000  H
  C79      1.0000 0.75480  0.50970  0.89220  Biso   1.000  C
  C80      1.0000 0.24510  0.75480  0.39220  Biso   1.000  C
  C81      1.0000 0.49030  0.24510  0.89220  Biso   1.000  C
  C82      1.0000 0.24520  0.49030  0.39220  Biso   1.000  C
  C83      1.0000 0.75490  0.24520  0.89220  Biso   1.000  C
  C84      1.0000 0.50970  0.75490  0.39220  Biso   1.000  C
  H43      1.0000 0.74090  0.48180  0.87790  Biso   1.000  H
  H44      1.0000 0.25910  0.74090  0.37790  Biso   1.000  H
  H45      1.0000 0.51820  0.25910  0.87790  Biso   1.000  H
  H46      1.0000 0.25910  0.51820  0.37790  Biso   1.000  H
  H47      1.0000 0.74090  0.25910  0.87790  Biso   1.000  H
  H48      1.0000 0.48180  0.74090  0.37790  Biso   1.000  H
  C85      1.0000 0.91620  0.08380  0.90710  Biso   1.000  C
  C86      1.0000 0.83240  0.91620  0.40710  Biso   1.000  C
  C87      1.0000 0.91620  0.83240  0.90710  Biso   1.000  C
  C88      1.0000 0.08380  0.91620  0.40710  Biso   1.000  C
  C89      1.0000 0.16760  0.08380  0.90710  Biso   1.000  C
  C90      1.0000 0.08380  0.16760  0.40710  Biso   1.000  C
  H49      1.0000 0.93220  0.06780  0.89540  Biso   1.000  H
  H50      1.0000 0.86440  0.93220  0.39540  Biso   1.000  H
  H51      1.0000 0.93220  0.86440  0.89540  Biso   1.000  H
  H52      1.0000 0.06780  0.93220  0.39540  Biso   1.000  H
  H53      1.0000 0.13560  0.06780  0.89540  Biso   1.000  H
  H54      1.0000 0.06780  0.13560  0.39540  Biso   1.000  H
  C91      1.0000 0.91680  0.08320  0.93730  Biso   1.000  C
  C92      1.0000 0.83360  0.91680  0.43730  Biso   1.000  C
  C93      1.0000 0.91680  0.83360  0.93730  Biso   1.000  C
  C94      1.0000 0.08320  0.91680  0.43730  Biso   1.000  C
  C95      1.0000 0.16640  0.08320  0.93730  Biso   1.000  C
  C96      1.0000 0.08320  0.16640  0.43730  Biso   1.000  C
  C97      1.0000 0.71330  0.85660  0.24430  Biso   1.000  C
  C98      1.0000 0.85670  0.71330  0.74430  Biso   1.000  C
  C99      1.0000 0.14340  0.85670  0.24430  Biso   1.000  C
  C100     1.0000 0.28670  0.14340  0.74430  Biso   1.000  C
  C101     1.0000 0.14330  0.28670  0.24430  Biso   1.000  C
  C102     1.0000 0.85660  0.14330  0.74430  Biso   1.000  C
  C103     1.0000 0.75120  0.50250  0.92480  Biso   1.000  C
  C104     1.0000 0.24870  0.75120  0.42480  Biso   1.000  C
  C105     1.0000 0.49750  0.24870  0.92480  Biso   1.000  C
  C106     1.0000 0.24880  0.49750  0.42480  Biso   1.000  C
  C107     1.0000 0.75130  0.24880  0.92480  Biso   1.000  C
  C108     1.0000 0.50250  0.75130  0.42480  Biso   1.000  C
  C109     1.0000 0.72390  0.44770  0.93990  Biso   1.000  C
  C110     1.0000 0.27620  0.72390  0.43990  Biso   1.000  C
  C111     1.0000 0.55230  0.27620  0.93990  Biso   1.000  C
  C112     1.0000 0.27610  0.55230  0.43990  Biso   1.000  C
  C113     1.0000 0.72380  0.27610  0.93990  Biso   1.000  C
  C114     1.0000 0.44770  0.72380  0.43990  Biso   1.000  C
  C115     1.0000 0.80970  0.90480  0.10570  Biso   1.000  C
  C116     1.0000 0.90490  0.80970  0.60570  Biso   1.000  C
  C117     1.0000 0.09520  0.90490  0.10570  Biso   1.000  C
  C118     1.0000 0.19030  0.09520  0.60570  Biso   1.000  C
  C119     1.0000 0.09510  0.19030  0.10570  Biso   1.000  C
  C120     1.0000 0.90480  0.09510  0.60570  Biso   1.000  C
  C121     1.0000 0.92530  0.07470  0.18500  Biso   1.000  C
  C122     1.0000 0.85060  0.92530  0.68500  Biso   1.000  C
  C123     1.0000 0.92530  0.85060  0.18500  Biso   1.000  C
  C124     1.0000 0.07470  0.92530  0.68500  Biso   1.000  C
  C125     1.0000 0.14940  0.07470  0.18500  Biso   1.000  C
  C126     1.0000 0.07470  0.14940  0.68500  Biso   1.000  C
  C127     1.0000 0.90830  0.03120  0.20520  Biso   1.000  C
  C128     1.0000 0.87710  0.90830  0.70520  Biso   1.000  C
  C129     1.0000 0.96880  0.87710  0.20520  Biso   1.000  C
  C130     1.0000 0.09170  0.96880  0.70520  Biso   1.000  C
  C131     1.0000 0.12290  0.09170  0.20520  Biso   1.000  C
  C132     1.0000 0.03120  0.12290  0.70520  Biso   1.000  C
  C133     1.0000 0.03120  0.90830  0.70520  Biso   1.000  C
  C134     1.0000 0.12290  0.03120  0.20520  Biso   1.000  C
  C135     1.0000 0.09170  0.12290  0.70520  Biso   1.000  C
  C136     1.0000 0.96880  0.09170  0.20520  Biso   1.000  C
  C137     1.0000 0.87710  0.96880  0.70520  Biso   1.000  C
  C138     1.0000 0.90830  0.87710  0.20520  Biso   1.000  C
  C139     1.0000 0.84970  0.92490  0.07760  Biso   1.000  C
  C140     1.0000 0.92480  0.84970  0.57760  Biso   1.000  C
  C141     1.0000 0.07510  0.92480  0.07760  Biso   1.000  C
  C142     1.0000 0.15030  0.07510  0.57760  Biso   1.000  C
  C143     1.0000 0.07520  0.15030  0.07760  Biso   1.000  C
  C144     1.0000 0.92490  0.07520  0.57760  Biso   1.000  C
  C145     1.0000 0.60720  0.39280  0.03270  Biso   1.000  C
  C146     1.0000 0.21440  0.60720  0.53270  Biso   1.000  C
  C147     1.0000 0.60720  0.21440  0.03270  Biso   1.000  C
  C148     1.0000 0.39280  0.60720  0.53270  Biso   1.000  C
  C149     1.0000 0.78560  0.39280  0.03270  Biso   1.000  C
  C150     1.0000 0.39280  0.78560  0.53270  Biso   1.000  C
  C151     1.0000 0.73690  0.86850  0.29750  Biso   1.000  C
  C152     1.0000 0.86840  0.73690  0.79750  Biso   1.000  C
  C153     1.0000 0.13150  0.86840  0.29750  Biso   1.000  C
  C154     1.0000 0.26310  0.13150  0.79750  Biso   1.000  C
  C155     1.0000 0.13160  0.26310  0.29750  Biso   1.000  C
  C156     1.0000 0.86850  0.13160  0.79750  Biso   1.000  C
  H55      1.0000 0.77590  0.88790  0.29490  Biso   1.000  H
  H56      1.0000 0.88800  0.77590  0.79490  Biso   1.000  H
  H57      1.0000 0.11210  0.88800  0.29490  Biso   1.000  H
  H58      1.0000 0.22410  0.11210  0.79490  Biso   1.000  H
  H59      1.0000 0.11200  0.22410  0.29490  Biso   1.000  H
  H60      1.0000 0.88790  0.11200  0.79490  Biso   1.000  H
  C157     1.0000 0.89270  0.10730  0.94660  Biso   1.000  C
  C158     1.0000 0.78540  0.89270  0.44660  Biso   1.000  C
  C159     1.0000 0.89270  0.78540  0.94660  Biso   1.000  C
  C160     1.0000 0.10730  0.89270  0.44660  Biso   1.000  C
  C161     1.0000 0.21460  0.10730  0.94660  Biso   1.000  C
  C162     1.0000 0.10730  0.21460  0.44660  Biso   1.000  C
  H61      1.0000 0.88750  0.11250  0.96620  Biso   1.000  H
  H62      1.0000 0.77500  0.88750  0.46620  Biso   1.000  H
  H63      1.0000 0.88750  0.77500  0.96620  Biso   1.000  H
  H64      1.0000 0.11250  0.88750  0.46620  Biso   1.000  H
  H65      1.0000 0.22500  0.11250  0.96620  Biso   1.000  H
  H66      1.0000 0.11250  0.22500  0.46620  Biso   1.000  H
  C163     1.0000 0.94280  0.05720  0.95360  Biso   1.000  C
  C164     1.0000 0.88560  0.94280  0.45360  Biso   1.000  C
  C165     1.0000 0.94280  0.88560  0.95360  Biso   1.000  C
  C166     1.0000 0.05720  0.94280  0.45360  Biso   1.000  C
  C167     1.0000 0.11440  0.05720  0.95360  Biso   1.000  C
  C168     1.0000 0.05720  0.11440  0.45360  Biso   1.000  C
  C169     1.0000 0.87120  0.97640  0.06130  Biso   1.000  C
  C170     1.0000 0.89480  0.87120  0.56130  Biso   1.000  C
  C171     1.0000 0.02360  0.89480  0.06130  Biso   1.000  C
  C172     1.0000 0.12880  0.02360  0.56130  Biso   1.000  C
  C173     1.0000 0.10520  0.12880  0.06130  Biso   1.000  C
  C174     1.0000 0.97640  0.10520  0.56130  Biso   1.000  C
  C175     1.0000 0.97640  0.87120  0.56130  Biso   1.000  C
  C176     1.0000 0.10520  0.97640  0.06130  Biso   1.000  C
  C177     1.0000 0.12880  0.10520  0.56130  Biso   1.000  C
  C178     1.0000 0.02360  0.12880  0.06130  Biso   1.000  C
  C179     1.0000 0.89480  0.02360  0.56130  Biso   1.000  C
  C180     1.0000 0.87120  0.89480  0.06130  Biso   1.000  C
  H67      1.0000 0.86530  0.00560  0.06730  Biso   1.000  H
  H68      1.0000 0.85970  0.86530  0.56730  Biso   1.000  H
  H69      1.0000 0.99440  0.85970  0.06730  Biso   1.000  H
  H70      1.0000 0.13470  0.99440  0.56730  Biso   1.000  H
  H71      1.0000 0.14030  0.13470  0.06730  Biso   1.000  H
  H72      1.0000 0.00560  0.14030  0.56730  Biso   1.000  H
  H73      1.0000 0.00560  0.86530  0.56730  Biso   1.000  H
  H74      1.0000 0.14030  0.00560  0.06730  Biso   1.000  H
  H75      1.0000 0.13470  0.14030  0.56730  Biso   1.000  H
  H76      1.0000 0.99440  0.13470  0.06730  Biso   1.000  H
  H77      1.0000 0.85970  0.99440  0.56730  Biso   1.000  H
  H78      1.0000 0.86530  0.85970  0.06730  Biso   1.000  H
  C181     1.0000 0.78050  0.56110  0.93650  Biso   1.000  C
  C182     1.0000 0.21940  0.78050  0.43650  Biso   1.000  C
  C183     1.0000 0.43890  0.21940  0.93650  Biso   1.000  C
  C184     1.0000 0.21950  0.43890  0.43650  Biso   1.000  C
  C185     1.0000 0.78060  0.21950  0.93650  Biso   1.000  C
  C186     1.0000 0.56110  0.78060  0.43650  Biso   1.000  C
  H79      1.0000 0.78630  0.57250  0.95590  Biso   1.000  H
  H80      1.0000 0.21380  0.78630  0.45590  Biso   1.000  H
  H81      1.0000 0.42750  0.21380  0.95590  Biso   1.000  H
  H82      1.0000 0.21370  0.42750  0.45590  Biso   1.000  H
  H83      1.0000 0.78620  0.21370  0.95590  Biso   1.000  H
  H84      1.0000 0.57250  0.78620  0.45590  Biso   1.000  H
  C187     1.0000 0.88110  0.05710  0.16530  Biso   1.000  C
  C188     1.0000 0.82400  0.88110  0.66530  Biso   1.000  C
  C189     1.0000 0.94290  0.82400  0.16530  Biso   1.000  C
  C190     1.0000 0.11890  0.94290  0.66530  Biso   1.000  C
  C191     1.0000 0.17600  0.11890  0.16530  Biso   1.000  C
  C192     1.0000 0.05710  0.17600  0.66530  Biso   1.000  C
  C193     1.0000 0.05710  0.88110  0.66530  Biso   1.000  C
  C194     1.0000 0.17600  0.05710  0.16530  Biso   1.000  C
  C195     1.0000 0.11890  0.17600  0.66530  Biso   1.000  C
  C196     1.0000 0.94290  0.11890  0.16530  Biso   1.000  C
  C197     1.0000 0.82400  0.94290  0.66530  Biso   1.000  C
  C198     1.0000 0.88110  0.82400  0.16530  Biso   1.000  C
  C199     1.0000 0.86660  0.01920  0.18390  Biso   1.000  C
  C200     1.0000 0.84740  0.86660  0.68390  Biso   1.000  C
  C201     1.0000 0.98080  0.84740  0.18390  Biso   1.000  C
  C202     1.0000 0.13340  0.98080  0.68390  Biso   1.000  C
  C203     1.0000 0.15260  0.13340  0.18390  Biso   1.000  C
  C204     1.0000 0.01920  0.15260  0.68390  Biso   1.000  C
  C205     1.0000 0.01920  0.86660  0.68390  Biso   1.000  C
  C206     1.0000 0.15260  0.01920  0.18390  Biso   1.000  C
  C207     1.0000 0.13340  0.15260  0.68390  Biso   1.000  C
  C208     1.0000 0.98080  0.13340  0.18390  Biso   1.000  C
  C209     1.0000 0.84740  0.98080  0.68390  Biso   1.000  C
  C210     1.0000 0.86660  0.84740  0.18390  Biso   1.000  C
