data_image0
_cell_length_a       13.7282
_cell_length_b       13.7282
_cell_length_c       32.7155
_cell_angle_alpha    90
_cell_angle_beta     90
_cell_angle_gamma    120

_symmetry_space_group_name_H-M    "P 1"
_symmetry_int_tables_number       1

loop_
  _symmetry_equiv_pos_as_xyz
  'x, y, z'

loop_
  _atom_site_label
  _atom_site_occupancy
  _atom_site_fract_x
  _atom_site_fract_y
  _atom_site_fract_z
  _atom_site_thermal_displace_type
  _atom_site_B_iso_or_equiv
  _atom_site_type_symbol
  Cu1      1.0000 0.00000  0.00000  0.76972  Biso   1.000  Cu
  Cu2      1.0000 0.66667  0.33333  0.10305  Biso   1.000  Cu
  Cu3      1.0000 0.33333  0.66667  0.43639  Biso   1.000  Cu
  Cu4      1.0000 0.33330  0.66670  0.87620  Biso   1.000  Cu
  Cu5      1.0000 0.99997  0.00003  0.20953  Biso   1.000  Cu
  Cu6      1.0000 0.66663  0.33337  0.54287  Biso   1.000  Cu
  P1       1.0000 0.00000  0.00000  0.83813  Biso   1.000  P
  P2       1.0000 0.66667  0.33333  0.17146  Biso   1.000  P
  P3       1.0000 0.33333  0.66667  0.50480  Biso   1.000  P
  P4       1.0000 0.33330  0.66670  0.94399  Biso   1.000  P
  P5       1.0000 0.99997  0.00003  0.27732  Biso   1.000  P
  P6       1.0000 0.66663  0.33337  0.61066  Biso   1.000  P
  N1       1.0000 0.86720  0.85450  0.74233  Biso   1.000  N
  N2       1.0000 0.14550  0.01270  0.74233  Biso   1.000  N
  N3       1.0000 0.98730  0.13280  0.74233  Biso   1.000  N
  N4       1.0000 0.53387  0.18783  0.07566  Biso   1.000  N
  N5       1.0000 0.81217  0.34603  0.07566  Biso   1.000  N
  N6       1.0000 0.65397  0.46613  0.07566  Biso   1.000  N
  N7       1.0000 0.20053  0.52117  0.40900  Biso   1.000  N
  N8       1.0000 0.47883  0.67937  0.40900  Biso   1.000  N
  N9       1.0000 0.32063  0.79947  0.40900  Biso   1.000  N
  N10      1.0000 0.91770  0.73880  0.77558  Biso   1.000  N
  N11      1.0000 0.26120  0.17890  0.77558  Biso   1.000  N
  N12      1.0000 0.82110  0.08230  0.77558  Biso   1.000  N
  N13      1.0000 0.58437  0.07213  0.10891  Biso   1.000  N
  N14      1.0000 0.92787  0.51223  0.10891  Biso   1.000  N
  N15      1.0000 0.48777  0.41563  0.10891  Biso   1.000  N
  N16      1.0000 0.25103  0.40547  0.44225  Biso   1.000  N
  N17      1.0000 0.59453  0.84557  0.44225  Biso   1.000  N
  N18      1.0000 0.15443  0.74897  0.44225  Biso   1.000  N
  H1       1.0000 0.98520  0.79490  0.77640  Biso   1.000  H
  H2       1.0000 0.20510  0.19030  0.77640  Biso   1.000  H
  H3       1.0000 0.80970  0.01480  0.77640  Biso   1.000  H
  H4       1.0000 0.65187  0.12823  0.10973  Biso   1.000  H
  H5       1.0000 0.87177  0.52363  0.10973  Biso   1.000  H
  H6       1.0000 0.47637  0.34813  0.10973  Biso   1.000  H
  H7       1.0000 0.31853  0.46157  0.44307  Biso   1.000  H
  H8       1.0000 0.53843  0.85697  0.44307  Biso   1.000  H
  H9       1.0000 0.14303  0.68147  0.44307  Biso   1.000  H
  N19      1.0000 0.19150  0.65580  0.84843  Biso   1.000  N
  N20      1.0000 0.34420  0.53570  0.84843  Biso   1.000  N
  N21      1.0000 0.46430  0.80850  0.84843  Biso   1.000  N
  N22      1.0000 0.85817  0.98913  0.18176  Biso   1.000  N
  N23      1.0000 0.01087  0.86903  0.18176  Biso   1.000  N
  N24      1.0000 0.13097  0.14183  0.18176  Biso   1.000  N
  N25      1.0000 0.52483  0.32247  0.51510  Biso   1.000  N
  N26      1.0000 0.67753  0.20237  0.51510  Biso   1.000  N
  N27      1.0000 0.79763  0.47517  0.51510  Biso   1.000  N
  C1       1.0000 0.79370  0.86630  0.71890  Biso   1.000  C
  C2       1.0000 0.13370  0.92740  0.71890  Biso   1.000  C
  C3       1.0000 0.07260  0.20630  0.71890  Biso   1.000  C
  C4       1.0000 0.46037  0.19963  0.05223  Biso   1.000  C
  C5       1.0000 0.80037  0.26073  0.05223  Biso   1.000  C
  C6       1.0000 0.73927  0.53963  0.05223  Biso   1.000  C
  C7       1.0000 0.12703  0.53297  0.38557  Biso   1.000  C
  C8       1.0000 0.46703  0.59407  0.38557  Biso   1.000  C
  C9       1.0000 0.40593  0.87297  0.38557  Biso   1.000  C
  H10      1.0000 0.81380  0.93840  0.71020  Biso   1.000  H
  H11      1.0000 0.06160  0.87540  0.71020  Biso   1.000  H
  H12      1.0000 0.12460  0.18620  0.71020  Biso   1.000  H
  H13      1.0000 0.48047  0.27173  0.04353  Biso   1.000  H
  H14      1.0000 0.72827  0.20873  0.04353  Biso   1.000  H
  H15      1.0000 0.79127  0.51953  0.04353  Biso   1.000  H
  H16      1.0000 0.14713  0.60507  0.37687  Biso   1.000  H
  H17      1.0000 0.39493  0.54207  0.37687  Biso   1.000  H
  H18      1.0000 0.45793  0.85287  0.37687  Biso   1.000  H
  C10      1.0000 0.69160  0.78000  0.70698  Biso   1.000  C
  C11      1.0000 0.22000  0.91160  0.70698  Biso   1.000  C
  C12      1.0000 0.08840  0.30840  0.70698  Biso   1.000  C
  C13      1.0000 0.35827  0.11333  0.04031  Biso   1.000  C
  C14      1.0000 0.88667  0.24493  0.04031  Biso   1.000  C
  C15      1.0000 0.75507  0.64173  0.04031  Biso   1.000  C
  C16      1.0000 0.02493  0.44667  0.37365  Biso   1.000  C
  C17      1.0000 0.55333  0.57827  0.37365  Biso   1.000  C
  C18      1.0000 0.42173  0.97507  0.37365  Biso   1.000  C
  H19      1.0000 0.64430  0.79260  0.69020  Biso   1.000  H
  H20      1.0000 0.20740  0.85170  0.69020  Biso   1.000  H
  H21      1.0000 0.14830  0.35570  0.69020  Biso   1.000  H
  H22      1.0000 0.31097  0.12593  0.02353  Biso   1.000  H
  H23      1.0000 0.87407  0.18503  0.02353  Biso   1.000  H
  H24      1.0000 0.81497  0.68903  0.02353  Biso   1.000  H
  H25      1.0000 0.97763  0.45927  0.35687  Biso   1.000  H
  H26      1.0000 0.54073  0.51837  0.35687  Biso   1.000  H
  H27      1.0000 0.48163  0.02237  0.35687  Biso   1.000  H
  C19      1.0000 0.66100  0.67360  0.72062  Biso   1.000  C
  C20      1.0000 0.32640  0.98740  0.72062  Biso   1.000  C
  C21      1.0000 0.01260  0.33900  0.72062  Biso   1.000  C
  C22      1.0000 0.32767  0.00693  0.05395  Biso   1.000  C
  C23      1.0000 0.99307  0.32073  0.05395  Biso   1.000  C
  C24      1.0000 0.67927  0.67233  0.05395  Biso   1.000  C
  C25      1.0000 0.99433  0.34027  0.38729  Biso   1.000  C
  C26      1.0000 0.65973  0.65407  0.38729  Biso   1.000  C
  C27      1.0000 0.34593  0.00567  0.38729  Biso   1.000  C
  H28      1.0000 0.59100  0.61320  0.71380  Biso   1.000  H
  H29      1.0000 0.38680  0.97780  0.71380  Biso   1.000  H
  H30      1.0000 0.02220  0.40900  0.71380  Biso   1.000  H
  H31      1.0000 0.25767  0.94653  0.04713  Biso   1.000  H
  H32      1.0000 0.05347  0.31113  0.04713  Biso   1.000  H
  H33      1.0000 0.68887  0.74233  0.04713  Biso   1.000  H
  H34      1.0000 0.92433  0.27987  0.38047  Biso   1.000  H
  H35      1.0000 0.72013  0.64447  0.38047  Biso   1.000  H
  H36      1.0000 0.35553  0.07567  0.38047  Biso   1.000  H
  C28      1.0000 0.73380  0.65670  0.74434  Biso   1.000  C
  C29      1.0000 0.34330  0.07710  0.74434  Biso   1.000  C
  C30      1.0000 0.92290  0.26620  0.74434  Biso   1.000  C
  C31      1.0000 0.40047  0.99003  0.07767  Biso   1.000  C
  C32      1.0000 0.00997  0.41043  0.07767  Biso   1.000  C
  C33      1.0000 0.58957  0.59953  0.07767  Biso   1.000  C
  C34      1.0000 0.06713  0.32337  0.41101  Biso   1.000  C
  C35      1.0000 0.67663  0.74377  0.41101  Biso   1.000  C
  C36      1.0000 0.25623  0.93287  0.41101  Biso   1.000  C
  H37      1.0000 0.71390  0.58510  0.75360  Biso   1.000  H
  H38      1.0000 0.41490  0.12880  0.75360  Biso   1.000  H
  H39      1.0000 0.87120  0.28610  0.75360  Biso   1.000  H
  H40      1.0000 0.38057  0.91843  0.08693  Biso   1.000  H
  H41      1.0000 0.08157  0.46213  0.08693  Biso   1.000  H
  H42      1.0000 0.53787  0.61943  0.08693  Biso   1.000  H
  H43      1.0000 0.04723  0.25177  0.42027  Biso   1.000  H
  H44      1.0000 0.74823  0.79547  0.42027  Biso   1.000  H
  H45      1.0000 0.20453  0.95277  0.42027  Biso   1.000  H
  C37      1.0000 0.83830  0.74910  0.75431  Biso   1.000  C
  C38      1.0000 0.25090  0.08920  0.75431  Biso   1.000  C
  C39      1.0000 0.91080  0.16170  0.75431  Biso   1.000  C
  C40      1.0000 0.50497  0.08243  0.08764  Biso   1.000  C
  C41      1.0000 0.91757  0.42253  0.08764  Biso   1.000  C
  C42      1.0000 0.57747  0.49503  0.08764  Biso   1.000  C
  C43      1.0000 0.17163  0.41577  0.42098  Biso   1.000  C
  C44      1.0000 0.58423  0.75587  0.42098  Biso   1.000  C
  C45      1.0000 0.24413  0.82837  0.42098  Biso   1.000  C
  C46      1.0000 0.89190  0.63510  0.79704  Biso   1.000  C
  C47      1.0000 0.36490  0.25680  0.79704  Biso   1.000  C
  C48      1.0000 0.74320  0.10810  0.79704  Biso   1.000  C
  C49      1.0000 0.55857  0.96843  0.13037  Biso   1.000  C
  C50      1.0000 0.03157  0.59013  0.13037  Biso   1.000  C
  C51      1.0000 0.40987  0.44143  0.13037  Biso   1.000  C
  C52      1.0000 0.22523  0.30177  0.46371  Biso   1.000  C
  C53      1.0000 0.69823  0.92347  0.46371  Biso   1.000  C
  C54      1.0000 0.07653  0.77477  0.46371  Biso   1.000  C
  H46      1.0000 0.85730  0.57220  0.77820  Biso   1.000  H
  H47      1.0000 0.42780  0.28510  0.77820  Biso   1.000  H
  H48      1.0000 0.71490  0.14270  0.77820  Biso   1.000  H
  H49      1.0000 0.52397  0.90553  0.11153  Biso   1.000  H
  H50      1.0000 0.09447  0.61843  0.11153  Biso   1.000  H
  H51      1.0000 0.38157  0.47603  0.11153  Biso   1.000  H
  H52      1.0000 0.19063  0.23887  0.44487  Biso   1.000  H
  H53      1.0000 0.76113  0.95177  0.44487  Biso   1.000  H
  H54      1.0000 0.04823  0.80937  0.44487  Biso   1.000  H
  H55      1.0000 0.83870  0.62150  0.81880  Biso   1.000  H
  H56      1.0000 0.37850  0.21720  0.81880  Biso   1.000  H
  H57      1.0000 0.78280  0.16130  0.81880  Biso   1.000  H
  H58      1.0000 0.50537  0.95483  0.15213  Biso   1.000  H
  H59      1.0000 0.04517  0.55053  0.15213  Biso   1.000  H
  H60      1.0000 0.44947  0.49463  0.15213  Biso   1.000  H
  H61      1.0000 0.17203  0.28817  0.48547  Biso   1.000  H
  H62      1.0000 0.71183  0.88387  0.48547  Biso   1.000  H
  H63      1.0000 0.11613  0.82797  0.48547  Biso   1.000  H
  C55      1.0000 0.99730  0.64280  0.81480  Biso   1.000  C
  C56      1.0000 0.35720  0.35450  0.81480  Biso   1.000  C
  C57      1.0000 0.64550  0.00270  0.81480  Biso   1.000  C
  C58      1.0000 0.66397  0.97613  0.14813  Biso   1.000  C
  C59      1.0000 0.02387  0.68783  0.14813  Biso   1.000  C
  C60      1.0000 0.31217  0.33603  0.14813  Biso   1.000  C
  C61      1.0000 0.33063  0.30947  0.48147  Biso   1.000  C
  C62      1.0000 0.69053  0.02117  0.48147  Biso   1.000  C
  C63      1.0000 0.97883  0.66937  0.48147  Biso   1.000  C
  C64      1.0000 0.09810  0.68850  0.79361  Biso   1.000  C
  C65      1.0000 0.31150  0.40960  0.79361  Biso   1.000  C
  C66      1.0000 0.59040  0.90190  0.79361  Biso   1.000  C
  C67      1.0000 0.76477  0.02183  0.12694  Biso   1.000  C
  C68      1.0000 0.97817  0.74293  0.12694  Biso   1.000  C
  C69      1.0000 0.25707  0.23523  0.12694  Biso   1.000  C
  C70      1.0000 0.43143  0.35517  0.46028  Biso   1.000  C
  C71      1.0000 0.64483  0.07627  0.46028  Biso   1.000  C
  C72      1.0000 0.92373  0.56857  0.46028  Biso   1.000  C
  H64      1.0000 0.10320  0.71630  0.76730  Biso   1.000  H
  H65      1.0000 0.28370  0.38690  0.76730  Biso   1.000  H
  H66      1.0000 0.61310  0.89680  0.76730  Biso   1.000  H
  H67      1.0000 0.76987  0.04963  0.10063  Biso   1.000  H
  H68      1.0000 0.95037  0.72023  0.10063  Biso   1.000  H
  H69      1.0000 0.27977  0.23013  0.10063  Biso   1.000  H
  H70      1.0000 0.43653  0.38297  0.43397  Biso   1.000  H
  H71      1.0000 0.61703  0.05357  0.43397  Biso   1.000  H
  H72      1.0000 0.94643  0.56347  0.43397  Biso   1.000  H
  C73      1.0000 0.18940  0.69260  0.81134  Biso   1.000  C
  C74      1.0000 0.30740  0.49680  0.81134  Biso   1.000  C
  C75      1.0000 0.50320  0.81060  0.81134  Biso   1.000  C
  C76      1.0000 0.85607  0.02593  0.14467  Biso   1.000  C
  C77      1.0000 0.97407  0.83013  0.14467  Biso   1.000  C
  C78      1.0000 0.16987  0.14393  0.14467  Biso   1.000  C
  C79      1.0000 0.52273  0.35927  0.47801  Biso   1.000  C
  C80      1.0000 0.64073  0.16347  0.47801  Biso   1.000  C
  C81      1.0000 0.83653  0.47727  0.47801  Biso   1.000  C
  H73      1.0000 0.25560  0.72370  0.79620  Biso   1.000  H
  H74      1.0000 0.27630  0.53190  0.79620  Biso   1.000  H
  H75      1.0000 0.46810  0.74440  0.79620  Biso   1.000  H
  H76      1.0000 0.92227  0.05703  0.12953  Biso   1.000  H
  H77      1.0000 0.94297  0.86523  0.12953  Biso   1.000  H
  H78      1.0000 0.13477  0.07773  0.12953  Biso   1.000  H
  H79      1.0000 0.58893  0.39037  0.46287  Biso   1.000  H
  H80      1.0000 0.60963  0.19857  0.46287  Biso   1.000  H
  H81      1.0000 0.80143  0.41107  0.46287  Biso   1.000  H
  C82      1.0000 0.99730  0.60360  0.85287  Biso   1.000  C
  C83      1.0000 0.39640  0.39370  0.85287  Biso   1.000  C
  C84      1.0000 0.60630  0.00270  0.85287  Biso   1.000  C
  C85      1.0000 0.66397  0.93693  0.18620  Biso   1.000  C
  C86      1.0000 0.06307  0.72703  0.18620  Biso   1.000  C
  C87      1.0000 0.27297  0.33603  0.18620  Biso   1.000  C
  C88      1.0000 0.33063  0.27027  0.51954  Biso   1.000  C
  C89      1.0000 0.72973  0.06037  0.51954  Biso   1.000  C
  C90      1.0000 0.93963  0.66937  0.51954  Biso   1.000  C
  H82      1.0000 0.93180  0.57160  0.86840  Biso   1.000  H
  H83      1.0000 0.42840  0.36020  0.86840  Biso   1.000  H
  H84      1.0000 0.63980  0.06820  0.86840  Biso   1.000  H
  H85      1.0000 0.59847  0.90493  0.20173  Biso   1.000  H
  H86      1.0000 0.09507  0.69353  0.20173  Biso   1.000  H
  H87      1.0000 0.30647  0.40153  0.20173  Biso   1.000  H
  H88      1.0000 0.26513  0.23827  0.53507  Biso   1.000  H
  H89      1.0000 0.76173  0.02687  0.53507  Biso   1.000  H
  H90      1.0000 0.97313  0.73487  0.53507  Biso   1.000  H
  C91      1.0000 0.09340  0.61080  0.86865  Biso   1.000  C
  C92      1.0000 0.38920  0.48260  0.86865  Biso   1.000  C
  C93      1.0000 0.51740  0.90660  0.86865  Biso   1.000  C
  C94      1.0000 0.76007  0.94413  0.20198  Biso   1.000  C
  C95      1.0000 0.05587  0.81593  0.20198  Biso   1.000  C
  C96      1.0000 0.18407  0.23993  0.20198  Biso   1.000  C
  C97      1.0000 0.42673  0.27747  0.53532  Biso   1.000  C
  C98      1.0000 0.72253  0.14927  0.53532  Biso   1.000  C
  C99      1.0000 0.85073  0.57327  0.53532  Biso   1.000  C
  H91      1.0000 0.09030  0.58290  0.89480  Biso   1.000  H
  H92      1.0000 0.41710  0.50740  0.89480  Biso   1.000  H
  H93      1.0000 0.49260  0.90970  0.89480  Biso   1.000  H
  H94      1.0000 0.75697  0.91623  0.22813  Biso   1.000  H
  H95      1.0000 0.08377  0.84073  0.22813  Biso   1.000  H
  H96      1.0000 0.15927  0.24303  0.22813  Biso   1.000  H
  H97      1.0000 0.42363  0.24957  0.56147  Biso   1.000  H
  H98      1.0000 0.75043  0.17407  0.56147  Biso   1.000  H
  H99      1.0000 0.82593  0.57637  0.56147  Biso   1.000  H
  C100     1.0000 0.13040  0.02320  0.86136  Biso   1.000  C
  C101     1.0000 0.97680  0.10720  0.86136  Biso   1.000  C
  C102     1.0000 0.89280  0.86960  0.86136  Biso   1.000  C
  C103     1.0000 0.79707  0.35653  0.19469  Biso   1.000  C
  C104     1.0000 0.64347  0.44053  0.19469  Biso   1.000  C
  C105     1.0000 0.55947  0.20293  0.19469  Biso   1.000  C
  C106     1.0000 0.46373  0.68987  0.52803  Biso   1.000  C
  C107     1.0000 0.31013  0.77387  0.52803  Biso   1.000  C
  C108     1.0000 0.22613  0.53627  0.52803  Biso   1.000  C
  C109     1.0000 0.17970  0.09240  0.89532  Biso   1.000  C
  C110     1.0000 0.90760  0.08730  0.89532  Biso   1.000  C
  C111     1.0000 0.91270  0.82030  0.89532  Biso   1.000  C
  C112     1.0000 0.84637  0.42573  0.22865  Biso   1.000  C
  C113     1.0000 0.57427  0.42063  0.22865  Biso   1.000  C
  C114     1.0000 0.57937  0.15363  0.22865  Biso   1.000  C
  C115     1.0000 0.51303  0.75907  0.56199  Biso   1.000  C
  C116     1.0000 0.24093  0.75397  0.56199  Biso   1.000  C
  C117     1.0000 0.24603  0.48697  0.56199  Biso   1.000  C
  H100     1.0000 0.14510  0.12860  0.90730  Biso   1.000  H
  H101     1.0000 0.87140  0.01650  0.90730  Biso   1.000  H
  H102     1.0000 0.98350  0.85490  0.90730  Biso   1.000  H
  H103     1.0000 0.81177  0.46193  0.24063  Biso   1.000  H
  H104     1.0000 0.53807  0.34983  0.24063  Biso   1.000  H
  H105     1.0000 0.65017  0.18823  0.24063  Biso   1.000  H
  H106     1.0000 0.47843  0.79527  0.57397  Biso   1.000  H
  H107     1.0000 0.20473  0.68317  0.57397  Biso   1.000  H
  H108     1.0000 0.31683  0.52157  0.57397  Biso   1.000  H
  C118     1.0000 0.27920  0.10740  0.91113  Biso   1.000  C
  C119     1.0000 0.89260  0.17180  0.91113  Biso   1.000  C
  C120     1.0000 0.82820  0.72080  0.91113  Biso   1.000  C
  C121     1.0000 0.94587  0.44073  0.24446  Biso   1.000  C
  C122     1.0000 0.55927  0.50513  0.24446  Biso   1.000  C
  C123     1.0000 0.49487  0.05413  0.24446  Biso   1.000  C
  C124     1.0000 0.61253  0.77407  0.57780  Biso   1.000  C
  C125     1.0000 0.22593  0.83847  0.57780  Biso   1.000  C
  C126     1.0000 0.16153  0.38747  0.57780  Biso   1.000  C
  H109     1.0000 0.31160  0.15300  0.93390  Biso   1.000  H
  H110     1.0000 0.84700  0.15860  0.93390  Biso   1.000  H
  H111     1.0000 0.84140  0.68840  0.93390  Biso   1.000  H
  H112     1.0000 0.97827  0.48633  0.26723  Biso   1.000  H
  H113     1.0000 0.51367  0.49193  0.26723  Biso   1.000  H
  H114     1.0000 0.50807  0.02173  0.26723  Biso   1.000  H
  H115     1.0000 0.64493  0.81967  0.60057  Biso   1.000  H
  H116     1.0000 0.18033  0.82527  0.60057  Biso   1.000  H
  H117     1.0000 0.17473  0.35507  0.60057  Biso   1.000  H
  C127     1.0000 0.33110  0.05310  0.89264  Biso   1.000  C
  C128     1.0000 0.94690  0.27800  0.89264  Biso   1.000  C
  C129     1.0000 0.72200  0.66890  0.89264  Biso   1.000  C
  C130     1.0000 0.99777  0.38643  0.22597  Biso   1.000  C
  C131     1.0000 0.61357  0.61133  0.22597  Biso   1.000  C
  C132     1.0000 0.38867  0.00223  0.22597  Biso   1.000  C
  C133     1.0000 0.66443  0.71977  0.55931  Biso   1.000  C
  C134     1.0000 0.28023  0.94467  0.55931  Biso   1.000  C
  C135     1.0000 0.05533  0.33557  0.55931  Biso   1.000  C
  H118     1.0000 0.39840  0.06280  0.90310  Biso   1.000  H
  H119     1.0000 0.93720  0.33560  0.90310  Biso   1.000  H
  H120     1.0000 0.66440  0.60160  0.90310  Biso   1.000  H
  H121     1.0000 0.06507  0.39613  0.23643  Biso   1.000  H
  H122     1.0000 0.60387  0.66893  0.23643  Biso   1.000  H
  H123     1.0000 0.33107  0.93493  0.23643  Biso   1.000  H
  H124     1.0000 0.73173  0.72947  0.56977  Biso   1.000  H
  H125     1.0000 0.27053  0.00227  0.56977  Biso   1.000  H
  H126     1.0000 0.99773  0.26827  0.56977  Biso   1.000  H
  C136     1.0000 0.28380  0.98690  0.85974  Biso   1.000  C
  C137     1.0000 0.01310  0.29690  0.85974  Biso   1.000  C
  C138     1.0000 0.70310  0.71620  0.85974  Biso   1.000  C
  C139     1.0000 0.95047  0.32023  0.19307  Biso   1.000  C
  C140     1.0000 0.67977  0.63023  0.19307  Biso   1.000  C
  C141     1.0000 0.36977  0.04953  0.19307  Biso   1.000  C
  C142     1.0000 0.61713  0.65357  0.52641  Biso   1.000  C
  C143     1.0000 0.34643  0.96357  0.52641  Biso   1.000  C
  C144     1.0000 0.03643  0.38287  0.52641  Biso   1.000  C
  H127     1.0000 0.31970  0.95280  0.84700  Biso   1.000  H
  H128     1.0000 0.04720  0.36690  0.84700  Biso   1.000  H
  H129     1.0000 0.63310  0.68030  0.84700  Biso   1.000  H
  H130     1.0000 0.98637  0.28613  0.18033  Biso   1.000  H
  H131     1.0000 0.71387  0.70023  0.18033  Biso   1.000  H
  H132     1.0000 0.29977  0.01363  0.18033  Biso   1.000  H
  H133     1.0000 0.65303  0.61947  0.51367  Biso   1.000  H
  H134     1.0000 0.38053  0.03357  0.51367  Biso   1.000  H
  H135     1.0000 0.96643  0.34697  0.51367  Biso   1.000  H
  C145     1.0000 0.18300  0.96970  0.84502  Biso   1.000  C
  C146     1.0000 0.03030  0.21330  0.84502  Biso   1.000  C
  C147     1.0000 0.78670  0.81700  0.84502  Biso   1.000  C
  C148     1.0000 0.84967  0.30303  0.17835  Biso   1.000  C
  C149     1.0000 0.69697  0.54663  0.17835  Biso   1.000  C
  C150     1.0000 0.45337  0.15033  0.17835  Biso   1.000  C
  C151     1.0000 0.51633  0.63637  0.51169  Biso   1.000  C
  C152     1.0000 0.36363  0.87997  0.51169  Biso   1.000  C
  C153     1.0000 0.12003  0.48367  0.51169  Biso   1.000  C
  H136     1.0000 0.14930  0.92030  0.82330  Biso   1.000  H
  H137     1.0000 0.07970  0.22900  0.82330  Biso   1.000  H
  H138     1.0000 0.77100  0.85070  0.82330  Biso   1.000  H
  H139     1.0000 0.81597  0.25363  0.15663  Biso   1.000  H
  H140     1.0000 0.74637  0.56233  0.15663  Biso   1.000  H
  H141     1.0000 0.43767  0.18403  0.15663  Biso   1.000  H
  H142     1.0000 0.48263  0.58697  0.48997  Biso   1.000  H
  H143     1.0000 0.41303  0.89567  0.48997  Biso   1.000  H
  H144     1.0000 0.10433  0.51737  0.48997  Biso   1.000  H
  C154     1.0000 0.30100  0.53310  0.96709  Biso   1.000  C
  C155     1.0000 0.46690  0.76790  0.96709  Biso   1.000  C
  C156     1.0000 0.23210  0.69900  0.96709  Biso   1.000  C
  C157     1.0000 0.96767  0.86643  0.30042  Biso   1.000  C
  C158     1.0000 0.13357  0.10123  0.30042  Biso   1.000  C
  C159     1.0000 0.89877  0.03233  0.30042  Biso   1.000  C
  C160     1.0000 0.63433  0.19977  0.63376  Biso   1.000  C
  C161     1.0000 0.80023  0.43457  0.63376  Biso   1.000  C
  C162     1.0000 0.56543  0.36567  0.63376  Biso   1.000  C
  C163     1.0000 0.35940  0.52220  0.99837  Biso   1.000  C
  C164     1.0000 0.47780  0.83720  0.99837  Biso   1.000  C
  C165     1.0000 0.16280  0.64060  0.99837  Biso   1.000  C
  C166     1.0000 0.02607  0.85553  0.33170  Biso   1.000  C
  C167     1.0000 0.14447  0.17053  0.33170  Biso   1.000  C
  C168     1.0000 0.82947  0.97393  0.33170  Biso   1.000  C
  C169     1.0000 0.69273  0.18887  0.66504  Biso   1.000  C
  C170     1.0000 0.81113  0.50387  0.66504  Biso   1.000  C
  C171     1.0000 0.49613  0.30727  0.66504  Biso   1.000  C
  H145     1.0000 0.42010  0.58580  0.00960  Biso   1.000  H
  H146     1.0000 0.41420  0.83430  0.00960  Biso   1.000  H
  H147     1.0000 0.16570  0.57990  0.00960  Biso   1.000  H
  H148     1.0000 0.08677  0.91913  0.34293  Biso   1.000  H
  H149     1.0000 0.08087  0.16763  0.34293  Biso   1.000  H
  H150     1.0000 0.83237  0.91323  0.34293  Biso   1.000  H
  H151     1.0000 0.75343  0.25247  0.67627  Biso   1.000  H
  H152     1.0000 0.74753  0.50097  0.67627  Biso   1.000  H
  H153     1.0000 0.49903  0.24657  0.67627  Biso   1.000  H
  C172     1.0000 0.32960  0.41650  0.01383  Biso   1.000  C
  C173     1.0000 0.58350  0.91310  0.01383  Biso   1.000  C
  C174     1.0000 0.08690  0.67040  0.01383  Biso   1.000  C
  C175     1.0000 0.99627  0.74983  0.34716  Biso   1.000  C
  C176     1.0000 0.25017  0.24643  0.34716  Biso   1.000  C
  C177     1.0000 0.75357  0.00373  0.34716  Biso   1.000  C
  C178     1.0000 0.66293  0.08317  0.68050  Biso   1.000  C
  C179     1.0000 0.91683  0.57977  0.68050  Biso   1.000  C
  C180     1.0000 0.42023  0.33707  0.68050  Biso   1.000  C
  H154     1.0000 0.36980  0.41020  0.03550  Biso   1.000  H
  H155     1.0000 0.58980  0.95960  0.03550  Biso   1.000  H
  H156     1.0000 0.04040  0.63020  0.03550  Biso   1.000  H
  H157     1.0000 0.03647  0.74353  0.36883  Biso   1.000  H
  H158     1.0000 0.25647  0.29293  0.36883  Biso   1.000  H
  H159     1.0000 0.70707  0.96353  0.36883  Biso   1.000  H
  H160     1.0000 0.70313  0.07687  0.70217  Biso   1.000  H
  H161     1.0000 0.92313  0.62627  0.70217  Biso   1.000  H
  H162     1.0000 0.37373  0.29687  0.70217  Biso   1.000  H
  C181     1.0000 0.24310  0.32350  0.99769  Biso   1.000  C
  C182     1.0000 0.67650  0.91960  0.99769  Biso   1.000  C
  C183     1.0000 0.08040  0.75690  0.99769  Biso   1.000  C
  C184     1.0000 0.90977  0.65683  0.33102  Biso   1.000  C
  C185     1.0000 0.34317  0.25293  0.33102  Biso   1.000  C
  C186     1.0000 0.74707  0.09023  0.33102  Biso   1.000  C
  C187     1.0000 0.57643  0.99017  0.66436  Biso   1.000  C
  C188     1.0000 0.00983  0.58627  0.66436  Biso   1.000  C
  C189     1.0000 0.41373  0.42357  0.66436  Biso   1.000  C
  H163     1.0000 0.22480  0.25300  0.00780  Biso   1.000  H
  H164     1.0000 0.74700  0.97180  0.00780  Biso   1.000  H
  H165     1.0000 0.02820  0.77520  0.00780  Biso   1.000  H
  H166     1.0000 0.89147  0.58633  0.34113  Biso   1.000  H
  H167     1.0000 0.41367  0.30513  0.34113  Biso   1.000  H
  H168     1.0000 0.69487  0.10853  0.34113  Biso   1.000  H
  H169     1.0000 0.55813  0.91967  0.67447  Biso   1.000  H
  H170     1.0000 0.08033  0.63847  0.67447  Biso   1.000  H
  H171     1.0000 0.36153  0.44187  0.67447  Biso   1.000  H
  C190     1.0000 0.18280  0.33230  0.96686  Biso   1.000  C
  C191     1.0000 0.66770  0.85050  0.96686  Biso   1.000  C
  C192     1.0000 0.14950  0.81720  0.96686  Biso   1.000  C
  C193     1.0000 0.84947  0.66563  0.30019  Biso   1.000  C
  C194     1.0000 0.33437  0.18383  0.30019  Biso   1.000  C
  C195     1.0000 0.81617  0.15053  0.30019  Biso   1.000  C
  C196     1.0000 0.51613  0.99897  0.63353  Biso   1.000  C
  C197     1.0000 0.00103  0.51717  0.63353  Biso   1.000  C
  C198     1.0000 0.48283  0.48387  0.63353  Biso   1.000  C
  H172     1.0000 0.12160  0.26810  0.95610  Biso   1.000  H
  H173     1.0000 0.73190  0.85350  0.95610  Biso   1.000  H
  H174     1.0000 0.14650  0.87840  0.95610  Biso   1.000  H
  H175     1.0000 0.78827  0.60143  0.28943  Biso   1.000  H
  H176     1.0000 0.39857  0.18683  0.28943  Biso   1.000  H
  H177     1.0000 0.81317  0.21173  0.28943  Biso   1.000  H
  H178     1.0000 0.45493  0.93477  0.62277  Biso   1.000  H
  H179     1.0000 0.06523  0.52017  0.62277  Biso   1.000  H
  H180     1.0000 0.47983  0.54507  0.62277  Biso   1.000  H
  C199     1.0000 0.21210  0.43590  0.95145  Biso   1.000  C
  C200     1.0000 0.56410  0.77620  0.95145  Biso   1.000  C
  C201     1.0000 0.22380  0.78790  0.95145  Biso   1.000  C
  C202     1.0000 0.87877  0.76923  0.28478  Biso   1.000  C
  C203     1.0000 0.23077  0.10953  0.28478  Biso   1.000  C
  C204     1.0000 0.89047  0.12123  0.28478  Biso   1.000  C
  C205     1.0000 0.54543  0.10257  0.61812  Biso   1.000  C
  C206     1.0000 0.89743  0.44287  0.61812  Biso   1.000  C
  C207     1.0000 0.55713  0.45457  0.61812  Biso   1.000  C
  H181     1.0000 0.17090  0.44110  0.92980  Biso   1.000  H
  H182     1.0000 0.55890  0.72980  0.92980  Biso   1.000  H
  H183     1.0000 0.27020  0.82910  0.92980  Biso   1.000  H
  H184     1.0000 0.83757  0.77443  0.26313  Biso   1.000  H
  H185     1.0000 0.22557  0.06313  0.26313  Biso   1.000  H
  H186     1.0000 0.93687  0.16243  0.26313  Biso   1.000  H
  H187     1.0000 0.50423  0.10777  0.59647  Biso   1.000  H
  H188     1.0000 0.89223  0.39647  0.59647  Biso   1.000  H
  H189     1.0000 0.60353  0.49577  0.59647  Biso   1.000  H
  Cl1      1.0000 0.33330  0.66670  0.13751  Biso   1.000  Cl
  Cl2      1.0000 0.99997  0.00003  0.47084  Biso   1.000  Cl
  Cl3      1.0000 0.66663  0.33337  0.80418  Biso   1.000  Cl
  Cl4      1.0000 0.00000  0.00000  0.02503  Biso   1.000  Cl
  Cl5      1.0000 0.66667  0.33333  0.35836  Biso   1.000  Cl
  Cl6      1.0000 0.33333  0.66667  0.69170  Biso   1.000  Cl
  O1       1.0000 0.30380  0.74290  0.15230  Biso   1.000  O
  O2       1.0000 0.25710  0.56090  0.15230  Biso   1.000  O
  O3       1.0000 0.43910  0.69620  0.15230  Biso   1.000  O
  O4       1.0000 0.97047  0.07623  0.48563  Biso   1.000  O
  O5       1.0000 0.92377  0.89423  0.48563  Biso   1.000  O
  O6       1.0000 0.10577  0.02953  0.48563  Biso   1.000  O
  O7       1.0000 0.63713  0.40957  0.81897  Biso   1.000  O
  O8       1.0000 0.59043  0.22757  0.81897  Biso   1.000  O
  O9       1.0000 0.77243  0.36287  0.81897  Biso   1.000  O
  O10      1.0000 0.29760  0.74350  0.13140  Biso   1.000  O
  O11      1.0000 0.25650  0.55410  0.13140  Biso   1.000  O
  O12      1.0000 0.44590  0.70240  0.13140  Biso   1.000  O
  O13      1.0000 0.96427  0.07683  0.46473  Biso   1.000  O
  O14      1.0000 0.92317  0.88743  0.46473  Biso   1.000  O
  O15      1.0000 0.11257  0.03573  0.46473  Biso   1.000  O
  O16      1.0000 0.63093  0.41017  0.79807  Biso   1.000  O
  O17      1.0000 0.58983  0.22077  0.79807  Biso   1.000  O
  O18      1.0000 0.77923  0.36907  0.79807  Biso   1.000  O
  O19      1.0000 0.31380  0.73880  0.17190  Biso   1.000  O
  O20      1.0000 0.26120  0.57500  0.17190  Biso   1.000  O
  O21      1.0000 0.42500  0.68620  0.17190  Biso   1.000  O
  O22      1.0000 0.98047  0.07213  0.50523  Biso   1.000  O
  O23      1.0000 0.92787  0.90833  0.50523  Biso   1.000  O
  O24      1.0000 0.09167  0.01953  0.50523  Biso   1.000  O
  O25      1.0000 0.64713  0.40547  0.83857  Biso   1.000  O
  O26      1.0000 0.59453  0.24167  0.83857  Biso   1.000  O
  O27      1.0000 0.75833  0.35287  0.83857  Biso   1.000  O
  O28      1.0000 0.30540  0.70550  0.09860  Biso   1.000  O
  O29      1.0000 0.29450  0.59990  0.09860  Biso   1.000  O
  O30      1.0000 0.40010  0.69460  0.09860  Biso   1.000  O
  O31      1.0000 0.97207  0.03883  0.43193  Biso   1.000  O
  O32      1.0000 0.96117  0.93323  0.43193  Biso   1.000  O
  O33      1.0000 0.06677  0.02793  0.43193  Biso   1.000  O
  O34      1.0000 0.63873  0.37217  0.76527  Biso   1.000  O
  O35      1.0000 0.62783  0.26657  0.76527  Biso   1.000  O
  O36      1.0000 0.73343  0.36127  0.76527  Biso   1.000  O
  O37      1.0000 0.97330  0.08020  0.00910  Biso   1.000  O
  O38      1.0000 0.91980  0.89310  0.00910  Biso   1.000  O
  O39      1.0000 0.10690  0.02670  0.00910  Biso   1.000  O
  O40      1.0000 0.63997  0.41353  0.34243  Biso   1.000  O
  O41      1.0000 0.58647  0.22643  0.34243  Biso   1.000  O
  O42      1.0000 0.77357  0.36003  0.34243  Biso   1.000  O
  O43      1.0000 0.30663  0.74687  0.67577  Biso   1.000  O
  O44      1.0000 0.25313  0.55977  0.67577  Biso   1.000  O
  O45      1.0000 0.44023  0.69337  0.67577  Biso   1.000  O
  O46      1.0000 0.96920  0.07030  0.04250  Biso   1.000  O
  O47      1.0000 0.92970  0.89890  0.04250  Biso   1.000  O
  O48      1.0000 0.10110  0.03080  0.04250  Biso   1.000  O
  O49      1.0000 0.63587  0.40363  0.37583  Biso   1.000  O
  O50      1.0000 0.59637  0.23223  0.37583  Biso   1.000  O
  O51      1.0000 0.76777  0.36413  0.37583  Biso   1.000  O
  O52      1.0000 0.30253  0.73697  0.70917  Biso   1.000  O
  O53      1.0000 0.26303  0.56557  0.70917  Biso   1.000  O
  O54      1.0000 0.43443  0.69747  0.70917  Biso   1.000  O
  O55      1.0000 0.04410  0.08340  0.05780  Biso   1.000  O
  O56      1.0000 0.91660  0.96070  0.05780  Biso   1.000  O
  O57      1.0000 0.03930  0.95590  0.05780  Biso   1.000  O
  O58      1.0000 0.71077  0.41673  0.39113  Biso   1.000  O
  O59      1.0000 0.58327  0.29403  0.39113  Biso   1.000  O
  O60      1.0000 0.70597  0.28923  0.39113  Biso   1.000  O
  O61      1.0000 0.37743  0.75007  0.72447  Biso   1.000  O
  O62      1.0000 0.24993  0.62737  0.72447  Biso   1.000  O
  O63      1.0000 0.37263  0.62257  0.72447  Biso   1.000  O
  O64      1.0000 0.96720  0.05600  0.99260  Biso   1.000  O
  O65      1.0000 0.94400  0.91120  0.99260  Biso   1.000  O
  O66      1.0000 0.08880  0.03280  0.99260  Biso   1.000  O
  O67      1.0000 0.63387  0.38933  0.32593  Biso   1.000  O
  O68      1.0000 0.61067  0.24453  0.32593  Biso   1.000  O
  O69      1.0000 0.75547  0.36613  0.32593  Biso   1.000  O
  O70      1.0000 0.30053  0.72267  0.65927  Biso   1.000  O
  O71      1.0000 0.27733  0.57787  0.65927  Biso   1.000  O
  O72      1.0000 0.42213  0.69947  0.65927  Biso   1.000  O
  O73      1.0000 0.90520  0.97600  0.57840  Biso   1.000  O
  O74      1.0000 0.02400  0.92920  0.57840  Biso   1.000  O
  O75      1.0000 0.07080  0.09480  0.57840  Biso   1.000  O
  O76      1.0000 0.57187  0.30933  0.91173  Biso   1.000  O
  O77      1.0000 0.69067  0.26253  0.91173  Biso   1.000  O
  O78      1.0000 0.73747  0.42813  0.91173  Biso   1.000  O
  O79      1.0000 0.23853  0.64267  0.24507  Biso   1.000  O
  O80      1.0000 0.35733  0.59587  0.24507  Biso   1.000  O
  O81      1.0000 0.40413  0.76147  0.24507  Biso   1.000  O
  C208     1.0000 0.88210  0.06920  0.62790  Biso   1.000  C
  C209     1.0000 0.93080  0.81290  0.62790  Biso   1.000  C
  C210     1.0000 0.18710  0.11790  0.62790  Biso   1.000  C
  C211     1.0000 0.54877  0.40253  0.96123  Biso   1.000  C
  C212     1.0000 0.59747  0.14623  0.96123  Biso   1.000  C
  C213     1.0000 0.85377  0.45123  0.96123  Biso   1.000  C
  C214     1.0000 0.21543  0.73587  0.29457  Biso   1.000  C
  C215     1.0000 0.26413  0.47957  0.29457  Biso   1.000  C
  C216     1.0000 0.52043  0.78457  0.29457  Biso   1.000  C
  C217     1.0000 0.93500  0.00700  0.61350  Biso   1.000  C
  C218     1.0000 0.99300  0.92800  0.61350  Biso   1.000  C
  C219     1.0000 0.07200  0.06500  0.61350  Biso   1.000  C
  C220     1.0000 0.60167  0.34033  0.94683  Biso   1.000  C
  C221     1.0000 0.65967  0.26133  0.94683  Biso   1.000  C
  C222     1.0000 0.73867  0.39833  0.94683  Biso   1.000  C
  C223     1.0000 0.26833  0.67367  0.28017  Biso   1.000  C
  C224     1.0000 0.32633  0.59467  0.28017  Biso   1.000  C
  C225     1.0000 0.40533  0.73167  0.28017  Biso   1.000  C
