data_image0
_cell_length_a       13.738
_cell_length_b       13.738
_cell_length_c       32.7248
_cell_angle_alpha    90
_cell_angle_beta     90
_cell_angle_gamma    120

_symmetry_space_group_name_H-M    "P 1"
_symmetry_int_tables_number       1

loop_
  _symmetry_equiv_pos_as_xyz
  'x, y, z'

loop_
  _atom_site_label
  _atom_site_occupancy
  _atom_site_fract_x
  _atom_site_fract_y
  _atom_site_fract_z
  _atom_site_thermal_displace_type
  _atom_site_B_iso_or_equiv
  _atom_site_type_symbol
  Cu1      1.0000 0.33330  0.66670  0.17188  Biso   1.000  Cu
  Cu2      1.0000 0.99997  0.00003  0.50521  Biso   1.000  Cu
  Cu3      1.0000 0.66663  0.33337  0.83855  Biso   1.000  Cu
  Cu4      1.0000 0.00000  0.00000  0.06529  Biso   1.000  Cu
  Cu5      1.0000 0.66667  0.33333  0.39862  Biso   1.000  Cu
  Cu6      1.0000 0.33333  0.66667  0.73196  Biso   1.000  Cu
  P1       1.0000 0.33330  0.66670  0.23970  Biso   1.000  P
  P2       1.0000 0.99997  0.00003  0.57303  Biso   1.000  P
  P3       1.0000 0.66663  0.33337  0.90637  Biso   1.000  P
  P4       1.0000 0.00000  0.00000  0.13408  Biso   1.000  P
  P5       1.0000 0.66667  0.33333  0.46741  Biso   1.000  P
  P6       1.0000 0.33333  0.66667  0.80075  Biso   1.000  P
  Cl1      1.0000 0.00000  0.00000  0.32136  Biso   1.000  Cl
  Cl2      1.0000 0.66667  0.33333  0.65469  Biso   1.000  Cl
  Cl3      1.0000 0.33333  0.66667  0.98803  Biso   1.000  Cl
  Cl4      1.0000 0.66670  0.33330  0.10005  Biso   1.000  Cl
  Cl5      1.0000 0.33337  0.66663  0.43338  Biso   1.000  Cl
  Cl6      1.0000 0.00003  0.99997  0.76672  Biso   1.000  Cl
  O1       1.0000 0.77230  0.36110  0.11140  Biso   1.000  O
  O2       1.0000 0.63890  0.41120  0.11140  Biso   1.000  O
  O3       1.0000 0.58880  0.22770  0.11140  Biso   1.000  O
  O4       1.0000 0.43897  0.69443  0.44473  Biso   1.000  O
  O5       1.0000 0.30557  0.74453  0.44473  Biso   1.000  O
  O6       1.0000 0.25547  0.56103  0.44473  Biso   1.000  O
  O7       1.0000 0.10563  0.02777  0.77807  Biso   1.000  O
  O8       1.0000 0.97223  0.07787  0.77807  Biso   1.000  O
  O9       1.0000 0.92213  0.89437  0.77807  Biso   1.000  O
  O10      1.0000 0.97250  0.06950  0.29980  Biso   1.000  O
  O11      1.0000 0.93050  0.90300  0.29980  Biso   1.000  O
  O12      1.0000 0.09700  0.02750  0.29980  Biso   1.000  O
  O13      1.0000 0.63917  0.40283  0.63313  Biso   1.000  O
  O14      1.0000 0.59717  0.23633  0.63313  Biso   1.000  O
  O15      1.0000 0.76367  0.36083  0.63313  Biso   1.000  O
  O16      1.0000 0.30583  0.73617  0.96647  Biso   1.000  O
  O17      1.0000 0.26383  0.56967  0.96647  Biso   1.000  O
  O18      1.0000 0.43033  0.69417  0.96647  Biso   1.000  O
  N1       1.0000 0.19150  0.65500  0.14447  Biso   1.000  N
  N2       1.0000 0.34500  0.53650  0.14447  Biso   1.000  N
  N3       1.0000 0.46350  0.80850  0.14447  Biso   1.000  N
  N4       1.0000 0.85817  0.98833  0.47780  Biso   1.000  N
  N5       1.0000 0.01167  0.86983  0.47780  Biso   1.000  N
  N6       1.0000 0.13017  0.14183  0.47780  Biso   1.000  N
  N7       1.0000 0.52483  0.32167  0.81114  Biso   1.000  N
  N8       1.0000 0.67833  0.20317  0.81114  Biso   1.000  N
  N9       1.0000 0.79683  0.47517  0.81114  Biso   1.000  N
  N10      1.0000 0.91750  0.73790  0.07118  Biso   1.000  N
  N11      1.0000 0.26210  0.17960  0.07118  Biso   1.000  N
  N12      1.0000 0.82040  0.08250  0.07118  Biso   1.000  N
  N13      1.0000 0.58417  0.07123  0.40451  Biso   1.000  N
  N14      1.0000 0.92877  0.51293  0.40451  Biso   1.000  N
  N15      1.0000 0.48707  0.41583  0.40451  Biso   1.000  N
  N16      1.0000 0.25083  0.40457  0.73785  Biso   1.000  N
  N17      1.0000 0.59543  0.84627  0.73785  Biso   1.000  N
  N18      1.0000 0.15373  0.74917  0.73785  Biso   1.000  N
  H1       1.0000 0.98520  0.79370  0.07180  Biso   1.000  H
  H2       1.0000 0.20630  0.19150  0.07180  Biso   1.000  H
  H3       1.0000 0.80850  0.01480  0.07180  Biso   1.000  H
  H4       1.0000 0.65187  0.12703  0.40513  Biso   1.000  H
  H5       1.0000 0.87297  0.52483  0.40513  Biso   1.000  H
  H6       1.0000 0.47517  0.34813  0.40513  Biso   1.000  H
  H7       1.0000 0.31853  0.46037  0.73847  Biso   1.000  H
  H8       1.0000 0.53963  0.85817  0.73847  Biso   1.000  H
  H9       1.0000 0.14183  0.68147  0.73847  Biso   1.000  H
  N19      1.0000 0.86780  0.85420  0.03841  Biso   1.000  N
  N20      1.0000 0.14580  0.01360  0.03841  Biso   1.000  N
  N21      1.0000 0.98640  0.13220  0.03841  Biso   1.000  N
  N22      1.0000 0.53447  0.18753  0.37174  Biso   1.000  N
  N23      1.0000 0.81247  0.34693  0.37174  Biso   1.000  N
  N24      1.0000 0.65307  0.46553  0.37174  Biso   1.000  N
  N25      1.0000 0.20113  0.52087  0.70508  Biso   1.000  N
  N26      1.0000 0.47913  0.68027  0.70508  Biso   1.000  N
  N27      1.0000 0.31973  0.79887  0.70508  Biso   1.000  N
  C1       1.0000 0.79280  0.86550  0.01450  Biso   1.000  C
  C2       1.0000 0.13450  0.92730  0.01450  Biso   1.000  C
  C3       1.0000 0.07270  0.20720  0.01450  Biso   1.000  C
  C4       1.0000 0.45947  0.19883  0.34783  Biso   1.000  C
  C5       1.0000 0.80117  0.26063  0.34783  Biso   1.000  C
  C6       1.0000 0.73937  0.54053  0.34783  Biso   1.000  C
  C7       1.0000 0.12613  0.53217  0.68117  Biso   1.000  C
  C8       1.0000 0.46783  0.59397  0.68117  Biso   1.000  C
  C9       1.0000 0.40603  0.87387  0.68117  Biso   1.000  C
  H10      1.0000 0.81250  0.93760  0.00590  Biso   1.000  H
  H11      1.0000 0.06240  0.87490  0.00590  Biso   1.000  H
  H12      1.0000 0.12510  0.18750  0.00590  Biso   1.000  H
  H13      1.0000 0.47917  0.27093  0.33923  Biso   1.000  H
  H14      1.0000 0.72907  0.20823  0.33923  Biso   1.000  H
  H15      1.0000 0.79177  0.52083  0.33923  Biso   1.000  H
  H16      1.0000 0.14583  0.60427  0.67257  Biso   1.000  H
  H17      1.0000 0.39573  0.54157  0.67257  Biso   1.000  H
  H18      1.0000 0.45843  0.85417  0.67257  Biso   1.000  H
  C10      1.0000 0.69180  0.77970  0.00210  Biso   1.000  C
  C11      1.0000 0.22030  0.91210  0.00210  Biso   1.000  C
  C12      1.0000 0.08790  0.30820  0.00210  Biso   1.000  C
  C13      1.0000 0.35847  0.11303  0.33543  Biso   1.000  C
  C14      1.0000 0.88697  0.24543  0.33543  Biso   1.000  C
  C15      1.0000 0.75457  0.64153  0.33543  Biso   1.000  C
  C16      1.0000 0.02513  0.44637  0.66877  Biso   1.000  C
  C17      1.0000 0.55363  0.57877  0.66877  Biso   1.000  C
  C18      1.0000 0.42123  0.97487  0.66877  Biso   1.000  C
  H19      1.0000 0.64490  0.79170  0.98500  Biso   1.000  H
  H20      1.0000 0.20830  0.85320  0.98500  Biso   1.000  H
  H21      1.0000 0.14680  0.35510  0.98500  Biso   1.000  H
  H22      1.0000 0.31157  0.12503  0.31833  Biso   1.000  H
  H23      1.0000 0.87497  0.18653  0.31833  Biso   1.000  H
  H24      1.0000 0.81347  0.68843  0.31833  Biso   1.000  H
  H25      1.0000 0.97823  0.45837  0.65167  Biso   1.000  H
  H26      1.0000 0.54163  0.51987  0.65167  Biso   1.000  H
  H27      1.0000 0.48013  0.02177  0.65167  Biso   1.000  H
  C19      1.0000 0.66220  0.67470  0.01620  Biso   1.000  C
  C20      1.0000 0.32530  0.98750  0.01620  Biso   1.000  C
  C21      1.0000 0.01250  0.33780  0.01620  Biso   1.000  C
  C22      1.0000 0.32887  0.00803  0.34953  Biso   1.000  C
  C23      1.0000 0.99197  0.32083  0.34953  Biso   1.000  C
  C24      1.0000 0.67917  0.67113  0.34953  Biso   1.000  C
  C25      1.0000 0.99553  0.34137  0.68287  Biso   1.000  C
  C26      1.0000 0.65863  0.65417  0.68287  Biso   1.000  C
  C27      1.0000 0.34583  0.00447  0.68287  Biso   1.000  C
  H28      1.0000 0.59210  0.61420  0.00960  Biso   1.000  H
  H29      1.0000 0.38580  0.97790  0.00960  Biso   1.000  H
  H30      1.0000 0.02210  0.40790  0.00960  Biso   1.000  H
  H31      1.0000 0.25877  0.94753  0.34293  Biso   1.000  H
  H32      1.0000 0.05247  0.31123  0.34293  Biso   1.000  H
  H33      1.0000 0.68877  0.74123  0.34293  Biso   1.000  H
  H34      1.0000 0.92543  0.28087  0.67627  Biso   1.000  H
  H35      1.0000 0.71913  0.64457  0.67627  Biso   1.000  H
  H36      1.0000 0.35543  0.07457  0.67627  Biso   1.000  H
  C28      1.0000 0.73450  0.65750  0.03990  Biso   1.000  C
  C29      1.0000 0.34250  0.07700  0.03990  Biso   1.000  C
  C30      1.0000 0.92300  0.26550  0.03990  Biso   1.000  C
  C31      1.0000 0.40117  0.99083  0.37323  Biso   1.000  C
  C32      1.0000 0.00917  0.41033  0.37323  Biso   1.000  C
  C33      1.0000 0.58967  0.59883  0.37323  Biso   1.000  C
  C34      1.0000 0.06783  0.32417  0.70657  Biso   1.000  C
  C35      1.0000 0.67583  0.74367  0.70657  Biso   1.000  C
  C36      1.0000 0.25633  0.93217  0.70657  Biso   1.000  C
  H37      1.0000 0.71440  0.58580  0.04910  Biso   1.000  H
  H38      1.0000 0.41420  0.12860  0.04910  Biso   1.000  H
  H39      1.0000 0.87140  0.28560  0.04910  Biso   1.000  H
  H40      1.0000 0.38107  0.91913  0.38243  Biso   1.000  H
  H41      1.0000 0.08087  0.46193  0.38243  Biso   1.000  H
  H42      1.0000 0.53807  0.61893  0.38243  Biso   1.000  H
  H43      1.0000 0.04773  0.25247  0.71577  Biso   1.000  H
  H44      1.0000 0.74753  0.79527  0.71577  Biso   1.000  H
  H45      1.0000 0.20473  0.95227  0.71577  Biso   1.000  H
  C37      1.0000 0.83860  0.74910  0.04998  Biso   1.000  C
  C38      1.0000 0.25090  0.08950  0.04998  Biso   1.000  C
  C39      1.0000 0.91050  0.16140  0.04998  Biso   1.000  C
  C40      1.0000 0.50527  0.08243  0.38331  Biso   1.000  C
  C41      1.0000 0.91757  0.42283  0.38331  Biso   1.000  C
  C42      1.0000 0.57717  0.49473  0.38331  Biso   1.000  C
  C43      1.0000 0.17193  0.41577  0.71665  Biso   1.000  C
  C44      1.0000 0.58423  0.75617  0.71665  Biso   1.000  C
  C45      1.0000 0.24383  0.82807  0.71665  Biso   1.000  C
  C46      1.0000 0.89220  0.63530  0.09290  Biso   1.000  C
  C47      1.0000 0.36470  0.25690  0.09290  Biso   1.000  C
  C48      1.0000 0.74310  0.10780  0.09290  Biso   1.000  C
  C49      1.0000 0.55887  0.96863  0.42623  Biso   1.000  C
  C50      1.0000 0.03137  0.59023  0.42623  Biso   1.000  C
  C51      1.0000 0.40977  0.44113  0.42623  Biso   1.000  C
  C52      1.0000 0.22553  0.30197  0.75957  Biso   1.000  C
  C53      1.0000 0.69803  0.92357  0.75957  Biso   1.000  C
  C54      1.0000 0.07643  0.77447  0.75957  Biso   1.000  C
  H46      1.0000 0.85740  0.57200  0.07420  Biso   1.000  H
  H47      1.0000 0.42800  0.28540  0.07420  Biso   1.000  H
  H48      1.0000 0.71460  0.14260  0.07420  Biso   1.000  H
  H49      1.0000 0.52407  0.90533  0.40753  Biso   1.000  H
  H50      1.0000 0.09467  0.61873  0.40753  Biso   1.000  H
  H51      1.0000 0.38127  0.47593  0.40753  Biso   1.000  H
  H52      1.0000 0.19073  0.23867  0.74087  Biso   1.000  H
  H53      1.0000 0.76133  0.95207  0.74087  Biso   1.000  H
  H54      1.0000 0.04793  0.80927  0.74087  Biso   1.000  H
  H55      1.0000 0.83940  0.62220  0.11470  Biso   1.000  H
  H56      1.0000 0.37780  0.21720  0.11470  Biso   1.000  H
  H57      1.0000 0.78280  0.16060  0.11470  Biso   1.000  H
  H58      1.0000 0.50607  0.95553  0.44803  Biso   1.000  H
  H59      1.0000 0.04447  0.55053  0.44803  Biso   1.000  H
  H60      1.0000 0.44947  0.49393  0.44803  Biso   1.000  H
  H61      1.0000 0.17273  0.28887  0.78137  Biso   1.000  H
  H62      1.0000 0.71113  0.88387  0.78137  Biso   1.000  H
  H63      1.0000 0.11613  0.82727  0.78137  Biso   1.000  H
  C55      1.0000 0.99780  0.64360  0.11060  Biso   1.000  C
  C56      1.0000 0.35640  0.35420  0.11060  Biso   1.000  C
  C57      1.0000 0.64580  0.00220  0.11060  Biso   1.000  C
  C58      1.0000 0.66447  0.97693  0.44393  Biso   1.000  C
  C59      1.0000 0.02307  0.68753  0.44393  Biso   1.000  C
  C60      1.0000 0.31247  0.33553  0.44393  Biso   1.000  C
  C61      1.0000 0.33113  0.31027  0.77727  Biso   1.000  C
  C62      1.0000 0.68973  0.02087  0.77727  Biso   1.000  C
  C63      1.0000 0.97913  0.66887  0.77727  Biso   1.000  C
  C64      1.0000 0.09790  0.68680  0.08920  Biso   1.000  C
  C65      1.0000 0.31320  0.41110  0.08920  Biso   1.000  C
  C66      1.0000 0.58890  0.90210  0.08920  Biso   1.000  C
  C67      1.0000 0.76457  0.02013  0.42253  Biso   1.000  C
  C68      1.0000 0.97987  0.74443  0.42253  Biso   1.000  C
  C69      1.0000 0.25557  0.23543  0.42253  Biso   1.000  C
  C70      1.0000 0.43123  0.35347  0.75587  Biso   1.000  C
  C71      1.0000 0.64653  0.07777  0.75587  Biso   1.000  C
  C72      1.0000 0.92223  0.56877  0.75587  Biso   1.000  C
  H64      1.0000 0.10210  0.71200  0.06250  Biso   1.000  H
  H65      1.0000 0.28800  0.39010  0.06250  Biso   1.000  H
  H66      1.0000 0.60990  0.89790  0.06250  Biso   1.000  H
  H67      1.0000 0.76877  0.04533  0.39583  Biso   1.000  H
  H68      1.0000 0.95467  0.72343  0.39583  Biso   1.000  H
  H69      1.0000 0.27657  0.23123  0.39583  Biso   1.000  H
  H70      1.0000 0.43543  0.37867  0.72917  Biso   1.000  H
  H71      1.0000 0.62133  0.05677  0.72917  Biso   1.000  H
  H72      1.0000 0.94323  0.56457  0.72917  Biso   1.000  H
  C73      1.0000 0.18990  0.69260  0.10690  Biso   1.000  C
  C74      1.0000 0.30740  0.49730  0.10690  Biso   1.000  C
  C75      1.0000 0.50270  0.81010  0.10690  Biso   1.000  C
  C76      1.0000 0.85657  0.02593  0.44023  Biso   1.000  C
  C77      1.0000 0.97407  0.83063  0.44023  Biso   1.000  C
  C78      1.0000 0.16937  0.14343  0.44023  Biso   1.000  C
  C79      1.0000 0.52323  0.35927  0.77357  Biso   1.000  C
  C80      1.0000 0.64073  0.16397  0.77357  Biso   1.000  C
  C81      1.0000 0.83603  0.47677  0.77357  Biso   1.000  C
  H73      1.0000 0.25640  0.72500  0.09200  Biso   1.000  H
  H74      1.0000 0.27500  0.53140  0.09200  Biso   1.000  H
  H75      1.0000 0.46860  0.74360  0.09200  Biso   1.000  H
  H76      1.0000 0.92307  0.05833  0.42533  Biso   1.000  H
  H77      1.0000 0.94167  0.86473  0.42533  Biso   1.000  H
  H78      1.0000 0.13527  0.07693  0.42533  Biso   1.000  H
  H79      1.0000 0.58973  0.39167  0.75867  Biso   1.000  H
  H80      1.0000 0.60833  0.19807  0.75867  Biso   1.000  H
  H81      1.0000 0.80193  0.41027  0.75867  Biso   1.000  H
  C82      1.0000 0.09400  0.61100  0.16490  Biso   1.000  C
  C83      1.0000 0.38900  0.48300  0.16490  Biso   1.000  C
  C84      1.0000 0.51700  0.90600  0.16490  Biso   1.000  C
  C85      1.0000 0.76067  0.94433  0.49823  Biso   1.000  C
  C86      1.0000 0.05567  0.81633  0.49823  Biso   1.000  C
  C87      1.0000 0.18367  0.23933  0.49823  Biso   1.000  C
  C88      1.0000 0.42733  0.27767  0.83157  Biso   1.000  C
  C89      1.0000 0.72233  0.14967  0.83157  Biso   1.000  C
  C90      1.0000 0.85033  0.57267  0.83157  Biso   1.000  C
  H82      1.0000 0.09170  0.58480  0.19130  Biso   1.000  H
  H83      1.0000 0.41520  0.50690  0.19130  Biso   1.000  H
  H84      1.0000 0.49310  0.90830  0.19130  Biso   1.000  H
  H85      1.0000 0.75837  0.91813  0.52463  Biso   1.000  H
  H86      1.0000 0.08187  0.84023  0.52463  Biso   1.000  H
  H87      1.0000 0.15977  0.24163  0.52463  Biso   1.000  H
  H88      1.0000 0.42503  0.25147  0.85797  Biso   1.000  H
  H89      1.0000 0.74853  0.17357  0.85797  Biso   1.000  H
  H90      1.0000 0.82643  0.57497  0.85797  Biso   1.000  H
  C91      1.0000 0.99590  0.60210  0.14900  Biso   1.000  C
  C92      1.0000 0.39790  0.39380  0.14900  Biso   1.000  C
  C93      1.0000 0.60620  0.00410  0.14900  Biso   1.000  C
  C94      1.0000 0.66257  0.93543  0.48233  Biso   1.000  C
  C95      1.0000 0.06457  0.72713  0.48233  Biso   1.000  C
  C96      1.0000 0.27287  0.33743  0.48233  Biso   1.000  C
  C97      1.0000 0.32923  0.26877  0.81567  Biso   1.000  C
  C98      1.0000 0.73123  0.06047  0.81567  Biso   1.000  C
  C99      1.0000 0.93953  0.67077  0.81567  Biso   1.000  C
  H91      1.0000 0.92980  0.56850  0.16420  Biso   1.000  H
  H92      1.0000 0.43150  0.36130  0.16420  Biso   1.000  H
  H93      1.0000 0.63870  0.07020  0.16420  Biso   1.000  H
  H94      1.0000 0.59647  0.90183  0.49753  Biso   1.000  H
  H95      1.0000 0.09817  0.69463  0.49753  Biso   1.000  H
  H96      1.0000 0.30537  0.40353  0.49753  Biso   1.000  H
  H97      1.0000 0.26313  0.23517  0.83087  Biso   1.000  H
  H98      1.0000 0.76483  0.02797  0.83087  Biso   1.000  H
  H99      1.0000 0.97203  0.73687  0.83087  Biso   1.000  H
  C100     1.0000 0.13140  0.02260  0.15712  Biso   1.000  C
  C101     1.0000 0.97740  0.10880  0.15712  Biso   1.000  C
  C102     1.0000 0.89120  0.86860  0.15712  Biso   1.000  C
  C103     1.0000 0.79807  0.35593  0.49045  Biso   1.000  C
  C104     1.0000 0.64407  0.44213  0.49045  Biso   1.000  C
  C105     1.0000 0.55787  0.20193  0.49045  Biso   1.000  C
  C106     1.0000 0.46473  0.68927  0.82379  Biso   1.000  C
  C107     1.0000 0.31073  0.77547  0.82379  Biso   1.000  C
  C108     1.0000 0.22453  0.53527  0.82379  Biso   1.000  C
  C109     1.0000 0.18070  0.09350  0.19110  Biso   1.000  C
  C110     1.0000 0.90650  0.08720  0.19110  Biso   1.000  C
  C111     1.0000 0.91280  0.81930  0.19110  Biso   1.000  C
  C112     1.0000 0.84737  0.42683  0.52443  Biso   1.000  C
  C113     1.0000 0.57317  0.42053  0.52443  Biso   1.000  C
  C114     1.0000 0.57947  0.15263  0.52443  Biso   1.000  C
  C115     1.0000 0.51403  0.76017  0.85777  Biso   1.000  C
  C116     1.0000 0.23983  0.75387  0.85777  Biso   1.000  C
  C117     1.0000 0.24613  0.48597  0.85777  Biso   1.000  C
  H100     1.0000 0.14670  0.13090  0.20270  Biso   1.000  H
  H101     1.0000 0.86910  0.01580  0.20270  Biso   1.000  H
  H102     1.0000 0.98420  0.85330  0.20270  Biso   1.000  H
  H103     1.0000 0.81337  0.46423  0.53603  Biso   1.000  H
  H104     1.0000 0.53577  0.34913  0.53603  Biso   1.000  H
  H105     1.0000 0.65087  0.18663  0.53603  Biso   1.000  H
  H106     1.0000 0.48003  0.79757  0.86937  Biso   1.000  H
  H107     1.0000 0.20243  0.68247  0.86937  Biso   1.000  H
  H108     1.0000 0.31753  0.51997  0.86937  Biso   1.000  H
  C118     1.0000 0.28000  0.10730  0.20700  Biso   1.000  C
  C119     1.0000 0.89270  0.17270  0.20700  Biso   1.000  C
  C120     1.0000 0.82730  0.72000  0.20700  Biso   1.000  C
  C121     1.0000 0.94667  0.44063  0.54033  Biso   1.000  C
  C122     1.0000 0.55937  0.50603  0.54033  Biso   1.000  C
  C123     1.0000 0.49397  0.05333  0.54033  Biso   1.000  C
  C124     1.0000 0.61333  0.77397  0.87367  Biso   1.000  C
  C125     1.0000 0.22603  0.83937  0.87367  Biso   1.000  C
  C126     1.0000 0.16063  0.38667  0.87367  Biso   1.000  C
  H109     1.0000 0.31160  0.15190  0.23000  Biso   1.000  H
  H110     1.0000 0.84810  0.15970  0.23000  Biso   1.000  H
  H111     1.0000 0.84030  0.68840  0.23000  Biso   1.000  H
  H112     1.0000 0.97827  0.48523  0.56333  Biso   1.000  H
  H113     1.0000 0.51477  0.49303  0.56333  Biso   1.000  H
  H114     1.0000 0.50697  0.02173  0.56333  Biso   1.000  H
  H115     1.0000 0.64493  0.81857  0.89667  Biso   1.000  H
  H116     1.0000 0.18143  0.82637  0.89667  Biso   1.000  H
  H117     1.0000 0.17363  0.35507  0.89667  Biso   1.000  H
  C127     1.0000 0.33180  0.05510  0.18890  Biso   1.000  C
  C128     1.0000 0.94490  0.27670  0.18890  Biso   1.000  C
  C129     1.0000 0.72330  0.66820  0.18890  Biso   1.000  C
  C130     1.0000 0.99847  0.38843  0.52223  Biso   1.000  C
  C131     1.0000 0.61157  0.61003  0.52223  Biso   1.000  C
  C132     1.0000 0.38997  0.00153  0.52223  Biso   1.000  C
  C133     1.0000 0.66513  0.72177  0.85557  Biso   1.000  C
  C134     1.0000 0.27823  0.94337  0.85557  Biso   1.000  C
  C135     1.0000 0.05663  0.33487  0.85557  Biso   1.000  C
  H118     1.0000 0.39900  0.06530  0.19960  Biso   1.000  H
  H119     1.0000 0.93470  0.33370  0.19960  Biso   1.000  H
  H120     1.0000 0.66630  0.60100  0.19960  Biso   1.000  H
  H121     1.0000 0.06567  0.39863  0.53293  Biso   1.000  H
  H122     1.0000 0.60137  0.66703  0.53293  Biso   1.000  H
  H123     1.0000 0.33297  0.93433  0.53293  Biso   1.000  H
  H124     1.0000 0.73233  0.73197  0.86627  Biso   1.000  H
  H125     1.0000 0.26803  0.00037  0.86627  Biso   1.000  H
  H126     1.0000 0.99963  0.26767  0.86627  Biso   1.000  H
  C136     1.0000 0.28540  0.98810  0.15530  Biso   1.000  C
  C137     1.0000 0.01190  0.29730  0.15530  Biso   1.000  C
  C138     1.0000 0.70270  0.71460  0.15530  Biso   1.000  C
  C139     1.0000 0.95207  0.32143  0.48863  Biso   1.000  C
  C140     1.0000 0.67857  0.63063  0.48863  Biso   1.000  C
  C141     1.0000 0.36937  0.04793  0.48863  Biso   1.000  C
  C142     1.0000 0.61873  0.65477  0.82197  Biso   1.000  C
  C143     1.0000 0.34523  0.96397  0.82197  Biso   1.000  C
  C144     1.0000 0.03603  0.38127  0.82197  Biso   1.000  C
  H127     1.0000 0.32240  0.95510  0.14260  Biso   1.000  H
  H128     1.0000 0.04490  0.36730  0.14260  Biso   1.000  H
  H129     1.0000 0.63270  0.67760  0.14260  Biso   1.000  H
  H130     1.0000 0.98907  0.28843  0.47593  Biso   1.000  H
  H131     1.0000 0.71157  0.70063  0.47593  Biso   1.000  H
  H132     1.0000 0.29937  0.01093  0.47593  Biso   1.000  H
  H133     1.0000 0.65573  0.62177  0.80927  Biso   1.000  H
  H134     1.0000 0.37823  0.03397  0.80927  Biso   1.000  H
  H135     1.0000 0.96603  0.34427  0.80927  Biso   1.000  H
  C145     1.0000 0.18330  0.96950  0.14010  Biso   1.000  C
  C146     1.0000 0.03050  0.21380  0.14010  Biso   1.000  C
  C147     1.0000 0.78620  0.81670  0.14010  Biso   1.000  C
  C148     1.0000 0.84997  0.30283  0.47343  Biso   1.000  C
  C149     1.0000 0.69717  0.54713  0.47343  Biso   1.000  C
  C150     1.0000 0.45287  0.15003  0.47343  Biso   1.000  C
  C151     1.0000 0.51663  0.63617  0.80677  Biso   1.000  C
  C152     1.0000 0.36383  0.88047  0.80677  Biso   1.000  C
  C153     1.0000 0.11953  0.48337  0.80677  Biso   1.000  C
  H136     1.0000 0.14980  0.92060  0.11830  Biso   1.000  H
  H137     1.0000 0.07940  0.22920  0.11830  Biso   1.000  H
  H138     1.0000 0.77080  0.85020  0.11830  Biso   1.000  H
  H139     1.0000 0.81647  0.25393  0.45163  Biso   1.000  H
  H140     1.0000 0.74607  0.56253  0.45163  Biso   1.000  H
  H141     1.0000 0.43747  0.18353  0.45163  Biso   1.000  H
  H142     1.0000 0.48313  0.58727  0.78497  Biso   1.000  H
  H143     1.0000 0.41273  0.89587  0.78497  Biso   1.000  H
  H144     1.0000 0.10413  0.51687  0.78497  Biso   1.000  H
  C154     1.0000 0.30110  0.53260  0.26329  Biso   1.000  C
  C155     1.0000 0.46740  0.76850  0.26329  Biso   1.000  C
  C156     1.0000 0.23150  0.69890  0.26329  Biso   1.000  C
  C157     1.0000 0.96777  0.86593  0.59662  Biso   1.000  C
  C158     1.0000 0.13407  0.10183  0.59662  Biso   1.000  C
  C159     1.0000 0.89817  0.03223  0.59662  Biso   1.000  C
  C160     1.0000 0.63443  0.19927  0.92996  Biso   1.000  C
  C161     1.0000 0.80073  0.43517  0.92996  Biso   1.000  C
  C162     1.0000 0.56483  0.36557  0.92996  Biso   1.000  C
  C163     1.0000 0.21210  0.43600  0.24740  Biso   1.000  C
  C164     1.0000 0.56400  0.77610  0.24740  Biso   1.000  C
  C165     1.0000 0.22390  0.78790  0.24740  Biso   1.000  C
  C166     1.0000 0.87877  0.76933  0.58073  Biso   1.000  C
  C167     1.0000 0.23067  0.10943  0.58073  Biso   1.000  C
  C168     1.0000 0.89057  0.12123  0.58073  Biso   1.000  C
  C169     1.0000 0.54543  0.10267  0.91407  Biso   1.000  C
  C170     1.0000 0.89733  0.44277  0.91407  Biso   1.000  C
  C171     1.0000 0.55723  0.45457  0.91407  Biso   1.000  C
  H145     1.0000 0.17130  0.44120  0.22570  Biso   1.000  H
  H146     1.0000 0.55880  0.73010  0.22570  Biso   1.000  H
  H147     1.0000 0.26990  0.82870  0.22570  Biso   1.000  H
  H148     1.0000 0.83797  0.77453  0.55903  Biso   1.000  H
  H149     1.0000 0.22547  0.06343  0.55903  Biso   1.000  H
  H150     1.0000 0.93657  0.16203  0.55903  Biso   1.000  H
  H151     1.0000 0.50463  0.10787  0.89237  Biso   1.000  H
  H152     1.0000 0.89213  0.39677  0.89237  Biso   1.000  H
  H153     1.0000 0.60323  0.49537  0.89237  Biso   1.000  H
  C172     1.0000 0.18290  0.33210  0.26310  Biso   1.000  C
  C173     1.0000 0.66790  0.85080  0.26310  Biso   1.000  C
  C174     1.0000 0.14920  0.81710  0.26310  Biso   1.000  C
  C175     1.0000 0.84957  0.66543  0.59643  Biso   1.000  C
  C176     1.0000 0.33457  0.18413  0.59643  Biso   1.000  C
  C177     1.0000 0.81587  0.15043  0.59643  Biso   1.000  C
  C178     1.0000 0.51623  0.99877  0.92977  Biso   1.000  C
  C179     1.0000 0.00123  0.51747  0.92977  Biso   1.000  C
  C180     1.0000 0.48253  0.48377  0.92977  Biso   1.000  C
  H154     1.0000 0.12140  0.26820  0.25240  Biso   1.000  H
  H155     1.0000 0.73180  0.85320  0.25240  Biso   1.000  H
  H156     1.0000 0.14680  0.87860  0.25240  Biso   1.000  H
  H157     1.0000 0.78807  0.60153  0.58573  Biso   1.000  H
  H158     1.0000 0.39847  0.18653  0.58573  Biso   1.000  H
  H159     1.0000 0.81347  0.21193  0.58573  Biso   1.000  H
  H160     1.0000 0.45473  0.93487  0.91907  Biso   1.000  H
  H161     1.0000 0.06513  0.51987  0.91907  Biso   1.000  H
  H162     1.0000 0.48013  0.54527  0.91907  Biso   1.000  H
  C181     1.0000 0.24110  0.32190  0.29330  Biso   1.000  C
  C182     1.0000 0.67810  0.91920  0.29330  Biso   1.000  C
  C183     1.0000 0.08080  0.75890  0.29330  Biso   1.000  C
  C184     1.0000 0.90777  0.65523  0.62663  Biso   1.000  C
  C185     1.0000 0.34477  0.25253  0.62663  Biso   1.000  C
  C186     1.0000 0.74747  0.09223  0.62663  Biso   1.000  C
  C187     1.0000 0.57443  0.98857  0.95997  Biso   1.000  C
  C188     1.0000 0.01143  0.58587  0.95997  Biso   1.000  C
  C189     1.0000 0.41413  0.42557  0.95997  Biso   1.000  C
  H163     1.0000 0.22270  0.25110  0.30310  Biso   1.000  H
  H164     1.0000 0.74890  0.97160  0.30310  Biso   1.000  H
  H165     1.0000 0.02840  0.77730  0.30310  Biso   1.000  H
  H166     1.0000 0.88937  0.58443  0.63643  Biso   1.000  H
  H167     1.0000 0.41557  0.30493  0.63643  Biso   1.000  H
  H168     1.0000 0.69507  0.11063  0.63643  Biso   1.000  H
  H169     1.0000 0.55603  0.91777  0.96977  Biso   1.000  H
  H170     1.0000 0.08223  0.63827  0.96977  Biso   1.000  H
  H171     1.0000 0.36173  0.44397  0.96977  Biso   1.000  H
  C190     1.0000 0.32940  0.41690  0.31030  Biso   1.000  C
  C191     1.0000 0.58310  0.91250  0.31030  Biso   1.000  C
  C192     1.0000 0.08750  0.67060  0.31030  Biso   1.000  C
  C193     1.0000 0.99607  0.75023  0.64363  Biso   1.000  C
  C194     1.0000 0.24977  0.24583  0.64363  Biso   1.000  C
  C195     1.0000 0.75417  0.00393  0.64363  Biso   1.000  C
  C196     1.0000 0.66273  0.08357  0.97697  Biso   1.000  C
  C197     1.0000 0.91643  0.57917  0.97697  Biso   1.000  C
  C198     1.0000 0.42083  0.33727  0.97697  Biso   1.000  C
  H172     1.0000 0.36930  0.41020  0.33200  Biso   1.000  H
  H173     1.0000 0.58980  0.95910  0.33200  Biso   1.000  H
  H174     1.0000 0.04090  0.63070  0.33200  Biso   1.000  H
  H175     1.0000 0.03597  0.74353  0.66533  Biso   1.000  H
  H176     1.0000 0.25647  0.29243  0.66533  Biso   1.000  H
  H177     1.0000 0.70757  0.96403  0.66533  Biso   1.000  H
  H178     1.0000 0.70263  0.07687  0.99867  Biso   1.000  H
  H179     1.0000 0.92313  0.62577  0.99867  Biso   1.000  H
  H180     1.0000 0.37423  0.29737  0.99867  Biso   1.000  H
  C199     1.0000 0.35910  0.52220  0.29520  Biso   1.000  C
  C200     1.0000 0.47780  0.83690  0.29520  Biso   1.000  C
  C201     1.0000 0.16310  0.64090  0.29520  Biso   1.000  C
  C202     1.0000 0.02577  0.85553  0.62853  Biso   1.000  C
  C203     1.0000 0.14447  0.17023  0.62853  Biso   1.000  C
  C204     1.0000 0.82977  0.97423  0.62853  Biso   1.000  C
  C205     1.0000 0.69243  0.18887  0.96187  Biso   1.000  C
  C206     1.0000 0.81113  0.50357  0.96187  Biso   1.000  C
  C207     1.0000 0.49643  0.30757  0.96187  Biso   1.000  C
  H181     1.0000 0.41880  0.58600  0.30680  Biso   1.000  H
  H182     1.0000 0.41400  0.83280  0.30680  Biso   1.000  H
  H183     1.0000 0.16720  0.58120  0.30680  Biso   1.000  H
  H184     1.0000 0.08547  0.91933  0.64013  Biso   1.000  H
  H185     1.0000 0.08067  0.16613  0.64013  Biso   1.000  H
  H186     1.0000 0.83387  0.91453  0.64013  Biso   1.000  H
  H187     1.0000 0.75213  0.25267  0.97347  Biso   1.000  H
  H188     1.0000 0.74733  0.49947  0.97347  Biso   1.000  H
  H189     1.0000 0.50053  0.24787  0.97347  Biso   1.000  H
  O19      1.0000 0.63800  0.37100  0.06440  Biso   1.000  O
  O20      1.0000 0.62900  0.26700  0.06440  Biso   1.000  O
  O21      1.0000 0.73300  0.36200  0.06440  Biso   1.000  O
  O22      1.0000 0.30467  0.70433  0.39773  Biso   1.000  O
  O23      1.0000 0.29567  0.60033  0.39773  Biso   1.000  O
  O24      1.0000 0.39967  0.69533  0.39773  Biso   1.000  O
  O25      1.0000 0.97133  0.03767  0.73107  Biso   1.000  O
  O26      1.0000 0.96233  0.93367  0.73107  Biso   1.000  O
  O27      1.0000 0.06633  0.02867  0.73107  Biso   1.000  O
  O28      1.0000 0.07800  0.99800  0.34290  Biso   1.000  O
  O29      1.0000 0.00200  0.08000  0.34290  Biso   1.000  O
  O30      1.0000 0.92000  0.92200  0.34290  Biso   1.000  O
  O31      1.0000 0.74467  0.33133  0.67623  Biso   1.000  O
  O32      1.0000 0.66867  0.41333  0.67623  Biso   1.000  O
  O33      1.0000 0.58667  0.25533  0.67623  Biso   1.000  O
  O34      1.0000 0.41133  0.66467  0.00957  Biso   1.000  O
  O35      1.0000 0.33533  0.74667  0.00957  Biso   1.000  O
  O36      1.0000 0.25333  0.58867  0.00957  Biso   1.000  O
