data_image0
_cell_length_a       19.295
_cell_length_b       20.238
_cell_length_c       21.0495
_cell_angle_alpha    90.57
_cell_angle_beta     100.738
_cell_angle_gamma    116.476

_symmetry_space_group_name_H-M    "P 1"
_symmetry_int_tables_number       1

loop_
  _symmetry_equiv_pos_as_xyz
  'x, y, z'

loop_
  _atom_site_label
  _atom_site_occupancy
  _atom_site_fract_x
  _atom_site_fract_y
  _atom_site_fract_z
  _atom_site_thermal_displace_type
  _atom_site_B_iso_or_equiv
  _atom_site_type_symbol
  Cu1      1.0000 0.73199  0.82064  0.11746  Biso   1.000  Cu
  Cu2      1.0000 0.26801  0.17936  0.88254  Biso   1.000  Cu
  Cl1      1.0000 0.83877  0.89762  0.06503  Biso   1.000  Cl
  Cl2      1.0000 0.16123  0.10238  0.93497  Biso   1.000  Cl
  Cl3      1.0000 0.63164  0.80629  0.02595  Biso   1.000  Cl
  Cl4      1.0000 0.36836  0.19371  0.97405  Biso   1.000  Cl
  P1       1.0000 0.71630  0.87042  0.20882  Biso   1.000  P
  P2       1.0000 0.28370  0.12958  0.79118  Biso   1.000  P
  P3       1.0000 0.74939  0.71636  0.12580  Biso   1.000  P
  P4       1.0000 0.25061  0.28364  0.87420  Biso   1.000  P
  Cu3      1.0000 0.73284  0.87915  0.97022  Biso   1.000  Cu
  Cu4      1.0000 0.26716  0.12085  0.02978  Biso   1.000  Cu
  C1       1.0000 0.67670  0.80500  0.26820  Biso   1.000  C
  C2       1.0000 0.32330  0.19500  0.73180  Biso   1.000  C
  C3       1.0000 0.80820  0.94230  0.25990  Biso   1.000  C
  C4       1.0000 0.19180  0.05770  0.74010  Biso   1.000  C
  C5       1.0000 0.64740  0.91210  0.19200  Biso   1.000  C
  C6       1.0000 0.35260  0.08790  0.80800  Biso   1.000  C
  C7       1.0000 0.66050  0.63110  0.12710  Biso   1.000  C
  C8       1.0000 0.33950  0.36890  0.87290  Biso   1.000  C
  C9       1.0000 0.79540  0.69210  0.06780  Biso   1.000  C
  C10      1.0000 0.20460  0.30790  0.93220  Biso   1.000  C
  C11      1.0000 0.81370  0.72350  0.20340  Biso   1.000  C
  C12      1.0000 0.18630  0.27650  0.79660  Biso   1.000  C
  C13      1.0000 0.72450  0.77830  0.30480  Biso   1.000  C
  C14      1.0000 0.27550  0.22170  0.69520  Biso   1.000  C
  C15      1.0000 0.59950  0.77870  0.27580  Biso   1.000  C
  C16      1.0000 0.40050  0.22130  0.72420  Biso   1.000  C
  C17      1.0000 0.81400  0.96100  0.32500  Biso   1.000  C
  C18      1.0000 0.18600  0.03900  0.67500  Biso   1.000  C
  C19      1.0000 0.87250  0.97500  0.23320  Biso   1.000  C
  C20      1.0000 0.12750  0.02500  0.76680  Biso   1.000  C
  C21      1.0000 0.65760  0.97580  0.22920  Biso   1.000  C
  C22      1.0000 0.34240  0.02420  0.77080  Biso   1.000  C
  C23      1.0000 0.58200  0.87740  0.14330  Biso   1.000  C
  C24      1.0000 0.41800  0.12260  0.85670  Biso   1.000  C
  C25      1.0000 0.60100  0.63760  0.15460  Biso   1.000  C
  C26      1.0000 0.39900  0.36240  0.84540  Biso   1.000  C
  C27      1.0000 0.64490  0.55880  0.10370  Biso   1.000  C
  C28      1.0000 0.35510  0.44120  0.89630  Biso   1.000  C
  C29      1.0000 0.76070  0.66550  0.00570  Biso   1.000  C
  C30      1.0000 0.23930  0.33450  0.99430  Biso   1.000  C
  C31      1.0000 0.87320  0.71900  0.07970  Biso   1.000  C
  C32      1.0000 0.12680  0.28100  0.92030  Biso   1.000  C
  C33      1.0000 0.87500  0.78980  0.23100  Biso   1.000  C
  C34      1.0000 0.12500  0.21020  0.76900  Biso   1.000  C
  C35      1.0000 0.80710  0.66400  0.23780  Biso   1.000  C
  C36      1.0000 0.19290  0.33600  0.76220  Biso   1.000  C
  H1       1.0000 0.77590  0.79420  0.29910  Biso   1.000  H
  H2       1.0000 0.22410  0.20580  0.70090  Biso   1.000  H
  C37      1.0000 0.69760  0.72960  0.34870  Biso   1.000  C
  C38      1.0000 0.30240  0.27040  0.65130  Biso   1.000  C
  C39      1.0000 0.56920  0.73070  0.32060  Biso   1.000  C
  C40      1.0000 0.43080  0.26930  0.67940  Biso   1.000  C
  H3       1.0000 0.56640  0.79430  0.24940  Biso   1.000  H
  H4       1.0000 0.43360  0.20570  0.75060  Biso   1.000  H
  H5       1.0000 0.76940  0.93650  0.34260  Biso   1.000  H
  H6       1.0000 0.23060  0.06350  0.65740  Biso   1.000  H
  C41      1.0000 0.88190  0.01370  0.36470  Biso   1.000  C
  C42      1.0000 0.11810  0.98630  0.63530  Biso   1.000  C
  C43      1.0000 0.94340  0.02690  0.27330  Biso   1.000  C
  C44      1.0000 0.05660  0.97310  0.72670  Biso   1.000  C
  H7       1.0000 0.86960  0.96340  0.18960  Biso   1.000  H
  H8       1.0000 0.13040  0.03660  0.81040  Biso   1.000  H
  H9       1.0000 0.69960  0.99800  0.26490  Biso   1.000  H
  H10      1.0000 0.30040  0.00200  0.73510  Biso   1.000  H
  C45      1.0000 0.60540  0.00470  0.21250  Biso   1.000  C
  C46      1.0000 0.39460  0.99530  0.78750  Biso   1.000  C
  C47      1.0000 0.52860  0.90580  0.12780  Biso   1.000  C
  C48      1.0000 0.47140  0.09420  0.87220  Biso   1.000  C
  H11      1.0000 0.57320  0.83400  0.12010  Biso   1.000  H
  H12      1.0000 0.42680  0.16600  0.87990  Biso   1.000  H
  C49      1.0000 0.53490  0.57930  0.16240  Biso   1.000  C
  C50      1.0000 0.46510  0.42070  0.83760  Biso   1.000  C
  H13      1.0000 0.60880  0.68480  0.16780  Biso   1.000  H
  H14      1.0000 0.39120  0.31520  0.83220  Biso   1.000  H
  H15      1.0000 0.68100  0.55170  0.08430  Biso   1.000  H
  H16      1.0000 0.31900  0.44830  0.91570  Biso   1.000  H
  C51      1.0000 0.57540  0.49920  0.11000  Biso   1.000  C
  C52      1.0000 0.42460  0.50080  0.89000  Biso   1.000  C
  H17      1.0000 0.70940  0.65900  0.99080  Biso   1.000  H
  H18      1.0000 0.29060  0.34100  0.00920  Biso   1.000  H
  C53      1.0000 0.79640  0.64710  0.96260  Biso   1.000  C
  C54      1.0000 0.20360  0.35290  0.03740  Biso   1.000  C
  C55      1.0000 0.91380  0.70750  0.03500  Biso   1.000  C
  C56      1.0000 0.08620  0.29250  0.96500  Biso   1.000  C
  H19      1.0000 0.90260  0.74680  0.11940  Biso   1.000  H
  H20      1.0000 0.09740  0.25320  0.88060  Biso   1.000  H
  H21      1.0000 0.88020  0.83150  0.21010  Biso   1.000  H
  H22      1.0000 0.11980  0.16850  0.78990  Biso   1.000  H
  C57      1.0000 0.92970  0.80020  0.28710  Biso   1.000  C
  C58      1.0000 0.07030  0.19980  0.71290  Biso   1.000  C
  C59      1.0000 0.85600  0.67370  0.29660  Biso   1.000  C
  C60      1.0000 0.14400  0.32630  0.70340  Biso   1.000  C
  H23      1.0000 0.76860  0.61640  0.22060  Biso   1.000  H
  H24      1.0000 0.23140  0.38360  0.77940  Biso   1.000  H
  H25      1.0000 0.73020  0.71260  0.37370  Biso   1.000  H
  H26      1.0000 0.26980  0.28740  0.62630  Biso   1.000  H
  C61      1.0000 0.61860  0.70530  0.35530  Biso   1.000  C
  C62      1.0000 0.38140  0.29470  0.64470  Biso   1.000  C
  H27      1.0000 0.51830  0.71630  0.32710  Biso   1.000  H
  H28      1.0000 0.48170  0.28370  0.67290  Biso   1.000  H
  H29      1.0000 0.88290  0.02500  0.40790  Biso   1.000  H
  H30      1.0000 0.11710  0.97500  0.59210  Biso   1.000  H
  C63      1.0000 0.94720  0.04890  0.34010  Biso   1.000  C
  C64      1.0000 0.05280  0.95110  0.65990  Biso   1.000  C
  H31      1.0000 0.98910  0.04780  0.25670  Biso   1.000  H
  H32      1.0000 0.01090  0.95220  0.74330  Biso   1.000  H
  H33      1.0000 0.61400  0.04780  0.23600  Biso   1.000  H
  H34      1.0000 0.38600  0.95220  0.76400  Biso   1.000  H
  C65      1.0000 0.54190  0.97230  0.16280  Biso   1.000  C
  C66      1.0000 0.45810  0.02770  0.83720  Biso   1.000  C
  C67      1.0000 0.45560  0.87920  0.07310  Biso   1.000  C
  C68      1.0000 0.54440  0.12080  0.92690  Biso   1.000  C
  C69      1.0000 0.52100  0.50820  0.14210  Biso   1.000  C
  C70      1.0000 0.47900  0.49180  0.85790  Biso   1.000  C
  H35      1.0000 0.49840  0.58640  0.18120  Biso   1.000  H
  H36      1.0000 0.50160  0.41360  0.81880  Biso   1.000  H
  C71      1.0000 0.54710  0.41840  0.08880  Biso   1.000  C
  C72      1.0000 0.45290  0.58160  0.91120  Biso   1.000  C
  H37      1.0000 0.76660  0.62330  0.92170  Biso   1.000  H
  H38      1.0000 0.23340  0.37670  0.07830  Biso   1.000  H
  C73      1.0000 0.87140  0.66220  0.97790  Biso   1.000  C
  C74      1.0000 0.12860  0.33780  0.02210  Biso   1.000  C
  H39      1.0000 0.96890  0.73040  0.04400  Biso   1.000  H
  H40      1.0000 0.03110  0.26960  0.95600  Biso   1.000  H
  H41      1.0000 0.97370  0.84590  0.30100  Biso   1.000  H
  H42      1.0000 0.02630  0.15410  0.69900  Biso   1.000  H
  C75      1.0000 0.91690  0.74150  0.32120  Biso   1.000  C
  C76      1.0000 0.08310  0.25850  0.67880  Biso   1.000  C
  H43      1.0000 0.84770  0.63330  0.32040  Biso   1.000  H
  H44      1.0000 0.15230  0.36670  0.67960  Biso   1.000  H
  H45      1.0000 0.59910  0.67060  0.38430  Biso   1.000  H
  H46      1.0000 0.40090  0.32940  0.61570  Biso   1.000  H
  H47      1.0000 0.99350  0.08630  0.36520  Biso   1.000  H
  H48      1.0000 0.00650  0.91370  0.63480  Biso   1.000  H
  C77      1.0000 0.47810  0.98910  0.13830  Biso   1.000  C
  C78      1.0000 0.52190  0.01090  0.86170  Biso   1.000  C
  C79      1.0000 0.39290  0.80130  0.07720  Biso   1.000  C
  C80      1.0000 0.60710  0.19870  0.92280  Biso   1.000  C
  C81      1.0000 0.47810  0.88880  0.00610  Biso   1.000  C
  C82      1.0000 0.52190  0.11120  0.99390  Biso   1.000  C
  C83      1.0000 0.42280  0.93570  0.08540  Biso   1.000  C
  C84      1.0000 0.57720  0.06430  0.91460  Biso   1.000  C
  C85      1.0000 0.45700  0.43500  0.14390  Biso   1.000  C
  C86      1.0000 0.54300  0.56500  0.85610  Biso   1.000  C
  C87      1.0000 0.47120  0.38310  0.11300  Biso   1.000  C
  C88      1.0000 0.52880  0.61690  0.88700  Biso   1.000  C
  C89      1.0000 0.52650  0.40530  0.01080  Biso   1.000  C
  C90      1.0000 0.47350  0.59470  0.98920  Biso   1.000  C
  C91      1.0000 0.60640  0.39160  0.11590  Biso   1.000  C
  C92      1.0000 0.39360  0.60840  0.88410  Biso   1.000  C
  H49      1.0000 0.89430  0.64370  0.95210  Biso   1.000  H
  H50      1.0000 0.10570  0.35630  0.04790  Biso   1.000  H
  H51      1.0000 0.94960  0.74720  0.36150  Biso   1.000  H
  H52      1.0000 0.05040  0.25280  0.63850  Biso   1.000  H
  C93      1.0000 0.46210  0.04640  0.15650  Biso   1.000  C
  C94      1.0000 0.53790  0.95360  0.84350  Biso   1.000  C
  H53      1.0000 0.41120  0.76620  0.06720  Biso   1.000  H
  H54      1.0000 0.58880  0.23380  0.93280  Biso   1.000  H
  H55      1.0000 0.34490  0.79130  0.04660  Biso   1.000  H
  H56      1.0000 0.65510  0.20870  0.95340  Biso   1.000  H
  H57      1.0000 0.38300  0.79720  0.12040  Biso   1.000  H
  H58      1.0000 0.61700  0.20280  0.87960  Biso   1.000  H
  H59      1.0000 0.52520  0.93480  0.00860  Biso   1.000  H
  H60      1.0000 0.47480  0.06520  0.99140  Biso   1.000  H
  H61      1.0000 0.43560  0.88930  0.97450  Biso   1.000  H
  H62      1.0000 0.56440  0.11070  0.02550  Biso   1.000  H
  H63      1.0000 0.48760  0.84830  0.99360  Biso   1.000  H
  H64      1.0000 0.51240  0.15170  0.00640  Biso   1.000  H
  C95      1.0000 0.35620  0.93770  0.05380  Biso   1.000  C
  C96      1.0000 0.64380  0.06230  0.94620  Biso   1.000  C
  C97      1.0000 0.39080  0.41390  0.16990  Biso   1.000  C
  C98      1.0000 0.60920  0.58610  0.83010  Biso   1.000  C
  C99      1.0000 0.41760  0.30810  0.11010  Biso   1.000  C
  C100     1.0000 0.58240  0.69190  0.88990  Biso   1.000  C
  H65      1.0000 0.50330  0.35310  0.99720  Biso   1.000  H
  H66      1.0000 0.49670  0.64690  0.00280  Biso   1.000  H
  H67      1.0000 0.57420  0.43090  0.99480  Biso   1.000  H
  H68      1.0000 0.42580  0.56910  0.00520  Biso   1.000  H
  H69      1.0000 0.48980  0.42400  0.99380  Biso   1.000  H
  H70      1.0000 0.51020  0.57600  0.00620  Biso   1.000  H
  H71      1.0000 0.62520  0.40720  0.16170  Biso   1.000  H
  H72      1.0000 0.37480  0.59280  0.83830  Biso   1.000  H
  H73      1.0000 0.65020  0.41200  0.09450  Biso   1.000  H
  H74      1.0000 0.34980  0.58800  0.90550  Biso   1.000  H
  H75      1.0000 0.58190  0.33840  0.10890  Biso   1.000  H
  H76      1.0000 0.41810  0.66160  0.89110  Biso   1.000  H
  H77      1.0000 0.49580  0.08190  0.19110  Biso   1.000  H
  H78      1.0000 0.50420  0.91810  0.80890  Biso   1.000  H
  C101     1.0000 0.39400  0.04970  0.12170  Biso   1.000  C
  C102     1.0000 0.60600  0.95030  0.87830  Biso   1.000  C
  C103     1.0000 0.33920  0.99470  0.07350  Biso   1.000  C
  C104     1.0000 0.66080  0.00530  0.92650  Biso   1.000  C
  H79      1.0000 0.32210  0.90210  0.01940  Biso   1.000  H
  H80      1.0000 0.67790  0.09790  0.98060  Biso   1.000  H
  C105     1.0000 0.34010  0.34060  0.16520  Biso   1.000  C
  C106     1.0000 0.65990  0.65940  0.83480  Biso   1.000  C
  H81      1.0000 0.38110  0.44900  0.19020  Biso   1.000  H
  H82      1.0000 0.61890  0.55100  0.80980  Biso   1.000  H
  C107     1.0000 0.34840  0.28550  0.13340  Biso   1.000  C
  C108     1.0000 0.65160  0.71450  0.86660  Biso   1.000  C
  H83      1.0000 0.42830  0.27240  0.09220  Biso   1.000  H
  H84      1.0000 0.57170  0.72760  0.90780  Biso   1.000  H
  H85      1.0000 0.38560  0.09010  0.13160  Biso   1.000  H
  H86      1.0000 0.61440  0.90990  0.86840  Biso   1.000  H
  P5       1.0000 0.24940  0.00245  0.03728  Biso   1.000  P
  P6       1.0000 0.75060  0.99755  0.96272  Biso   1.000  P
  H87      1.0000 0.29690  0.32650  0.18480  Biso   1.000  H
  H88      1.0000 0.70310  0.67350  0.81520  Biso   1.000  H
  P7       1.0000 0.28024  0.18670  0.12456  Biso   1.000  P
  P8       1.0000 0.71976  0.81330  0.87544  Biso   1.000  P
  C109     1.0000 0.20570  0.93290  0.96500  Biso   1.000  C
  C110     1.0000 0.79430  0.06710  0.03500  Biso   1.000  C
  C111     1.0000 0.18370  0.95710  0.09170  Biso   1.000  C
  C112     1.0000 0.81630  0.04290  0.90830  Biso   1.000  C
  C113     1.0000 0.31880  0.15760  0.20060  Biso   1.000  C
  C114     1.0000 0.68120  0.84240  0.79940  Biso   1.000  C
  C115     1.0000 0.18480  0.17880  0.13750  Biso   1.000  C
  C116     1.0000 0.81520  0.82120  0.86250  Biso   1.000  C
  C117     1.0000 0.15500  0.85770  0.97230  Biso   1.000  C
  C118     1.0000 0.84500  0.14230  0.02770  Biso   1.000  C
  C119     1.0000 0.23020  0.94980  0.90860  Biso   1.000  C
  C120     1.0000 0.76980  0.05020  0.09140  Biso   1.000  C
  C121     1.0000 0.11410  0.96400  0.08290  Biso   1.000  C
  C122     1.0000 0.88590  0.03600  0.91710  Biso   1.000  C
  C123     1.0000 0.19610  0.91330  0.13600  Biso   1.000  C
  C124     1.0000 0.80390  0.08670  0.86400  Biso   1.000  C
  C125     1.0000 0.39240  0.19580  0.23530  Biso   1.000  C
  C126     1.0000 0.60760  0.80420  0.76470  Biso   1.000  C
  C127     1.0000 0.26500  0.08980  0.22060  Biso   1.000  C
  C128     1.0000 0.73500  0.91020  0.77940  Biso   1.000  C
  C129     1.0000 0.17730  0.19340  0.20010  Biso   1.000  C
  C130     1.0000 0.82270  0.80660  0.79990  Biso   1.000  C
  C131     1.0000 0.12330  0.15810  0.08720  Biso   1.000  C
  C132     1.0000 0.87670  0.84190  0.91280  Biso   1.000  C
  H89      1.0000 0.13990  0.84430  0.01160  Biso   1.000  H
  H90      1.0000 0.86010  0.15570  0.98840  Biso   1.000  H
  C133     1.0000 0.12870  0.80500  0.91940  Biso   1.000  C
  C134     1.0000 0.87130  0.19500  0.08060  Biso   1.000  C
  C135     1.0000 0.20010  0.89530  0.85600  Biso   1.000  C
  C136     1.0000 0.79990  0.10470  0.14400  Biso   1.000  C
  H91      1.0000 0.26710  0.99790  0.90490  Biso   1.000  H
  H92      1.0000 0.73290  0.00210  0.09510  Biso   1.000  H
  H93      1.0000 0.10460  0.99150  0.05030  Biso   1.000  H
  H94      1.0000 0.89540  0.00850  0.94970  Biso   1.000  H
  C137     1.0000 0.05620  0.93030  0.12240  Biso   1.000  C
  C138     1.0000 0.94380  0.06970  0.87760  Biso   1.000  C
  C139     1.0000 0.14080  0.88230  0.17620  Biso   1.000  C
  C140     1.0000 0.85920  0.11770  0.82380  Biso   1.000  C
  H95      1.0000 0.23970  0.90400  0.13990  Biso   1.000  H
  H96      1.0000 0.76030  0.09600  0.86010  Biso   1.000  H
  H97      1.0000 0.42710  0.23970  0.22170  Biso   1.000  H
  H98      1.0000 0.57290  0.76030  0.77830  Biso   1.000  H
  C141     1.0000 0.41840  0.16990  0.29340  Biso   1.000  C
  C142     1.0000 0.58160  0.83010  0.70660  Biso   1.000  C
  C143     1.0000 0.28570  0.05450  0.26600  Biso   1.000  C
  C144     1.0000 0.71430  0.94550  0.73400  Biso   1.000  C
  H99      1.0000 0.21180  0.06940  0.19990  Biso   1.000  H
  H100     1.0000 0.78820  0.93060  0.80010  Biso   1.000  H
  H101     1.0000 0.21960  0.20750  0.23550  Biso   1.000  H
  H102     1.0000 0.78040  0.79250  0.76450  Biso   1.000  H
  C145     1.0000 0.10270  0.18600  0.20770  Biso   1.000  C
  C146     1.0000 0.89730  0.81400  0.79230  Biso   1.000  C
  C147     1.0000 0.05130  0.15300  0.09710  Biso   1.000  C
  C148     1.0000 0.94870  0.84700  0.90290  Biso   1.000  C
  H103     1.0000 0.12820  0.14700  0.04580  Biso   1.000  H
  H104     1.0000 0.87180  0.85300  0.95420  Biso   1.000  H
  H105     1.0000 0.09510  0.75560  0.92270  Biso   1.000  H
  H106     1.0000 0.90490  0.24440  0.07730  Biso   1.000  H
  C149     1.0000 0.15290  0.82610  0.86090  Biso   1.000  C
  C150     1.0000 0.84710  0.17390  0.13910  Biso   1.000  C
  H107     1.0000 0.21400  0.90870  0.81630  Biso   1.000  H
  H108     1.0000 0.78600  0.09130  0.18370  Biso   1.000  H
  H109     1.0000 0.01120  0.93740  0.11750  Biso   1.000  H
  H110     1.0000 0.98880  0.06260  0.88250  Biso   1.000  H
  C151     1.0000 0.07050  0.88850  0.16630  Biso   1.000  C
  C152     1.0000 0.92950  0.11150  0.83370  Biso   1.000  C
  H111     1.0000 0.15160  0.85710  0.21020  Biso   1.000  H
  H112     1.0000 0.84840  0.14290  0.78980  Biso   1.000  H
  H113     1.0000 0.46890  0.19720  0.31910  Biso   1.000  H
  H114     1.0000 0.53110  0.80280  0.68090  Biso   1.000  H
  C153     1.0000 0.36460  0.10150  0.31050  Biso   1.000  C
  C154     1.0000 0.63540  0.89850  0.68950  Biso   1.000  C
  H115     1.0000 0.25440  0.00480  0.27040  Biso   1.000  H
  H116     1.0000 0.74560  0.99520  0.72960  Biso   1.000  H
  H117     1.0000 0.09770  0.19970  0.24820  Biso   1.000  H
  H118     1.0000 0.90230  0.80030  0.75180  Biso   1.000  H
  C155     1.0000 0.03940  0.15990  0.15840  Biso   1.000  C
  C156     1.0000 0.96060  0.84010  0.84160  Biso   1.000  C
  H119     1.0000 0.01090  0.14480  0.06130  Biso   1.000  H
  H120     1.0000 0.98910  0.85520  0.93870  Biso   1.000  H
  H121     1.0000 0.13520  0.79060  0.82550  Biso   1.000  H
  H122     1.0000 0.86480  0.20940  0.17450  Biso   1.000  H
  H123     1.0000 0.03300  0.86300  0.19070  Biso   1.000  H
  H124     1.0000 0.96700  0.13700  0.80930  Biso   1.000  H
  H125     1.0000 0.37820  0.08530  0.34980  Biso   1.000  H
  H126     1.0000 0.62180  0.91470  0.65020  Biso   1.000  H
  H127     1.0000 0.98900  0.14700  0.16550  Biso   1.000  H
  H128     1.0000 0.01100  0.85300  0.83450  Biso   1.000  H
  Cu5      1.0000 0.73120  0.37665  0.61710  Biso   1.000  Cu
  Cu6      1.0000 0.26880  0.62335  0.38290  Biso   1.000  Cu
  Cu7      1.0000 0.27425  0.68452  0.53449  Biso   1.000  Cu
  Cu8      1.0000 0.72575  0.31548  0.46551  Biso   1.000  Cu
  Cl5      1.0000 0.83228  0.38725  0.56011  Biso   1.000  Cl
  Cl6      1.0000 0.16772  0.61275  0.43989  Biso   1.000  Cl
  Cl7      1.0000 0.37221  0.69439  0.47536  Biso   1.000  Cl
  Cl8      1.0000 0.62779  0.30561  0.52464  Biso   1.000  Cl
  P9       1.0000 0.28194  0.62996  0.62940  Biso   1.000  P
  P10      1.0000 0.71806  0.37004  0.37060  Biso   1.000  P
  P11      1.0000 0.72421  0.31631  0.70902  Biso   1.000  P
  P12      1.0000 0.27579  0.68369  0.29098  Biso   1.000  P
  P13      1.0000 0.75079  0.49667  0.62880  Biso   1.000  P
  P14      1.0000 0.24921  0.50333  0.37120  Biso   1.000  P
  P15      1.0000 0.25406  0.78709  0.54132  Biso   1.000  P
  P16      1.0000 0.74594  0.21291  0.45868  Biso   1.000  P
  C157     1.0000 0.31280  0.68980  0.70590  Biso   1.000  C
  C158     1.0000 0.68720  0.31020  0.29410  Biso   1.000  C
  C159     1.0000 0.81610  0.31660  0.75060  Biso   1.000  C
  C160     1.0000 0.18390  0.68340  0.24940  Biso   1.000  C
  C161     1.0000 0.38800  0.71570  0.74460  Biso   1.000  C
  C162     1.0000 0.61200  0.28430  0.25540  Biso   1.000  C
  H129     1.0000 0.42380  0.70080  0.73360  Biso   1.000  H
  H130     1.0000 0.57620  0.29920  0.26640  Biso   1.000  H
  C163     1.0000 0.86620  0.31260  0.71500  Biso   1.000  C
  C164     1.0000 0.13380  0.68740  0.28500  Biso   1.000  C
  H131     1.0000 0.85310  0.31140  0.67000  Biso   1.000  H
  H132     1.0000 0.14690  0.68860  0.33000  Biso   1.000  H
  C165     1.0000 0.40950  0.76380  0.79970  Biso   1.000  C
  C166     1.0000 0.59050  0.23620  0.20030  Biso   1.000  C
  H133     1.0000 0.45990  0.78070  0.82560  Biso   1.000  H
  H134     1.0000 0.54010  0.21930  0.17440  Biso   1.000  H
  C167     1.0000 0.93500  0.31020  0.74230  Biso   1.000  C
  C168     1.0000 0.06500  0.68980  0.25770  Biso   1.000  C
  H135     1.0000 0.96630  0.30450  0.71620  Biso   1.000  H
  H136     1.0000 0.03370  0.69550  0.28380  Biso   1.000  H
  C169     1.0000 0.35950  0.78740  0.81720  Biso   1.000  C
  C170     1.0000 0.64050  0.21260  0.18280  Biso   1.000  C
  H137     1.0000 0.37590  0.82110  0.85380  Biso   1.000  H
  H138     1.0000 0.62410  0.17890  0.14620  Biso   1.000  H
  C171     1.0000 0.95840  0.31650  0.81150  Biso   1.000  C
  C172     1.0000 0.04160  0.68350  0.18850  Biso   1.000  C
  H139     1.0000 0.00590  0.31690  0.83130  Biso   1.000  H
  H140     1.0000 0.99410  0.68310  0.16870  Biso   1.000  H
  C173     1.0000 0.28450  0.76090  0.78030  Biso   1.000  C
  C174     1.0000 0.71550  0.23910  0.21970  Biso   1.000  C
  H141     1.0000 0.24940  0.77570  0.79300  Biso   1.000  H
  H142     1.0000 0.75060  0.22430  0.20700  Biso   1.000  H
  C175     1.0000 0.90870  0.32190  0.84810  Biso   1.000  C
  C176     1.0000 0.09130  0.67810  0.15190  Biso   1.000  C
  H143     1.0000 0.92300  0.32650  0.89320  Biso   1.000  H
  H144     1.0000 0.07700  0.67350  0.10680  Biso   1.000  H
  C177     1.0000 0.25950  0.71240  0.72420  Biso   1.000  C
  C178     1.0000 0.74050  0.28760  0.27580  Biso   1.000  C
  H145     1.0000 0.20840  0.69530  0.69920  Biso   1.000  H
  H146     1.0000 0.79160  0.30470  0.30080  Biso   1.000  H
  C179     1.0000 0.83920  0.32050  0.81900  Biso   1.000  C
  C180     1.0000 0.16080  0.67950  0.18100  Biso   1.000  C
  H147     1.0000 0.80560  0.32220  0.84470  Biso   1.000  H
  H148     1.0000 0.19440  0.67780  0.15530  Biso   1.000  H
  C181     1.0000 0.18840  0.55570  0.63820  Biso   1.000  C
  C182     1.0000 0.81160  0.44430  0.36180  Biso   1.000  C
  C183     1.0000 0.69480  0.35220  0.77460  Biso   1.000  C
  C184     1.0000 0.30520  0.64780  0.22540  Biso   1.000  C
  C185     1.0000 0.16730  0.53630  0.69720  Biso   1.000  C
  C186     1.0000 0.83270  0.46370  0.30280  Biso   1.000  C
  H149     1.0000 0.20480  0.56060  0.73530  Biso   1.000  H
  H150     1.0000 0.79520  0.43940  0.26470  Biso   1.000  H
  C187     1.0000 0.75230  0.42340  0.80780  Biso   1.000  C
  C188     1.0000 0.24770  0.57660  0.19220  Biso   1.000  C
  H151     1.0000 0.80190  0.44870  0.79780  Biso   1.000  H
  H152     1.0000 0.19810  0.55130  0.20220  Biso   1.000  H
  C189     1.0000 0.09430  0.48320  0.70220  Biso   1.000  C
  C190     1.0000 0.90570  0.51680  0.29780  Biso   1.000  C
  H153     1.0000 0.08300  0.47070  0.74270  Biso   1.000  H
  H154     1.0000 0.91700  0.52930  0.25730  Biso   1.000  H
  C191     1.0000 0.72990  0.45270  0.85590  Biso   1.000  C
  C192     1.0000 0.27010  0.54730  0.14410  Biso   1.000  C
  H155     1.0000 0.76520  0.49870  0.87870  Biso   1.000  H
  H156     1.0000 0.23480  0.50130  0.12130  Biso   1.000  H
  C193     1.0000 0.03850  0.44920  0.64760  Biso   1.000  C
  C194     1.0000 0.96150  0.55080  0.35240  Biso   1.000  C
  H157     1.0000 0.98810  0.41400  0.65060  Biso   1.000  H
  H158     1.0000 0.01190  0.58600  0.34940  Biso   1.000  H
  C195     1.0000 0.65170  0.41220  0.87090  Biso   1.000  C
  C196     1.0000 0.34830  0.58780  0.12910  Biso   1.000  C
  H159     1.0000 0.63730  0.43280  0.90260  Biso   1.000  H
  H160     1.0000 0.36270  0.56720  0.09740  Biso   1.000  H
  C197     1.0000 0.05580  0.46620  0.58750  Biso   1.000  C
  C198     1.0000 0.94420  0.53380  0.41250  Biso   1.000  C
  H161     1.0000 0.01710  0.44220  0.55000  Biso   1.000  H
  H162     1.0000 0.98290  0.55780  0.45000  Biso   1.000  H
  C199     1.0000 0.60170  0.34660  0.83980  Biso   1.000  C
  C200     1.0000 0.39830  0.65340  0.16020  Biso   1.000  C
  H163     1.0000 0.55210  0.32100  0.85000  Biso   1.000  H
  H164     1.0000 0.44790  0.67900  0.15000  Biso   1.000  H
  C201     1.0000 0.13270  0.52040  0.58240  Biso   1.000  C
  C202     1.0000 0.86730  0.47960  0.41760  Biso   1.000  C
  H165     1.0000 0.14480  0.53160  0.54190  Biso   1.000  H
  H166     1.0000 0.85520  0.46840  0.45810  Biso   1.000  H
  C203     1.0000 0.62180  0.31470  0.79180  Biso   1.000  C
  C204     1.0000 0.37820  0.68530  0.20820  Biso   1.000  C
  H167     1.0000 0.58590  0.26780  0.77100  Biso   1.000  H
  H168     1.0000 0.41410  0.73220  0.22900  Biso   1.000  H
  C205     1.0000 0.35510  0.59210  0.64350  Biso   1.000  C
  C206     1.0000 0.64490  0.40790  0.35650  Biso   1.000  C
  C207     1.0000 0.65340  0.21780  0.69830  Biso   1.000  C
  C208     1.0000 0.34660  0.78220  0.30170  Biso   1.000  C
  C209     1.0000 0.34580  0.53560  0.68160  Biso   1.000  C
  C210     1.0000 0.65420  0.46440  0.31840  Biso   1.000  C
  H169     1.0000 0.30310  0.51620  0.70190  Biso   1.000  H
  H170     1.0000 0.69690  0.48380  0.29810  Biso   1.000  H
  C211     1.0000 0.66110  0.16590  0.73610  Biso   1.000  C
  C212     1.0000 0.33890  0.83410  0.26390  Biso   1.000  C
  H171     1.0000 0.70440  0.18090  0.77080  Biso   1.000  H
  H172     1.0000 0.29560  0.81910  0.22920  Biso   1.000  H
  C213     1.0000 0.40000  0.50690  0.69000  Biso   1.000  C
  C214     1.0000 0.60000  0.49310  0.31000  Biso   1.000  C
  H173     1.0000 0.39260  0.46770  0.71510  Biso   1.000  H
  H174     1.0000 0.60740  0.53230  0.28490  Biso   1.000  H
  C215     1.0000 0.60650  0.09230  0.72410  Biso   1.000  C
  C216     1.0000 0.39350  0.90770  0.27590  Biso   1.000  C
  H175     1.0000 0.61260  0.05830  0.75120  Biso   1.000  H
  H176     1.0000 0.38740  0.94170  0.24880  Biso   1.000  H
  C217     1.0000 0.46600  0.53690  0.66070  Biso   1.000  C
  C218     1.0000 0.53400  0.46310  0.33930  Biso   1.000  C
  C219     1.0000 0.54300  0.06850  0.67230  Biso   1.000  C
  C220     1.0000 0.45700  0.93150  0.32770  Biso   1.000  C
  C221     1.0000 0.47300  0.59510  0.62310  Biso   1.000  C
  C222     1.0000 0.52700  0.40490  0.37690  Biso   1.000  C
  C223     1.0000 0.53110  0.12050  0.63310  Biso   1.000  C
  C224     1.0000 0.46890  0.87950  0.36690  Biso   1.000  C
  C225     1.0000 0.42000  0.62260  0.61450  Biso   1.000  C
  C226     1.0000 0.58000  0.37740  0.38550  Biso   1.000  C
  H177     1.0000 0.42710  0.66170  0.58930  Biso   1.000  H
  H178     1.0000 0.57290  0.33830  0.41070  Biso   1.000  H
  C227     1.0000 0.58640  0.19270  0.64700  Biso   1.000  C
  C228     1.0000 0.41360  0.80730  0.35300  Biso   1.000  C
  H179     1.0000 0.57970  0.22730  0.62130  Biso   1.000  H
  H180     1.0000 0.42030  0.77270  0.37870  Biso   1.000  H
  C229     1.0000 0.54800  0.61900  0.59320  Biso   1.000  C
  C230     1.0000 0.45200  0.38100  0.40680  Biso   1.000  C
  C231     1.0000 0.45850  0.08290  0.57970  Biso   1.000  C
  C232     1.0000 0.54150  0.91710  0.42030  Biso   1.000  C
  C233     1.0000 0.52100  0.60420  0.51750  Biso   1.000  C
  C234     1.0000 0.47900  0.39580  0.48250  Biso   1.000  C
  H181     1.0000 0.56410  0.60730  0.49910  Biso   1.000  H
  H182     1.0000 0.43590  0.39270  0.50090  Biso   1.000  H
  H183     1.0000 0.50500  0.64050  0.50130  Biso   1.000  H
  H184     1.0000 0.49500  0.35950  0.49870  Biso   1.000  H
  H185     1.0000 0.47720  0.55550  0.50570  Biso   1.000  H
  H186     1.0000 0.52280  0.44450  0.49430  Biso   1.000  H
  C235     1.0000 0.39530  0.11190  0.58470  Biso   1.000  C
  C236     1.0000 0.60470  0.88810  0.41530  Biso   1.000  C
  H187     1.0000 0.34730  0.08300  0.55310  Biso   1.000  H
  H188     1.0000 0.65270  0.91700  0.44690  Biso   1.000  H
  H189     1.0000 0.41620  0.16310  0.57650  Biso   1.000  H
  H190     1.0000 0.58380  0.83690  0.42350  Biso   1.000  H
  H191     1.0000 0.38420  0.10730  0.62750  Biso   1.000  H
  H192     1.0000 0.61580  0.89270  0.37250  Biso   1.000  H
  C237     1.0000 0.60790  0.70140  0.61650  Biso   1.000  C
  C238     1.0000 0.39210  0.29860  0.38350  Biso   1.000  C
  H193     1.0000 0.61410  0.71030  0.66250  Biso   1.000  H
  H194     1.0000 0.38590  0.28970  0.33750  Biso   1.000  H
  H195     1.0000 0.58840  0.73310  0.59460  Biso   1.000  H
  H196     1.0000 0.41160  0.26690  0.40540  Biso   1.000  H
  H197     1.0000 0.65820  0.71170  0.60670  Biso   1.000  H
  H198     1.0000 0.34180  0.28830  0.39330  Biso   1.000  H
  C239     1.0000 0.47960  0.09290  0.51230  Biso   1.000  C
  C240     1.0000 0.52040  0.90710  0.48770  Biso   1.000  C
  H199     1.0000 0.51720  0.07450  0.50970  Biso   1.000  H
  H200     1.0000 0.48280  0.92550  0.49030  Biso   1.000  H
  H201     1.0000 0.50230  0.14460  0.50590  Biso   1.000  H
  H202     1.0000 0.49770  0.85540  0.49410  Biso   1.000  H
  H203     1.0000 0.43260  0.06570  0.47930  Biso   1.000  H
  H204     1.0000 0.56740  0.93430  0.52070  Biso   1.000  H
  C241     1.0000 0.58000  0.56810  0.62030  Biso   1.000  C
  C242     1.0000 0.42000  0.43190  0.37970  Biso   1.000  C
  C243     1.0000 0.47700  0.99520  0.64630  Biso   1.000  C
  C244     1.0000 0.52300  0.00480  0.35370  Biso   1.000  C
  C245     1.0000 0.52920  0.51790  0.65750  Biso   1.000  C
  C246     1.0000 0.47080  0.48210  0.34250  Biso   1.000  C
  C247     1.0000 0.42610  0.00310  0.59510  Biso   1.000  C
  C248     1.0000 0.57390  0.99690  0.40490  Biso   1.000  C
  C249     1.0000 0.54720  0.46520  0.68450  Biso   1.000  C
  C250     1.0000 0.45280  0.53480  0.31550  Biso   1.000  C
  H205     1.0000 0.51430  0.43210  0.70890  Biso   1.000  H
  H206     1.0000 0.48570  0.56790  0.29110  Biso   1.000  H
  C251     1.0000 0.35630  0.94230  0.56210  Biso   1.000  C
  C252     1.0000 0.64370  0.05770  0.43790  Biso   1.000  C
  H207     1.0000 0.32150  0.94810  0.52830  Biso   1.000  H
  H208     1.0000 0.67850  0.05190  0.47170  Biso   1.000  H
  C253     1.0000 0.61460  0.46060  0.67590  Biso   1.000  C
  C254     1.0000 0.38540  0.53940  0.32410  Biso   1.000  C
  H209     1.0000 0.62620  0.42400  0.69390  Biso   1.000  H
  H210     1.0000 0.37380  0.57600  0.30610  Biso   1.000  H
  C255     1.0000 0.46190  0.92660  0.66590  Biso   1.000  C
  C256     1.0000 0.53810  0.07340  0.33410  Biso   1.000  C
  H211     1.0000 0.49650  0.92110  0.70000  Biso   1.000  H
  H212     1.0000 0.50350  0.07890  0.30000  Biso   1.000  H
  C257     1.0000 0.66470  0.51080  0.64020  Biso   1.000  C
  C258     1.0000 0.33530  0.48920  0.35980  Biso   1.000  C
  C259     1.0000 0.39170  0.86390  0.63260  Biso   1.000  C
  C260     1.0000 0.60830  0.13610  0.36740  Biso   1.000  C
  H213     1.0000 0.38010  0.81690  0.64540  Biso   1.000  H
  H214     1.0000 0.61990  0.18310  0.35460  Biso   1.000  H
  C261     1.0000 0.64760  0.56470  0.61210  Biso   1.000  C
  C262     1.0000 0.35240  0.43530  0.38790  Biso   1.000  C
  H215     1.0000 0.68100  0.59800  0.58820  Biso   1.000  H
  H216     1.0000 0.31900  0.40200  0.41180  Biso   1.000  H
  C263     1.0000 0.34160  0.87230  0.58230  Biso   1.000  C
  C264     1.0000 0.65840  0.12770  0.41770  Biso   1.000  C
  C265     1.0000 0.82620  0.54580  0.70130  Biso   1.000  C
  C266     1.0000 0.17380  0.45420  0.29870  Biso   1.000  C
  C267     1.0000 0.21410  0.81890  0.47050  Biso   1.000  C
  C268     1.0000 0.78590  0.18110  0.52950  Biso   1.000  C
  C269     1.0000 0.89300  0.53340  0.71330  Biso   1.000  C
  C270     1.0000 0.10700  0.46660  0.28670  Biso   1.000  C
  H217     1.0000 0.89640  0.50090  0.68390  Biso   1.000  H
  H218     1.0000 0.10360  0.49910  0.31610  Biso   1.000  H
  C271     1.0000 0.25310  0.83860  0.41960  Biso   1.000  C
  C272     1.0000 0.74690  0.16140  0.58040  Biso   1.000  C
  H219     1.0000 0.29810  0.83190  0.42150  Biso   1.000  H
  H220     1.0000 0.70190  0.16810  0.57850  Biso   1.000  H
  C273     1.0000 0.95570  0.56830  0.76830  Biso   1.000  C
  C274     1.0000 0.04430  0.43170  0.23170  Biso   1.000  C
  H221     1.0000 0.00000  0.55990  0.77600  Biso   1.000  H
  H222     1.0000 0.00000  0.44010  0.22400  Biso   1.000  H
  C275     1.0000 0.22960  0.86620  0.36920  Biso   1.000  C
  C276     1.0000 0.77040  0.13380  0.63080  Biso   1.000  C
  H223     1.0000 0.25650  0.87540  0.33540  Biso   1.000  H
  H224     1.0000 0.74350  0.12460  0.66460  Biso   1.000  H
  C277     1.0000 0.94580  0.61750  0.81140  Biso   1.000  C
  C278     1.0000 0.05420  0.38250  0.18860  Biso   1.000  C
  H225     1.0000 0.98450  0.64140  0.84890  Biso   1.000  H
  H226     1.0000 0.01550  0.35860  0.15110  Biso   1.000  H
  C279     1.0000 0.16510  0.88270  0.36360  Biso   1.000  C
  C280     1.0000 0.83490  0.11730  0.63640  Biso   1.000  C
  H227     1.0000 0.14990  0.90370  0.32800  Biso   1.000  H
  H228     1.0000 0.85010  0.09630  0.67200  Biso   1.000  H
  C281     1.0000 0.88180  0.62970  0.79850  Biso   1.000  C
  C282     1.0000 0.11820  0.37030  0.20150  Biso   1.000  C
  H229     1.0000 0.87660  0.66180  0.82700  Biso   1.000  H
  H230     1.0000 0.12340  0.33820  0.17300  Biso   1.000  H
  C283     1.0000 0.12550  0.86580  0.41460  Biso   1.000  C
  C284     1.0000 0.87450  0.13420  0.58540  Biso   1.000  C
  H231     1.0000 0.08420  0.87790  0.41400  Biso   1.000  H
  H232     1.0000 0.91580  0.12210  0.58600  Biso   1.000  H
  C285     1.0000 0.82610  0.59610  0.74550  Biso   1.000  C
  C286     1.0000 0.17390  0.40390  0.25450  Biso   1.000  C
  H233     1.0000 0.78380  0.60750  0.73750  Biso   1.000  H
  H234     1.0000 0.21620  0.39250  0.26250  Biso   1.000  H
  C287     1.0000 0.14600  0.83130  0.46640  Biso   1.000  C
  C288     1.0000 0.85400  0.16870  0.53360  Biso   1.000  C
  H235     1.0000 0.11580  0.81650  0.49800  Biso   1.000  H
  H236     1.0000 0.88420  0.18350  0.50200  Biso   1.000  H
  C289     1.0000 0.78680  0.55770  0.56790  Biso   1.000  C
  C290     1.0000 0.21320  0.44230  0.43210  Biso   1.000  C
  C291     1.0000 0.18040  0.77050  0.59060  Biso   1.000  C
  C292     1.0000 0.81960  0.22950  0.40940  Biso   1.000  C
  C293     1.0000 0.85110  0.62890  0.58470  Biso   1.000  C
  C294     1.0000 0.14890  0.37110  0.41530  Biso   1.000  C
  H237     1.0000 0.87910  0.64310  0.62760  Biso   1.000  H
  H238     1.0000 0.12090  0.35690  0.37240  Biso   1.000  H
  C295     1.0000 0.11710  0.69950  0.58260  Biso   1.000  C
  C296     1.0000 0.88290  0.30050  0.41740  Biso   1.000  C
  H239     1.0000 0.11350  0.66330  0.55280  Biso   1.000  H
  H240     1.0000 0.88650  0.33670  0.44720  Biso   1.000  H
  C297     1.0000 0.87370  0.67850  0.53880  Biso   1.000  C
  C298     1.0000 0.12630  0.32150  0.46120  Biso   1.000  C
  H241     1.0000 0.91500  0.72630  0.55030  Biso   1.000  H
  H242     1.0000 0.08500  0.27370  0.44970  Biso   1.000  H
  C299     1.0000 0.05900  0.68250  0.61950  Biso   1.000  C
  C300     1.0000 0.94100  0.31750  0.38050  Biso   1.000  C
  H243     1.0000 0.01590  0.63550  0.61400  Biso   1.000  H
  H244     1.0000 0.98410  0.36450  0.38600  Biso   1.000  H
  C301     1.0000 0.83320  0.65440  0.47590  Biso   1.000  C
  C302     1.0000 0.16680  0.34560  0.52410  Biso   1.000  C
  H245     1.0000 0.84880  0.68580  0.44380  Biso   1.000  H
  H246     1.0000 0.15120  0.31420  0.55620  Biso   1.000  H
  C303     1.0000 0.06760  0.73670  0.66350  Biso   1.000  C
  C304     1.0000 0.93240  0.26330  0.33650  Biso   1.000  C
  H247     1.0000 0.02910  0.72520  0.68810  Biso   1.000  H
  H248     1.0000 0.97090  0.27480  0.31190  Biso   1.000  H
  C305     1.0000 0.76900  0.58420  0.45850  Biso   1.000  C
  C306     1.0000 0.23100  0.41580  0.54150  Biso   1.000  C
  H249     1.0000 0.74050  0.56900  0.41580  Biso   1.000  H
  H250     1.0000 0.25950  0.43100  0.58420  Biso   1.000  H
  C307     1.0000 0.12920  0.80710  0.67400  Biso   1.000  C
  C308     1.0000 0.87080  0.19290  0.32600  Biso   1.000  C
  H251     1.0000 0.13390  0.84230  0.70550  Biso   1.000  H
  H252     1.0000 0.86610  0.15770  0.29450  Biso   1.000  H
  C309     1.0000 0.75010  0.53940  0.50520  Biso   1.000  C
  C310     1.0000 0.24990  0.46060  0.49480  Biso   1.000  C
  H253     1.0000 0.70820  0.49200  0.49340  Biso   1.000  H
  H254     1.0000 0.29180  0.50800  0.50660  Biso   1.000  H
  C311     1.0000 0.18580  0.82340  0.63400  Biso   1.000  C
  C312     1.0000 0.81420  0.17660  0.36600  Biso   1.000  C
  H255     1.0000 0.22710  0.87120  0.63770  Biso   1.000  H
  H256     1.0000 0.77290  0.12880  0.36230  Biso   1.000  H
