data_image0
_cell_length_a       7.219
_cell_length_b       9.4162
_cell_length_c       13.0193
_cell_angle_alpha    82.887
_cell_angle_beta     85.622
_cell_angle_gamma    81.965

_symmetry_space_group_name_H-M    "P 1"
_symmetry_int_tables_number       1

loop_
  _symmetry_equiv_pos_as_xyz
  'x, y, z'

loop_
  _atom_site_label
  _atom_site_occupancy
  _atom_site_fract_x
  _atom_site_fract_y
  _atom_site_fract_z
  _atom_site_thermal_displace_type
  _atom_site_B_iso_or_equiv
  _atom_site_type_symbol
  Cu1      1.0000 0.75618  0.55628  0.23694  Biso   1.000  Cu
  Cu2      1.0000 0.24382  0.44372  0.76306  Biso   1.000  Cu
  Cu3      1.0000 0.78599  0.23484  0.16804  Biso   1.000  Cu
  Cu4      1.0000 0.21401  0.76516  0.83196  Biso   1.000  Cu
  Cu5      1.0000 0.83908  0.22822  0.36664  Biso   1.000  Cu
  Cu6      1.0000 0.16092  0.77178  0.63336  Biso   1.000  Cu
  Cl1      1.0000 0.00546  0.40064  0.16293  Biso   1.000  Cl
  Cl2      1.0000 0.99454  0.59936  0.83707  Biso   1.000  Cl
  Cl3      1.0000 0.88640  0.03658  0.27342  Biso   1.000  Cl
  Cl4      1.0000 0.11360  0.96342  0.72658  Biso   1.000  Cl
  Cl5      1.0000 0.56124  0.38231  0.33777  Biso   1.000  Cl
  Cl6      1.0000 0.43876  0.61769  0.66223  Biso   1.000  Cl
  N1       1.0000 0.87320  0.64040  0.34760  Biso   1.000  N
  N2       1.0000 0.12680  0.35960  0.65240  Biso   1.000  N
  C1       1.0000 0.77530  0.73270  0.40830  Biso   1.000  C
  C2       1.0000 0.22470  0.26730  0.59170  Biso   1.000  C
  C3       1.0000 0.85850  0.77890  0.49120  Biso   1.000  C
  C4       1.0000 0.14150  0.22110  0.50880  Biso   1.000  C
  N3       1.0000 0.03660  0.72770  0.51240  Biso   1.000  N
  N4       1.0000 0.96340  0.27230  0.48760  Biso   1.000  N
  C5       1.0000 0.13330  0.63560  0.45040  Biso   1.000  C
  C6       1.0000 0.86670  0.36440  0.54960  Biso   1.000  C
  H1       1.0000 0.25690  0.59950  0.46340  Biso   1.000  H
  H2       1.0000 0.74310  0.40050  0.53660  Biso   1.000  H
  C7       1.0000 0.05420  0.59340  0.36830  Biso   1.000  C
  C8       1.0000 0.94580  0.40660  0.63170  Biso   1.000  C
  H3       1.0000 0.12620  0.53140  0.32600  Biso   1.000  H
  H4       1.0000 0.87380  0.46860  0.67400  Biso   1.000  H
  C9       1.0000 0.57470  0.78600  0.38590  Biso   1.000  C
  C10      1.0000 0.42530  0.21400  0.61410  Biso   1.000  C
  H5       1.0000 0.53680  0.73320  0.33430  Biso   1.000  H
  H6       1.0000 0.46320  0.26680  0.66570  Biso   1.000  H
  H7       1.0000 0.49630  0.77190  0.44820  Biso   1.000  H
  H8       1.0000 0.50370  0.22810  0.55180  Biso   1.000  H
  H9       1.0000 0.56290  0.88690  0.36070  Biso   1.000  H
  H10      1.0000 0.43710  0.11310  0.63930  Biso   1.000  H
  C11      1.0000 0.75330  0.88670  0.55570  Biso   1.000  C
  C12      1.0000 0.24670  0.11330  0.44430  Biso   1.000  C
  H11      1.0000 0.82980  0.90200  0.60950  Biso   1.000  H
  H12      1.0000 0.17020  0.09800  0.39050  Biso   1.000  H
  H13      1.0000 0.72150  0.97620  0.51300  Biso   1.000  H
  H14      1.0000 0.27850  0.02380  0.48700  Biso   1.000  H
  H15      1.0000 0.64080  0.85160  0.58630  Biso   1.000  H
  H16      1.0000 0.35920  0.14840  0.41370  Biso   1.000  H
  N5       1.0000 0.37530  0.72910  0.95110  Biso   1.000  N
  N6       1.0000 0.62470  0.27090  0.04890  Biso   1.000  N
  C13      1.0000 0.53450  0.78530  0.95680  Biso   1.000  C
  C14      1.0000 0.46550  0.21470  0.04320  Biso   1.000  C
  C15      1.0000 0.64240  0.74670  0.04500  Biso   1.000  C
  C16      1.0000 0.35760  0.25330  0.95500  Biso   1.000  C
  N7       1.0000 0.58910  0.64980  0.12250  Biso   1.000  N
  N8       1.0000 0.41090  0.35020  0.87750  Biso   1.000  N
  C17      1.0000 0.42690  0.59680  0.11540  Biso   1.000  C
  C18      1.0000 0.57310  0.40320  0.88460  Biso   1.000  C
  H17      1.0000 0.38620  0.53170  0.16910  Biso   1.000  H
  H18      1.0000 0.61380  0.46830  0.83090  Biso   1.000  H
  C19      1.0000 0.32080  0.63600  0.03130  Biso   1.000  C
  C20      1.0000 0.67920  0.36400  0.96870  Biso   1.000  C
  H19      1.0000 0.20910  0.59790  0.02940  Biso   1.000  H
  H20      1.0000 0.79090  0.40210  0.97060  Biso   1.000  H
  C21      1.0000 0.59420  0.88830  0.86750  Biso   1.000  C
  C22      1.0000 0.40580  0.11170  0.13250  Biso   1.000  C
  H21      1.0000 0.49610  0.91150  0.82010  Biso   1.000  H
  H22      1.0000 0.50390  0.08850  0.17990  Biso   1.000  H
  H23      1.0000 0.70560  0.84450  0.83250  Biso   1.000  H
  H24      1.0000 0.29440  0.15550  0.16750  Biso   1.000  H
  H25      1.0000 0.61930  0.97490  0.89270  Biso   1.000  H
  H26      1.0000 0.38070  0.02510  0.10730  Biso   1.000  H
  C23      1.0000 0.81920  0.80990  0.05470  Biso   1.000  C
  C24      1.0000 0.18080  0.19010  0.94530  Biso   1.000  C
  H27      1.0000 0.87910  0.76310  0.11550  Biso   1.000  H
  H28      1.0000 0.12090  0.23690  0.88450  Biso   1.000  H
  H29      1.0000 0.78940  0.91130  0.06010  Biso   1.000  H
  H30      1.0000 0.21060  0.08870  0.93990  Biso   1.000  H
  H31      1.0000 0.90200  0.79550  0.99450  Biso   1.000  H
  H32      1.0000 0.09800  0.20450  0.00550  Biso   1.000  H
