data_image0
_cell_length_a       30.303
_cell_length_b       3.9135
_cell_length_c       15.194
_cell_angle_alpha    90
_cell_angle_beta     100.388
_cell_angle_gamma    90

_symmetry_space_group_name_H-M    "P 1"
_symmetry_int_tables_number       1

loop_
  _symmetry_equiv_pos_as_xyz
  'x, y, z'

loop_
  _atom_site_label
  _atom_site_occupancy
  _atom_site_fract_x
  _atom_site_fract_y
  _atom_site_fract_z
  _atom_site_thermal_displace_type
  _atom_site_B_iso_or_equiv
  _atom_site_type_symbol
  Cu1      1.0000 0.70890  0.64194  0.25557  Biso   1.000  Cu
  Cu2      1.0000 0.20890  0.14194  0.25557  Biso   1.000  Cu
  Cu3      1.0000 0.29110  0.64194  0.24443  Biso   1.000  Cu
  Cu4      1.0000 0.79110  0.14194  0.24443  Biso   1.000  Cu
  Cu5      1.0000 0.29110  0.35806  0.74443  Biso   1.000  Cu
  Cu6      1.0000 0.79110  0.85806  0.74443  Biso   1.000  Cu
  Cu7      1.0000 0.70890  0.35806  0.75557  Biso   1.000  Cu
  Cu8      1.0000 0.20890  0.85806  0.75557  Biso   1.000  Cu
  Cl1      1.0000 0.78848  0.64820  0.33279  Biso   1.000  Cl
  Cl2      1.0000 0.28848  0.14820  0.33279  Biso   1.000  Cl
  Cl3      1.0000 0.21152  0.64820  0.16721  Biso   1.000  Cl
  Cl4      1.0000 0.71152  0.14820  0.16721  Biso   1.000  Cl
  Cl5      1.0000 0.21152  0.35180  0.66721  Biso   1.000  Cl
  Cl6      1.0000 0.71152  0.85180  0.66721  Biso   1.000  Cl
  Cl7      1.0000 0.78848  0.35180  0.83279  Biso   1.000  Cl
  Cl8      1.0000 0.28848  0.85180  0.83279  Biso   1.000  Cl
  Cu9      1.0000 0.52044  0.70714  0.44095  Biso   1.000  Cu
  Cu10     1.0000 0.02044  0.20714  0.44095  Biso   1.000  Cu
  Cu11     1.0000 0.47956  0.70714  0.05905  Biso   1.000  Cu
  Cu12     1.0000 0.97956  0.20714  0.05905  Biso   1.000  Cu
  Cu13     1.0000 0.47956  0.29286  0.55905  Biso   1.000  Cu
  Cu14     1.0000 0.97956  0.79286  0.55905  Biso   1.000  Cu
  Cu15     1.0000 0.52044  0.29286  0.94095  Biso   1.000  Cu
  Cu16     1.0000 0.02044  0.79286  0.94095  Biso   1.000  Cu
  Cl9      1.0000 0.47784  0.20790  0.39499  Biso   1.000  Cl
  Cl10     1.0000 0.97784  0.70790  0.39499  Biso   1.000  Cl
  Cl11     1.0000 0.52216  0.20790  0.10501  Biso   1.000  Cl
  Cl12     1.0000 0.02216  0.70790  0.10501  Biso   1.000  Cl
  Cl13     1.0000 0.52216  0.79210  0.60501  Biso   1.000  Cl
  Cl14     1.0000 0.02216  0.29210  0.60501  Biso   1.000  Cl
  Cl15     1.0000 0.47784  0.79210  0.89499  Biso   1.000  Cl
  Cl16     1.0000 0.97784  0.29210  0.89499  Biso   1.000  Cl
  N1       1.0000 0.65540  0.65360  0.31696  Biso   1.000  N
  N2       1.0000 0.15540  0.15360  0.31696  Biso   1.000  N
  N3       1.0000 0.34460  0.65360  0.18304  Biso   1.000  N
  N4       1.0000 0.84460  0.15360  0.18304  Biso   1.000  N
  N5       1.0000 0.34460  0.34640  0.68304  Biso   1.000  N
  N6       1.0000 0.84460  0.84640  0.68304  Biso   1.000  N
  N7       1.0000 0.65540  0.34640  0.81696  Biso   1.000  N
  N8       1.0000 0.15540  0.84640  0.81696  Biso   1.000  N
  C1       1.0000 0.65517  0.51900  0.39841  Biso   1.000  C
  C2       1.0000 0.15517  0.01900  0.39841  Biso   1.000  C
  C3       1.0000 0.34483  0.51900  0.10159  Biso   1.000  C
  C4       1.0000 0.84483  0.01900  0.10159  Biso   1.000  C
  C5       1.0000 0.34483  0.48100  0.60159  Biso   1.000  C
  C6       1.0000 0.84483  0.98100  0.60159  Biso   1.000  C
  C7       1.0000 0.65517  0.48100  0.89841  Biso   1.000  C
  C8       1.0000 0.15517  0.98100  0.89841  Biso   1.000  C
  C9       1.0000 0.61626  0.53180  0.43688  Biso   1.000  C
  C10      1.0000 0.11626  0.03180  0.43688  Biso   1.000  C
  C11      1.0000 0.38374  0.53180  0.06312  Biso   1.000  C
  C12      1.0000 0.88374  0.03180  0.06312  Biso   1.000  C
  C13      1.0000 0.38374  0.46820  0.56312  Biso   1.000  C
  C14      1.0000 0.88374  0.96820  0.56312  Biso   1.000  C
  C15      1.0000 0.61626  0.46820  0.93688  Biso   1.000  C
  C16      1.0000 0.11626  0.96820  0.93688  Biso   1.000  C
  N9       1.0000 0.57833  0.67930  0.39335  Biso   1.000  N
  N10      1.0000 0.07833  0.17930  0.39335  Biso   1.000  N
  N11      1.0000 0.42167  0.67930  0.10665  Biso   1.000  N
  N12      1.0000 0.92167  0.17930  0.10665  Biso   1.000  N
  N13      1.0000 0.42167  0.32070  0.60665  Biso   1.000  N
  N14      1.0000 0.92167  0.82070  0.60665  Biso   1.000  N
  N15      1.0000 0.57833  0.32070  0.89335  Biso   1.000  N
  N16      1.0000 0.07833  0.82070  0.89335  Biso   1.000  N
  C17      1.0000 0.57904  0.80680  0.31140  Biso   1.000  C
  C18      1.0000 0.07904  0.30680  0.31140  Biso   1.000  C
  C19      1.0000 0.42096  0.80680  0.18860  Biso   1.000  C
  C20      1.0000 0.92096  0.30680  0.18860  Biso   1.000  C
  C21      1.0000 0.42096  0.19320  0.68860  Biso   1.000  C
  C22      1.0000 0.92096  0.69320  0.68860  Biso   1.000  C
  C23      1.0000 0.57904  0.19320  0.81140  Biso   1.000  C
  C24      1.0000 0.07904  0.69320  0.81140  Biso   1.000  C
  H1       1.0000 0.55310  0.90550  0.27940  Biso   1.000  H
  H2       1.0000 0.05310  0.40550  0.27940  Biso   1.000  H
  H3       1.0000 0.44690  0.90550  0.22060  Biso   1.000  H
  H4       1.0000 0.94690  0.40550  0.22060  Biso   1.000  H
  H5       1.0000 0.44690  0.09450  0.72060  Biso   1.000  H
  H6       1.0000 0.94690  0.59450  0.72060  Biso   1.000  H
  H7       1.0000 0.55310  0.09450  0.77940  Biso   1.000  H
  H8       1.0000 0.05310  0.59450  0.77940  Biso   1.000  H
  C25      1.0000 0.61692  0.79580  0.27360  Biso   1.000  C
  C26      1.0000 0.11692  0.29580  0.27360  Biso   1.000  C
  C27      1.0000 0.38308  0.79580  0.22640  Biso   1.000  C
  C28      1.0000 0.88308  0.29580  0.22640  Biso   1.000  C
  C29      1.0000 0.38308  0.20420  0.72640  Biso   1.000  C
  C30      1.0000 0.88308  0.70420  0.72640  Biso   1.000  C
  C31      1.0000 0.61692  0.20420  0.77360  Biso   1.000  C
  C32      1.0000 0.11692  0.70420  0.77360  Biso   1.000  C
  H9       1.0000 0.61610  0.88810  0.21690  Biso   1.000  H
  H10      1.0000 0.11610  0.38810  0.21690  Biso   1.000  H
  H11      1.0000 0.38390  0.88810  0.28310  Biso   1.000  H
  H12      1.0000 0.88390  0.38810  0.28310  Biso   1.000  H
  H13      1.0000 0.38390  0.11190  0.78310  Biso   1.000  H
  H14      1.0000 0.88390  0.61190  0.78310  Biso   1.000  H
  H15      1.0000 0.61610  0.11190  0.71690  Biso   1.000  H
  H16      1.0000 0.11610  0.61190  0.71690  Biso   1.000  H
  C33      1.0000 0.69805  0.36520  0.44660  Biso   1.000  C
  C34      1.0000 0.19805  0.86520  0.44660  Biso   1.000  C
  C35      1.0000 0.30195  0.36520  0.05340  Biso   1.000  C
  C36      1.0000 0.80195  0.86520  0.05340  Biso   1.000  C
  C37      1.0000 0.30195  0.63480  0.55340  Biso   1.000  C
  C38      1.0000 0.80195  0.13480  0.55340  Biso   1.000  C
  C39      1.0000 0.69805  0.63480  0.94660  Biso   1.000  C
  C40      1.0000 0.19805  0.13480  0.94660  Biso   1.000  C
  H17      1.0000 0.69140  0.18690  0.48560  Biso   1.000  H
  H18      1.0000 0.19140  0.68690  0.48560  Biso   1.000  H
  H19      1.0000 0.30860  0.18690  0.01440  Biso   1.000  H
  H20      1.0000 0.80860  0.68690  0.01440  Biso   1.000  H
  H21      1.0000 0.30860  0.81310  0.51440  Biso   1.000  H
  H22      1.0000 0.80860  0.31310  0.51440  Biso   1.000  H
  H23      1.0000 0.69140  0.81310  0.98560  Biso   1.000  H
  H24      1.0000 0.19140  0.31310  0.98560  Biso   1.000  H
  H25      1.0000 0.71570  0.53840  0.48120  Biso   1.000  H
  H26      1.0000 0.21570  0.03840  0.48120  Biso   1.000  H
  H27      1.0000 0.28430  0.53840  0.01880  Biso   1.000  H
  H28      1.0000 0.78430  0.03840  0.01880  Biso   1.000  H
  H29      1.0000 0.28430  0.46160  0.51880  Biso   1.000  H
  H30      1.0000 0.78430  0.96160  0.51880  Biso   1.000  H
  H31      1.0000 0.71570  0.46160  0.98120  Biso   1.000  H
  H32      1.0000 0.21570  0.96160  0.98120  Biso   1.000  H
  H33      1.0000 0.71450  0.27180  0.40380  Biso   1.000  H
  H34      1.0000 0.21450  0.77180  0.40380  Biso   1.000  H
  H35      1.0000 0.28550  0.27180  0.09620  Biso   1.000  H
  H36      1.0000 0.78550  0.77180  0.09620  Biso   1.000  H
  H37      1.0000 0.28550  0.72820  0.59620  Biso   1.000  H
  H38      1.0000 0.78550  0.22820  0.59620  Biso   1.000  H
  H39      1.0000 0.71450  0.72820  0.90380  Biso   1.000  H
  H40      1.0000 0.21450  0.22820  0.90380  Biso   1.000  H
  H41      1.0000 0.72300  0.47780  0.42810  Biso   1.000  H
  H42      1.0000 0.22300  0.97780  0.42810  Biso   1.000  H
  H43      1.0000 0.27700  0.47780  0.07190  Biso   1.000  H
  H44      1.0000 0.77700  0.97780  0.07190  Biso   1.000  H
  H45      1.0000 0.27700  0.52220  0.57190  Biso   1.000  H
  H46      1.0000 0.77700  0.02220  0.57190  Biso   1.000  H
  H47      1.0000 0.72300  0.52220  0.92810  Biso   1.000  H
  H48      1.0000 0.22300  0.02220  0.92810  Biso   1.000  H
  H49      1.0000 0.69870  0.12630  0.43250  Biso   1.000  H
  H50      1.0000 0.19870  0.62630  0.43250  Biso   1.000  H
  H51      1.0000 0.30130  0.12630  0.06750  Biso   1.000  H
  H52      1.0000 0.80130  0.62630  0.06750  Biso   1.000  H
  H53      1.0000 0.30130  0.87370  0.56750  Biso   1.000  H
  H54      1.0000 0.80130  0.37370  0.56750  Biso   1.000  H
  H55      1.0000 0.69870  0.87370  0.93250  Biso   1.000  H
  H56      1.0000 0.19870  0.37370  0.93250  Biso   1.000  H
  H57      1.0000 0.69990  0.39300  0.50990  Biso   1.000  H
  H58      1.0000 0.19990  0.89300  0.50990  Biso   1.000  H
  H59      1.0000 0.30010  0.39300  0.99010  Biso   1.000  H
  H60      1.0000 0.80010  0.89300  0.99010  Biso   1.000  H
  H61      1.0000 0.30010  0.60700  0.49010  Biso   1.000  H
  H62      1.0000 0.80010  0.10700  0.49010  Biso   1.000  H
  H63      1.0000 0.69990  0.60700  0.00990  Biso   1.000  H
  H64      1.0000 0.19990  0.10700  0.00990  Biso   1.000  H
  C41      1.0000 0.61536  0.38820  0.52810  Biso   1.000  C
  C42      1.0000 0.11536  0.88820  0.52810  Biso   1.000  C
  C43      1.0000 0.38464  0.38820  0.97190  Biso   1.000  C
  C44      1.0000 0.88464  0.88820  0.97190  Biso   1.000  C
  C45      1.0000 0.38464  0.61180  0.47190  Biso   1.000  C
  C46      1.0000 0.88464  0.11180  0.47190  Biso   1.000  C
  C47      1.0000 0.61536  0.61180  0.02810  Biso   1.000  C
  C48      1.0000 0.11536  0.11180  0.02810  Biso   1.000  C
  H65      1.0000 0.63960  0.22910  0.54400  Biso   1.000  H
  H66      1.0000 0.13960  0.72910  0.54400  Biso   1.000  H
  H67      1.0000 0.36040  0.22910  0.95600  Biso   1.000  H
  H68      1.0000 0.86040  0.72910  0.95600  Biso   1.000  H
  H69      1.0000 0.36040  0.77090  0.45600  Biso   1.000  H
  H70      1.0000 0.86040  0.27090  0.45600  Biso   1.000  H
  H71      1.0000 0.63960  0.77090  0.04400  Biso   1.000  H
  H72      1.0000 0.13960  0.27090  0.04400  Biso   1.000  H
  H73      1.0000 0.58730  0.27320  0.52780  Biso   1.000  H
  H74      1.0000 0.08730  0.77320  0.52780  Biso   1.000  H
  H75      1.0000 0.41270  0.27320  0.97220  Biso   1.000  H
  H76      1.0000 0.91270  0.77320  0.97220  Biso   1.000  H
  H77      1.0000 0.41270  0.72680  0.47220  Biso   1.000  H
  H78      1.0000 0.91270  0.22680  0.47220  Biso   1.000  H
  H79      1.0000 0.58730  0.72680  0.02780  Biso   1.000  H
  H80      1.0000 0.08730  0.22680  0.02780  Biso   1.000  H
  H81      1.0000 0.61850  0.57060  0.57110  Biso   1.000  H
  H82      1.0000 0.11850  0.07060  0.57110  Biso   1.000  H
  H83      1.0000 0.38150  0.57060  0.92890  Biso   1.000  H
  H84      1.0000 0.88150  0.07060  0.92890  Biso   1.000  H
  H85      1.0000 0.38150  0.42940  0.42890  Biso   1.000  H
  H86      1.0000 0.88150  0.92940  0.42890  Biso   1.000  H
  H87      1.0000 0.61850  0.42940  0.07110  Biso   1.000  H
  H88      1.0000 0.11850  0.92940  0.07110  Biso   1.000  H
  H89      1.0000 0.59070  0.48610  0.55120  Biso   1.000  H
  H90      1.0000 0.09070  0.98610  0.55120  Biso   1.000  H
  H91      1.0000 0.40930  0.48610  0.94880  Biso   1.000  H
  H92      1.0000 0.90930  0.98610  0.94880  Biso   1.000  H
  H93      1.0000 0.40930  0.51390  0.44880  Biso   1.000  H
  H94      1.0000 0.90930  0.01390  0.44880  Biso   1.000  H
  H95      1.0000 0.59070  0.51390  0.05120  Biso   1.000  H
  H96      1.0000 0.09070  0.01390  0.05120  Biso   1.000  H
  H97      1.0000 0.64300  0.44210  0.56740  Biso   1.000  H
  H98      1.0000 0.14300  0.94210  0.56740  Biso   1.000  H
  H99      1.0000 0.35700  0.44210  0.93260  Biso   1.000  H
  H100     1.0000 0.85700  0.94210  0.93260  Biso   1.000  H
  H101     1.0000 0.35700  0.55790  0.43260  Biso   1.000  H
  H102     1.0000 0.85700  0.05790  0.43260  Biso   1.000  H
  H103     1.0000 0.64300  0.55790  0.06740  Biso   1.000  H
  H104     1.0000 0.14300  0.05790  0.06740  Biso   1.000  H
  H105     1.0000 0.61180  0.14470  0.52410  Biso   1.000  H
  H106     1.0000 0.11180  0.64470  0.52410  Biso   1.000  H
  H107     1.0000 0.38820  0.14470  0.97590  Biso   1.000  H
  H108     1.0000 0.88820  0.64470  0.97590  Biso   1.000  H
  H109     1.0000 0.38820  0.85530  0.47590  Biso   1.000  H
  H110     1.0000 0.88820  0.35530  0.47590  Biso   1.000  H
  H111     1.0000 0.61180  0.85530  0.02410  Biso   1.000  H
  H112     1.0000 0.11180  0.35530  0.02410  Biso   1.000  H
