data_image0
_cell_length_a       19.1059
_cell_length_b       7.1485
_cell_length_c       12.5575
_cell_angle_alpha    90
_cell_angle_beta     118.471
_cell_angle_gamma    90

_symmetry_space_group_name_H-M    "P 1"
_symmetry_int_tables_number       1

loop_
  _symmetry_equiv_pos_as_xyz
  'x, y, z'

loop_
  _atom_site_label
  _atom_site_occupancy
  _atom_site_fract_x
  _atom_site_fract_y
  _atom_site_fract_z
  _atom_site_thermal_displace_type
  _atom_site_B_iso_or_equiv
  _atom_site_type_symbol
  Cu1      1.0000 0.33456  0.34159  0.07962  Biso   1.000  Cu
  Cu2      1.0000 0.83456  0.84159  0.07962  Biso   1.000  Cu
  Cu3      1.0000 0.66544  0.34159  0.42038  Biso   1.000  Cu
  Cu4      1.0000 0.16544  0.84159  0.42038  Biso   1.000  Cu
  Cu5      1.0000 0.66544  0.65841  0.92038  Biso   1.000  Cu
  Cu6      1.0000 0.16544  0.15841  0.92038  Biso   1.000  Cu
  Cu7      1.0000 0.33456  0.65841  0.57962  Biso   1.000  Cu
  Cu8      1.0000 0.83456  0.15841  0.57962  Biso   1.000  Cu
  Cl1      1.0000 0.30286  0.02245  0.04269  Biso   1.000  Cl
  Cl2      1.0000 0.80286  0.52245  0.04269  Biso   1.000  Cl
  Cl3      1.0000 0.69714  0.02245  0.45731  Biso   1.000  Cl
  Cl4      1.0000 0.19714  0.52245  0.45731  Biso   1.000  Cl
  Cl5      1.0000 0.69714  0.97755  0.95731  Biso   1.000  Cl
  Cl6      1.0000 0.19714  0.47755  0.95731  Biso   1.000  Cl
  Cl7      1.0000 0.30286  0.97755  0.54269  Biso   1.000  Cl
  Cl8      1.0000 0.80286  0.47755  0.54269  Biso   1.000  Cl
  N1       1.0000 0.36081  0.43940  0.24329  Biso   1.000  N
  N2       1.0000 0.86081  0.93940  0.24329  Biso   1.000  N
  N3       1.0000 0.63919  0.43940  0.25671  Biso   1.000  N
  N4       1.0000 0.13919  0.93940  0.25671  Biso   1.000  N
  N5       1.0000 0.63919  0.56060  0.75671  Biso   1.000  N
  N6       1.0000 0.13919  0.06060  0.75671  Biso   1.000  N
  N7       1.0000 0.36081  0.56060  0.74329  Biso   1.000  N
  N8       1.0000 0.86081  0.06060  0.74329  Biso   1.000  N
  C1       1.0000 0.40000  0.34740  0.34906  Biso   1.000  C
  C2       1.0000 0.90000  0.84740  0.34906  Biso   1.000  C
  C3       1.0000 0.60000  0.34740  0.15094  Biso   1.000  C
  C4       1.0000 0.10000  0.84740  0.15094  Biso   1.000  C
  C5       1.0000 0.60000  0.65260  0.65094  Biso   1.000  C
  C6       1.0000 0.10000  0.15260  0.65094  Biso   1.000  C
  C7       1.0000 0.40000  0.65260  0.84906  Biso   1.000  C
  C8       1.0000 0.90000  0.15260  0.84906  Biso   1.000  C
  C9       1.0000 0.40399  0.42180  0.45635  Biso   1.000  C
  C10      1.0000 0.90399  0.92180  0.45635  Biso   1.000  C
  C11      1.0000 0.59601  0.42180  0.04365  Biso   1.000  C
  C12      1.0000 0.09601  0.92180  0.04365  Biso   1.000  C
  C13      1.0000 0.59601  0.57820  0.54365  Biso   1.000  C
  C14      1.0000 0.09601  0.07820  0.54365  Biso   1.000  C
  C15      1.0000 0.40399  0.57820  0.95635  Biso   1.000  C
  C16      1.0000 0.90399  0.07820  0.95635  Biso   1.000  C
  N9       1.0000 0.36809  0.58320  0.45464  Biso   1.000  N
  N10      1.0000 0.86809  0.08320  0.45464  Biso   1.000  N
  N11      1.0000 0.63191  0.58320  0.04536  Biso   1.000  N
  N12      1.0000 0.13191  0.08320  0.04536  Biso   1.000  N
  N13      1.0000 0.63191  0.41680  0.54536  Biso   1.000  N
  N14      1.0000 0.13191  0.91680  0.54536  Biso   1.000  N
  N15      1.0000 0.36809  0.41680  0.95464  Biso   1.000  N
  N16      1.0000 0.86809  0.91680  0.95464  Biso   1.000  N
  C17      1.0000 0.33129  0.67690  0.34841  Biso   1.000  C
  C18      1.0000 0.83129  0.17690  0.34841  Biso   1.000  C
  C19      1.0000 0.66871  0.67690  0.15159  Biso   1.000  C
  C20      1.0000 0.16871  0.17690  0.15159  Biso   1.000  C
  C21      1.0000 0.66871  0.32310  0.65159  Biso   1.000  C
  C22      1.0000 0.16871  0.82310  0.65159  Biso   1.000  C
  C23      1.0000 0.33129  0.32310  0.84841  Biso   1.000  C
  C24      1.0000 0.83129  0.82310  0.84841  Biso   1.000  C
  H1       1.0000 0.30700  0.79410  0.34560  Biso   1.000  H
  H2       1.0000 0.80700  0.29410  0.34560  Biso   1.000  H
  H3       1.0000 0.69300  0.79410  0.15440  Biso   1.000  H
  H4       1.0000 0.19300  0.29410  0.15440  Biso   1.000  H
  H5       1.0000 0.69300  0.20590  0.65440  Biso   1.000  H
  H6       1.0000 0.19300  0.70590  0.65440  Biso   1.000  H
  H7       1.0000 0.30700  0.20590  0.84560  Biso   1.000  H
  H8       1.0000 0.80700  0.70590  0.84560  Biso   1.000  H
  C25      1.0000 0.32816  0.60650  0.24441  Biso   1.000  C
  C26      1.0000 0.82816  0.10650  0.24441  Biso   1.000  C
  C27      1.0000 0.67184  0.60650  0.25559  Biso   1.000  C
  C28      1.0000 0.17184  0.10650  0.25559  Biso   1.000  C
  C29      1.0000 0.67184  0.39350  0.75559  Biso   1.000  C
  C30      1.0000 0.17184  0.89350  0.75559  Biso   1.000  C
  C31      1.0000 0.32816  0.39350  0.74441  Biso   1.000  C
  C32      1.0000 0.82816  0.89350  0.74441  Biso   1.000  C
  H9       1.0000 0.30240  0.67700  0.17160  Biso   1.000  H
  H10      1.0000 0.80240  0.17700  0.17160  Biso   1.000  H
  H11      1.0000 0.69760  0.67700  0.32840  Biso   1.000  H
  H12      1.0000 0.19760  0.17700  0.32840  Biso   1.000  H
  H13      1.0000 0.69760  0.32300  0.82840  Biso   1.000  H
  H14      1.0000 0.19760  0.82300  0.82840  Biso   1.000  H
  H15      1.0000 0.30240  0.32300  0.67160  Biso   1.000  H
  H16      1.0000 0.80240  0.82300  0.67160  Biso   1.000  H
  C33      1.0000 0.43854  0.16540  0.35048  Biso   1.000  C
  C34      1.0000 0.93854  0.66540  0.35048  Biso   1.000  C
  C35      1.0000 0.56146  0.16540  0.14952  Biso   1.000  C
  C36      1.0000 0.06146  0.66540  0.14952  Biso   1.000  C
  C37      1.0000 0.56146  0.83460  0.64952  Biso   1.000  C
  C38      1.0000 0.06146  0.33460  0.64952  Biso   1.000  C
  C39      1.0000 0.43854  0.83460  0.85048  Biso   1.000  C
  C40      1.0000 0.93854  0.33460  0.85048  Biso   1.000  C
  H17      1.0000 0.42250  0.12670  0.26710  Biso   1.000  H
  H18      1.0000 0.92250  0.62670  0.26710  Biso   1.000  H
  H19      1.0000 0.57750  0.12670  0.23290  Biso   1.000  H
  H20      1.0000 0.07750  0.62670  0.23290  Biso   1.000  H
  H21      1.0000 0.57750  0.87330  0.73290  Biso   1.000  H
  H22      1.0000 0.07750  0.37330  0.73290  Biso   1.000  H
  H23      1.0000 0.42250  0.87330  0.76710  Biso   1.000  H
  H24      1.0000 0.92250  0.37330  0.76710  Biso   1.000  H
  H25      1.0000 0.42190  0.07040  0.39000  Biso   1.000  H
  H26      1.0000 0.92190  0.57040  0.39000  Biso   1.000  H
  H27      1.0000 0.57810  0.07040  0.11000  Biso   1.000  H
  H28      1.0000 0.07810  0.57040  0.11000  Biso   1.000  H
  H29      1.0000 0.57810  0.92960  0.61000  Biso   1.000  H
  H30      1.0000 0.07810  0.42960  0.61000  Biso   1.000  H
  H31      1.0000 0.42190  0.92960  0.89000  Biso   1.000  H
  H32      1.0000 0.92190  0.42960  0.89000  Biso   1.000  H
  H33      1.0000 0.49650  0.17970  0.39520  Biso   1.000  H
  H34      1.0000 0.99650  0.67970  0.39520  Biso   1.000  H
  H35      1.0000 0.50350  0.17970  0.10480  Biso   1.000  H
  H36      1.0000 0.00350  0.67970  0.10480  Biso   1.000  H
  H37      1.0000 0.50350  0.82030  0.60480  Biso   1.000  H
  H38      1.0000 0.00350  0.32030  0.60480  Biso   1.000  H
  H39      1.0000 0.49650  0.82030  0.89520  Biso   1.000  H
  H40      1.0000 0.99650  0.32030  0.89520  Biso   1.000  H
  C41      1.0000 0.44785  0.32110  0.57509  Biso   1.000  C
  C42      1.0000 0.94785  0.82110  0.57509  Biso   1.000  C
  C43      1.0000 0.55215  0.32110  0.92491  Biso   1.000  C
  C44      1.0000 0.05215  0.82110  0.92491  Biso   1.000  C
  C45      1.0000 0.55215  0.67890  0.42491  Biso   1.000  C
  C46      1.0000 0.05215  0.17890  0.42491  Biso   1.000  C
  C47      1.0000 0.44785  0.67890  0.07509  Biso   1.000  C
  C48      1.0000 0.94785  0.17890  0.07509  Biso   1.000  C
  H41      1.0000 0.45490  0.40520  0.64110  Biso   1.000  H
  H42      1.0000 0.95490  0.90520  0.64110  Biso   1.000  H
  H43      1.0000 0.54510  0.40520  0.85890  Biso   1.000  H
  H44      1.0000 0.04510  0.90520  0.85890  Biso   1.000  H
  H45      1.0000 0.54510  0.59480  0.35890  Biso   1.000  H
  H46      1.0000 0.04510  0.09480  0.35890  Biso   1.000  H
  H47      1.0000 0.45490  0.59480  0.14110  Biso   1.000  H
  H48      1.0000 0.95490  0.09480  0.14110  Biso   1.000  H
  H49      1.0000 0.50010  0.28130  0.58660  Biso   1.000  H
  H50      1.0000 0.00010  0.78130  0.58660  Biso   1.000  H
  H51      1.0000 0.49990  0.28130  0.91340  Biso   1.000  H
  H52      1.0000 0.99990  0.78130  0.91340  Biso   1.000  H
  H53      1.0000 0.49990  0.71870  0.41340  Biso   1.000  H
  H54      1.0000 0.99990  0.21870  0.41340  Biso   1.000  H
  H55      1.0000 0.50010  0.71870  0.08660  Biso   1.000  H
  H56      1.0000 0.00010  0.21870  0.08660  Biso   1.000  H
  H57      1.0000 0.41720  0.21120  0.57500  Biso   1.000  H
  H58      1.0000 0.91720  0.71120  0.57500  Biso   1.000  H
  H59      1.0000 0.58280  0.21120  0.92500  Biso   1.000  H
  H60      1.0000 0.08280  0.71120  0.92500  Biso   1.000  H
  H61      1.0000 0.58280  0.78880  0.42500  Biso   1.000  H
  H62      1.0000 0.08280  0.28880  0.42500  Biso   1.000  H
  H63      1.0000 0.41720  0.78880  0.07500  Biso   1.000  H
  H64      1.0000 0.91720  0.28880  0.07500  Biso   1.000  H
