data_image0
_cell_length_a       11.5876
_cell_length_b       9.4479
_cell_length_c       13.1804
_cell_angle_alpha    90
_cell_angle_beta     90
_cell_angle_gamma    90

_symmetry_space_group_name_H-M    "P 1"
_symmetry_int_tables_number       1

loop_
  _symmetry_equiv_pos_as_xyz
  'x, y, z'

loop_
  _atom_site_label
  _atom_site_occupancy
  _atom_site_fract_x
  _atom_site_fract_y
  _atom_site_fract_z
  _atom_site_thermal_displace_type
  _atom_site_B_iso_or_equiv
  _atom_site_type_symbol
  Cu1      1.0000 0.46879  0.57969  0.60783  Biso   1.000  Cu
  Cu2      1.0000 0.03121  0.42031  0.10783  Biso   1.000  Cu
  Cu3      1.0000 0.53121  0.07969  0.89217  Biso   1.000  Cu
  Cu4      1.0000 0.96879  0.92031  0.39217  Biso   1.000  Cu
  Cu5      1.0000 0.53121  0.42031  0.39217  Biso   1.000  Cu
  Cu6      1.0000 0.96879  0.57969  0.89217  Biso   1.000  Cu
  Cu7      1.0000 0.46879  0.92031  0.10783  Biso   1.000  Cu
  Cu8      1.0000 0.03121  0.07969  0.60783  Biso   1.000  Cu
  Cl1      1.0000 0.50784  0.67706  0.44812  Biso   1.000  Cl
  Cl2      1.0000 0.99216  0.32294  0.94812  Biso   1.000  Cl
  Cl3      1.0000 0.49216  0.17706  0.05188  Biso   1.000  Cl
  Cl4      1.0000 0.00784  0.82294  0.55188  Biso   1.000  Cl
  Cl5      1.0000 0.49216  0.32294  0.55188  Biso   1.000  Cl
  Cl6      1.0000 0.00784  0.67706  0.05188  Biso   1.000  Cl
  Cl7      1.0000 0.50784  0.82294  0.94812  Biso   1.000  Cl
  Cl8      1.0000 0.99216  0.17706  0.44812  Biso   1.000  Cl
  N1       1.0000 0.60751  0.60400  0.70704  Biso   1.000  N
  N2       1.0000 0.89249  0.39600  0.20704  Biso   1.000  N
  N3       1.0000 0.39249  0.10400  0.79296  Biso   1.000  N
  N4       1.0000 0.10751  0.89600  0.29296  Biso   1.000  N
  N5       1.0000 0.39249  0.39600  0.29296  Biso   1.000  N
  N6       1.0000 0.10751  0.60400  0.79296  Biso   1.000  N
  N7       1.0000 0.60751  0.89600  0.20704  Biso   1.000  N
  N8       1.0000 0.89249  0.10400  0.70704  Biso   1.000  N
  C1       1.0000 0.61404  0.53780  0.79700  Biso   1.000  C
  C2       1.0000 0.88596  0.46220  0.29700  Biso   1.000  C
  C3       1.0000 0.38596  0.03780  0.70300  Biso   1.000  C
  C4       1.0000 0.11404  0.96220  0.20300  Biso   1.000  C
  C5       1.0000 0.38596  0.46220  0.20300  Biso   1.000  C
  C6       1.0000 0.11404  0.53780  0.70300  Biso   1.000  C
  C7       1.0000 0.61404  0.96220  0.29700  Biso   1.000  C
  C8       1.0000 0.88596  0.03780  0.79700  Biso   1.000  C
  C9       1.0000 0.71421  0.54710  0.85784  Biso   1.000  C
  C10      1.0000 0.78579  0.45290  0.35784  Biso   1.000  C
  C11      1.0000 0.28579  0.04710  0.64216  Biso   1.000  C
  C12      1.0000 0.21421  0.95290  0.14216  Biso   1.000  C
  C13      1.0000 0.28579  0.45290  0.14216  Biso   1.000  C
  C14      1.0000 0.21421  0.54710  0.64216  Biso   1.000  C
  C15      1.0000 0.71421  0.95290  0.35784  Biso   1.000  C
  C16      1.0000 0.78579  0.04710  0.85784  Biso   1.000  C
  N9       1.0000 0.80894  0.61500  0.82491  Biso   1.000  N
  N10      1.0000 0.69106  0.38500  0.32491  Biso   1.000  N
  N11      1.0000 0.19106  0.11500  0.67509  Biso   1.000  N
  N12      1.0000 0.30894  0.88500  0.17509  Biso   1.000  N
  N13      1.0000 0.19106  0.38500  0.17509  Biso   1.000  N
  N14      1.0000 0.30894  0.61500  0.67509  Biso   1.000  N
  N15      1.0000 0.80894  0.88500  0.32491  Biso   1.000  N
  N16      1.0000 0.69106  0.11500  0.82491  Biso   1.000  N
  C17      1.0000 0.80034  0.68310  0.73506  Biso   1.000  C
  C18      1.0000 0.69966  0.31690  0.23506  Biso   1.000  C
  C19      1.0000 0.19966  0.18310  0.76494  Biso   1.000  C
  C20      1.0000 0.30034  0.81690  0.26494  Biso   1.000  C
  C21      1.0000 0.19966  0.31690  0.26494  Biso   1.000  C
  C22      1.0000 0.30034  0.68310  0.76494  Biso   1.000  C
  C23      1.0000 0.80034  0.81690  0.23506  Biso   1.000  C
  C24      1.0000 0.69966  0.18310  0.73506  Biso   1.000  C
  H1       1.0000 0.86350  0.73350  0.71090  Biso   1.000  H
  H2       1.0000 0.63650  0.26650  0.21090  Biso   1.000  H
  H3       1.0000 0.13650  0.23350  0.78910  Biso   1.000  H
  H4       1.0000 0.36350  0.76650  0.28910  Biso   1.000  H
  H5       1.0000 0.13650  0.26650  0.28910  Biso   1.000  H
  H6       1.0000 0.36350  0.73350  0.78910  Biso   1.000  H
  H7       1.0000 0.86350  0.76650  0.21090  Biso   1.000  H
  H8       1.0000 0.63650  0.23350  0.71090  Biso   1.000  H
  C25      1.0000 0.70060  0.67980  0.67832  Biso   1.000  C
  C26      1.0000 0.79940  0.32020  0.17832  Biso   1.000  C
  C27      1.0000 0.29940  0.17980  0.82168  Biso   1.000  C
  C28      1.0000 0.20060  0.82020  0.32168  Biso   1.000  C
  C29      1.0000 0.29940  0.32020  0.32168  Biso   1.000  C
  C30      1.0000 0.20060  0.67980  0.82168  Biso   1.000  C
  C31      1.0000 0.70060  0.82020  0.17832  Biso   1.000  C
  C32      1.0000 0.79940  0.17980  0.67832  Biso   1.000  C
  H9       1.0000 0.69730  0.73150  0.61830  Biso   1.000  H
  H10      1.0000 0.80270  0.26850  0.11830  Biso   1.000  H
  H11      1.0000 0.30270  0.23150  0.88170  Biso   1.000  H
  H12      1.0000 0.19730  0.76850  0.38170  Biso   1.000  H
  H13      1.0000 0.30270  0.26850  0.38170  Biso   1.000  H
  H14      1.0000 0.19730  0.73150  0.88170  Biso   1.000  H
  H15      1.0000 0.69730  0.76850  0.11830  Biso   1.000  H
  H16      1.0000 0.80270  0.23150  0.61830  Biso   1.000  H
  C33      1.0000 0.51178  0.45380  0.83094  Biso   1.000  C
  C34      1.0000 0.98822  0.54620  0.33094  Biso   1.000  C
  C35      1.0000 0.48822  0.95380  0.66906  Biso   1.000  C
  C36      1.0000 0.01178  0.04620  0.16906  Biso   1.000  C
  C37      1.0000 0.48822  0.54620  0.16906  Biso   1.000  C
  C38      1.0000 0.01178  0.45380  0.66906  Biso   1.000  C
  C39      1.0000 0.51178  0.04620  0.33094  Biso   1.000  C
  C40      1.0000 0.98822  0.95380  0.83094  Biso   1.000  C
  H17      1.0000 0.46470  0.51080  0.87480  Biso   1.000  H
  H18      1.0000 0.03530  0.48920  0.37480  Biso   1.000  H
  H19      1.0000 0.53530  0.01080  0.62520  Biso   1.000  H
  H20      1.0000 0.96470  0.98920  0.12520  Biso   1.000  H
  H21      1.0000 0.53530  0.48920  0.12520  Biso   1.000  H
  H22      1.0000 0.96470  0.51080  0.62520  Biso   1.000  H
  H23      1.0000 0.46470  0.98920  0.37480  Biso   1.000  H
  H24      1.0000 0.03530  0.01080  0.87480  Biso   1.000  H
  H25      1.0000 0.53750  0.37140  0.86700  Biso   1.000  H
  H26      1.0000 0.96250  0.62860  0.36700  Biso   1.000  H
  H27      1.0000 0.46250  0.87140  0.63300  Biso   1.000  H
  H28      1.0000 0.03750  0.12860  0.13300  Biso   1.000  H
  H29      1.0000 0.46250  0.62860  0.13300  Biso   1.000  H
  H30      1.0000 0.03750  0.37140  0.63300  Biso   1.000  H
  H31      1.0000 0.53750  0.12860  0.36700  Biso   1.000  H
  H32      1.0000 0.96250  0.87140  0.86700  Biso   1.000  H
  H33      1.0000 0.46750  0.42540  0.77280  Biso   1.000  H
  H34      1.0000 0.03250  0.57460  0.27280  Biso   1.000  H
  H35      1.0000 0.53250  0.92540  0.72720  Biso   1.000  H
  H36      1.0000 0.96750  0.07460  0.22720  Biso   1.000  H
  H37      1.0000 0.53250  0.57460  0.22720  Biso   1.000  H
  H38      1.0000 0.96750  0.42540  0.72720  Biso   1.000  H
  H39      1.0000 0.46750  0.07460  0.27280  Biso   1.000  H
  H40      1.0000 0.03250  0.92540  0.77280  Biso   1.000  H
  C41      1.0000 0.71760  0.48300  0.96152  Biso   1.000  C
  C42      1.0000 0.78240  0.51700  0.46152  Biso   1.000  C
  C43      1.0000 0.28240  0.98300  0.53848  Biso   1.000  C
  C44      1.0000 0.21760  0.01700  0.03848  Biso   1.000  C
  C45      1.0000 0.28240  0.51700  0.03848  Biso   1.000  C
  C46      1.0000 0.21760  0.48300  0.53848  Biso   1.000  C
  C47      1.0000 0.71760  0.01700  0.46152  Biso   1.000  C
  C48      1.0000 0.78240  0.98300  0.96152  Biso   1.000  C
  H41      1.0000 0.78620  0.51350  0.99600  Biso   1.000  H
  H42      1.0000 0.71380  0.48650  0.49600  Biso   1.000  H
  H43      1.0000 0.21380  0.01350  0.50400  Biso   1.000  H
  H44      1.0000 0.28620  0.98650  0.00400  Biso   1.000  H
  H45      1.0000 0.21380  0.48650  0.00400  Biso   1.000  H
  H46      1.0000 0.28620  0.51350  0.50400  Biso   1.000  H
  H47      1.0000 0.78620  0.98650  0.49600  Biso   1.000  H
  H48      1.0000 0.71380  0.01350  0.99600  Biso   1.000  H
  H49      1.0000 0.71780  0.38170  0.95590  Biso   1.000  H
  H50      1.0000 0.78220  0.61830  0.45590  Biso   1.000  H
  H51      1.0000 0.28220  0.88170  0.54410  Biso   1.000  H
  H52      1.0000 0.21780  0.11830  0.04410  Biso   1.000  H
  H53      1.0000 0.28220  0.61830  0.04410  Biso   1.000  H
  H54      1.0000 0.21780  0.38170  0.54410  Biso   1.000  H
  H55      1.0000 0.71780  0.11830  0.45590  Biso   1.000  H
  H56      1.0000 0.78220  0.88170  0.95590  Biso   1.000  H
  H57      1.0000 0.65100  0.51270  0.99920  Biso   1.000  H
  H58      1.0000 0.84900  0.48730  0.49920  Biso   1.000  H
  H59      1.0000 0.34900  0.01270  0.50080  Biso   1.000  H
  H60      1.0000 0.15100  0.98730  0.00080  Biso   1.000  H
  H61      1.0000 0.34900  0.48730  0.00080  Biso   1.000  H
  H62      1.0000 0.15100  0.51270  0.50080  Biso   1.000  H
  H63      1.0000 0.65100  0.98730  0.49920  Biso   1.000  H
  H64      1.0000 0.84900  0.01270  0.99920  Biso   1.000  H
