data_image0
_cell_length_a       17.999
_cell_length_b       8.518
_cell_length_c       10.203
_cell_angle_alpha    90
_cell_angle_beta     90
_cell_angle_gamma    90

_symmetry_space_group_name_H-M    "P 1"
_symmetry_int_tables_number       1

loop_
  _symmetry_equiv_pos_as_xyz
  'x, y, z'

loop_
  _atom_site_label
  _atom_site_occupancy
  _atom_site_fract_x
  _atom_site_fract_y
  _atom_site_fract_z
  _atom_site_thermal_displace_type
  _atom_site_B_iso_or_equiv
  _atom_site_type_symbol
  Cu1      1.0000 0.31037  0.38661  0.82109  Biso   1.000  Cu
  Cu2      1.0000 0.18963  0.61339  0.82109  Biso   1.000  Cu
  Cu3      1.0000 0.68963  0.38661  0.67891  Biso   1.000  Cu
  Cu4      1.0000 0.81037  0.61339  0.67891  Biso   1.000  Cu
  Cu5      1.0000 0.68963  0.61339  0.17891  Biso   1.000  Cu
  Cu6      1.0000 0.81037  0.38661  0.17891  Biso   1.000  Cu
  Cu7      1.0000 0.31037  0.61339  0.32109  Biso   1.000  Cu
  Cu8      1.0000 0.18963  0.38661  0.32109  Biso   1.000  Cu
  S1       1.0000 0.00000  0.02630  0.25000  Biso   1.000  S
  S2       1.0000 0.50000  0.97370  0.25000  Biso   1.000  S
  S3       1.0000 0.00000  0.97370  0.75000  Biso   1.000  S
  S4       1.0000 0.50000  0.02630  0.75000  Biso   1.000  S
  S5       1.0000 0.32151  0.66670  0.86337  Biso   1.000  S
  S6       1.0000 0.17849  0.33330  0.86337  Biso   1.000  S
  S7       1.0000 0.67849  0.66670  0.63663  Biso   1.000  S
  S8       1.0000 0.82151  0.33330  0.63663  Biso   1.000  S
  S9       1.0000 0.67849  0.33330  0.13663  Biso   1.000  S
  S10      1.0000 0.82151  0.66670  0.13663  Biso   1.000  S
  S11      1.0000 0.32151  0.33330  0.36337  Biso   1.000  S
  S12      1.0000 0.17849  0.66670  0.36337  Biso   1.000  S
  N1       1.0000 0.13320  0.72880  0.96250  Biso   1.000  N
  N2       1.0000 0.36680  0.27120  0.96250  Biso   1.000  N
  N3       1.0000 0.86680  0.72880  0.53750  Biso   1.000  N
  N4       1.0000 0.63320  0.27120  0.53750  Biso   1.000  N
  N5       1.0000 0.86680  0.27120  0.03750  Biso   1.000  N
  N6       1.0000 0.63320  0.72880  0.03750  Biso   1.000  N
  N7       1.0000 0.13320  0.27120  0.46250  Biso   1.000  N
  N8       1.0000 0.36680  0.72880  0.46250  Biso   1.000  N
  N9       1.0000 0.32470  0.64830  0.13740  Biso   1.000  N
  N10      1.0000 0.17530  0.35170  0.13740  Biso   1.000  N
  N11      1.0000 0.67530  0.64830  0.36260  Biso   1.000  N
  N12      1.0000 0.82470  0.35170  0.36260  Biso   1.000  N
  N13      1.0000 0.67530  0.35170  0.86260  Biso   1.000  N
  N14      1.0000 0.82470  0.64830  0.86260  Biso   1.000  N
  N15      1.0000 0.32470  0.35170  0.63740  Biso   1.000  N
  N16      1.0000 0.17530  0.64830  0.63740  Biso   1.000  N
  C1       1.0000 0.15680  0.86320  0.00980  Biso   1.000  C
  C2       1.0000 0.34320  0.13680  0.00980  Biso   1.000  C
  C3       1.0000 0.84320  0.86320  0.49020  Biso   1.000  C
  C4       1.0000 0.65680  0.13680  0.49020  Biso   1.000  C
  C5       1.0000 0.84320  0.13680  0.99020  Biso   1.000  C
  C6       1.0000 0.65680  0.86320  0.99020  Biso   1.000  C
  C7       1.0000 0.15680  0.13680  0.50980  Biso   1.000  C
  C8       1.0000 0.34320  0.86320  0.50980  Biso   1.000  C
  H1       1.0000 0.20240  0.90070  0.98040  Biso   1.000  H
  H2       1.0000 0.29760  0.09930  0.98040  Biso   1.000  H
  H3       1.0000 0.79760  0.90070  0.51960  Biso   1.000  H
  H4       1.0000 0.70240  0.09930  0.51960  Biso   1.000  H
  H5       1.0000 0.79760  0.09930  0.01960  Biso   1.000  H
  H6       1.0000 0.70240  0.90070  0.01960  Biso   1.000  H
  H7       1.0000 0.20240  0.09930  0.48040  Biso   1.000  H
  H8       1.0000 0.29760  0.90070  0.48040  Biso   1.000  H
  C9       1.0000 0.11840  0.95240  0.10020  Biso   1.000  C
  C10      1.0000 0.38160  0.04760  0.10020  Biso   1.000  C
  C11      1.0000 0.88160  0.95240  0.39980  Biso   1.000  C
  C12      1.0000 0.61840  0.04760  0.39980  Biso   1.000  C
  C13      1.0000 0.88160  0.04760  0.89980  Biso   1.000  C
  C14      1.0000 0.61840  0.95240  0.89980  Biso   1.000  C
  C15      1.0000 0.11840  0.04760  0.60020  Biso   1.000  C
  C16      1.0000 0.38160  0.95240  0.60020  Biso   1.000  C
  H9       1.0000 0.13810  0.04630  0.13110  Biso   1.000  H
  H10      1.0000 0.36190  0.95370  0.13110  Biso   1.000  H
  H11      1.0000 0.86190  0.04630  0.36890  Biso   1.000  H
  H12      1.0000 0.63810  0.95370  0.36890  Biso   1.000  H
  H13      1.0000 0.86190  0.95370  0.86890  Biso   1.000  H
  H14      1.0000 0.63810  0.04630  0.86890  Biso   1.000  H
  H15      1.0000 0.13810  0.95370  0.63110  Biso   1.000  H
  H16      1.0000 0.36190  0.04630  0.63110  Biso   1.000  H
  C17      1.0000 0.05090  0.89980  0.14350  Biso   1.000  C
  C18      1.0000 0.44910  0.10020  0.14350  Biso   1.000  C
  C19      1.0000 0.94910  0.89980  0.35650  Biso   1.000  C
  C20      1.0000 0.55090  0.10020  0.35650  Biso   1.000  C
  C21      1.0000 0.94910  0.10020  0.85650  Biso   1.000  C
  C22      1.0000 0.55090  0.89980  0.85650  Biso   1.000  C
  C23      1.0000 0.05090  0.10020  0.64350  Biso   1.000  C
  C24      1.0000 0.44910  0.89980  0.64350  Biso   1.000  C
  C25      1.0000 0.97500  0.76130  0.40470  Biso   1.000  C
  C26      1.0000 0.52500  0.23870  0.40470  Biso   1.000  C
  C27      1.0000 0.02500  0.76130  0.09530  Biso   1.000  C
  C28      1.0000 0.47500  0.23870  0.09530  Biso   1.000  C
  C29      1.0000 0.02500  0.23870  0.59530  Biso   1.000  C
  C30      1.0000 0.47500  0.76130  0.59530  Biso   1.000  C
  C31      1.0000 0.97500  0.23870  0.90470  Biso   1.000  C
  C32      1.0000 0.52500  0.76130  0.90470  Biso   1.000  C
  H17      1.0000 0.02030  0.72050  0.37690  Biso   1.000  H
  H18      1.0000 0.47970  0.27950  0.37690  Biso   1.000  H
  H19      1.0000 0.97970  0.72050  0.12310  Biso   1.000  H
  H20      1.0000 0.52030  0.27950  0.12310  Biso   1.000  H
  H21      1.0000 0.97970  0.27950  0.62310  Biso   1.000  H
  H22      1.0000 0.52030  0.72050  0.62310  Biso   1.000  H
  H23      1.0000 0.02030  0.27950  0.87690  Biso   1.000  H
  H24      1.0000 0.47970  0.72050  0.87690  Biso   1.000  H
  C33      1.0000 0.93260  0.68360  0.49550  Biso   1.000  C
  C34      1.0000 0.56740  0.31640  0.49550  Biso   1.000  C
  C35      1.0000 0.06740  0.68360  0.00450  Biso   1.000  C
  C36      1.0000 0.43260  0.31640  0.00450  Biso   1.000  C
  C37      1.0000 0.06740  0.31640  0.50450  Biso   1.000  C
  C38      1.0000 0.43260  0.68360  0.50450  Biso   1.000  C
  C39      1.0000 0.93260  0.31640  0.99550  Biso   1.000  C
  C40      1.0000 0.56740  0.68360  0.99550  Biso   1.000  C
  H25      1.0000 0.95190  0.59130  0.53030  Biso   1.000  H
  H26      1.0000 0.54810  0.40870  0.53030  Biso   1.000  H
  H27      1.0000 0.04810  0.59130  0.96970  Biso   1.000  H
  H28      1.0000 0.45190  0.40870  0.96970  Biso   1.000  H
  H29      1.0000 0.04810  0.40870  0.46970  Biso   1.000  H
  H30      1.0000 0.45190  0.59130  0.46970  Biso   1.000  H
  H31      1.0000 0.95190  0.40870  0.03030  Biso   1.000  H
  H32      1.0000 0.54810  0.59130  0.03030  Biso   1.000  H
  C41      1.0000 0.32310  0.65650  0.02520  Biso   1.000  C
  C42      1.0000 0.17690  0.34350  0.02520  Biso   1.000  C
  C43      1.0000 0.67690  0.65650  0.47480  Biso   1.000  C
  C44      1.0000 0.82310  0.34350  0.47480  Biso   1.000  C
  C45      1.0000 0.67690  0.34350  0.97480  Biso   1.000  C
  C46      1.0000 0.82310  0.65650  0.97480  Biso   1.000  C
  C47      1.0000 0.32310  0.34350  0.52520  Biso   1.000  C
  C48      1.0000 0.17690  0.65650  0.52520  Biso   1.000  C
