data_image0
_cell_length_a       9.2011
_cell_length_b       5.7246
_cell_length_c       14.876
_cell_angle_alpha    90
_cell_angle_beta     104.855
_cell_angle_gamma    90

_symmetry_space_group_name_H-M    "P 1"
_symmetry_int_tables_number       1

loop_
  _symmetry_equiv_pos_as_xyz
  'x, y, z'

loop_
  _atom_site_label
  _atom_site_occupancy
  _atom_site_fract_x
  _atom_site_fract_y
  _atom_site_fract_z
  _atom_site_thermal_displace_type
  _atom_site_B_iso_or_equiv
  _atom_site_type_symbol
  Cu1      1.0000 0.62997  0.38965  0.48409  Biso   1.000  Cu
  Cu2      1.0000 0.37003  0.38965  0.01591  Biso   1.000  Cu
  Cu3      1.0000 0.37003  0.61035  0.51591  Biso   1.000  Cu
  Cu4      1.0000 0.62997  0.61035  0.98409  Biso   1.000  Cu
  S1       1.0000 0.00000  0.02050  0.25000  Biso   1.000  S
  S2       1.0000 0.00000  0.97950  0.75000  Biso   1.000  S
  S3       1.0000 0.63310  0.64650  0.61374  Biso   1.000  S
  S4       1.0000 0.36690  0.64650  0.88626  Biso   1.000  S
  S5       1.0000 0.36690  0.35350  0.38626  Biso   1.000  S
  S6       1.0000 0.63310  0.35350  0.11374  Biso   1.000  S
  N1       1.0000 0.73390  0.55600  0.39870  Biso   1.000  N
  N2       1.0000 0.26610  0.55600  0.10130  Biso   1.000  N
  N3       1.0000 0.26610  0.44400  0.60130  Biso   1.000  N
  N4       1.0000 0.73390  0.44400  0.89870  Biso   1.000  N
  N5       1.0000 0.67830  0.08490  0.54210  Biso   1.000  N
  N6       1.0000 0.32170  0.08490  0.95790  Biso   1.000  N
  N7       1.0000 0.32170  0.91510  0.45790  Biso   1.000  N
  N8       1.0000 0.67830  0.91510  0.04210  Biso   1.000  N
  C1       1.0000 0.67800  0.75440  0.35620  Biso   1.000  C
  C2       1.0000 0.32200  0.75440  0.14380  Biso   1.000  C
  C3       1.0000 0.32200  0.24560  0.64380  Biso   1.000  C
  C4       1.0000 0.67800  0.24560  0.85620  Biso   1.000  C
  H1       1.0000 0.58300  0.80230  0.35960  Biso   1.000  H
  H2       1.0000 0.41700  0.80230  0.14040  Biso   1.000  H
  H3       1.0000 0.41700  0.19770  0.64040  Biso   1.000  H
  H4       1.0000 0.58300  0.19770  0.85960  Biso   1.000  H
  C5       1.0000 0.75550  0.89200  0.30720  Biso   1.000  C
  C6       1.0000 0.24450  0.89200  0.19280  Biso   1.000  C
  C7       1.0000 0.24450  0.10800  0.69280  Biso   1.000  C
  C8       1.0000 0.75550  0.10800  0.80720  Biso   1.000  C
  H5       1.0000 0.71150  0.02750  0.27790  Biso   1.000  H
  H6       1.0000 0.28850  0.02750  0.22210  Biso   1.000  H
  H7       1.0000 0.28850  0.97250  0.72210  Biso   1.000  H
  H8       1.0000 0.71150  0.97250  0.77790  Biso   1.000  H
  C9       1.0000 0.89570  0.82920  0.30180  Biso   1.000  C
  C10      1.0000 0.10430  0.82920  0.19820  Biso   1.000  C
  C11      1.0000 0.10430  0.17080  0.69820  Biso   1.000  C
  C12      1.0000 0.89570  0.17080  0.80180  Biso   1.000  C
  C13      1.0000 0.95490  0.62280  0.34620  Biso   1.000  C
  C14      1.0000 0.04510  0.62280  0.15380  Biso   1.000  C
  C15      1.0000 0.04510  0.37720  0.65380  Biso   1.000  C
  C16      1.0000 0.95490  0.37720  0.84620  Biso   1.000  C
  H9       1.0000 0.05050  0.57330  0.34460  Biso   1.000  H
  H10      1.0000 0.94950  0.57330  0.15540  Biso   1.000  H
  H11      1.0000 0.94950  0.42670  0.65540  Biso   1.000  H
  H12      1.0000 0.05050  0.42670  0.84460  Biso   1.000  H
  C17      1.0000 0.87160  0.49420  0.39200  Biso   1.000  C
  C18      1.0000 0.12840  0.49420  0.10800  Biso   1.000  C
  C19      1.0000 0.12840  0.50580  0.60800  Biso   1.000  C
  C20      1.0000 0.87160  0.50580  0.89200  Biso   1.000  C
  H13      1.0000 0.91250  0.35570  0.42020  Biso   1.000  H
  H14      1.0000 0.08750  0.35570  0.07980  Biso   1.000  H
  H15      1.0000 0.08750  0.64430  0.57980  Biso   1.000  H
  H16      1.0000 0.91250  0.64430  0.92020  Biso   1.000  H
  C21      1.0000 0.66250  0.90570  0.57260  Biso   1.000  C
  C22      1.0000 0.33750  0.90570  0.92740  Biso   1.000  C
  C23      1.0000 0.33750  0.09430  0.42740  Biso   1.000  C
  C24      1.0000 0.66250  0.09430  0.07260  Biso   1.000  C
