data_image0
_cell_length_a       14.46
_cell_length_b       16.164
_cell_length_c       26.379
_cell_angle_alpha    90
_cell_angle_beta     100.861
_cell_angle_gamma    90

_symmetry_space_group_name_H-M    "P 1"
_symmetry_int_tables_number       1

loop_
  _symmetry_equiv_pos_as_xyz
  'x, y, z'

loop_
  _atom_site_label
  _atom_site_occupancy
  _atom_site_fract_x
  _atom_site_fract_y
  _atom_site_fract_z
  _atom_site_thermal_displace_type
  _atom_site_B_iso_or_equiv
  _atom_site_type_symbol
  Cu1      1.0000 0.35219  0.27393  0.58980  Biso   1.000  Cu
  Cu2      1.0000 0.14781  0.77393  0.91020  Biso   1.000  Cu
  Cu3      1.0000 0.64781  0.72607  0.41020  Biso   1.000  Cu
  Cu4      1.0000 0.85219  0.22607  0.08980  Biso   1.000  Cu
  Cu5      1.0000 0.45657  0.26031  0.67924  Biso   1.000  Cu
  Cu6      1.0000 0.04343  0.76031  0.82076  Biso   1.000  Cu
  Cu7      1.0000 0.54343  0.73969  0.32076  Biso   1.000  Cu
  Cu8      1.0000 0.95657  0.23969  0.17924  Biso   1.000  Cu
  P1       1.0000 0.49595  0.34331  0.61432  Biso   1.000  P
  P2       1.0000 0.00405  0.84331  0.88568  Biso   1.000  P
  P3       1.0000 0.50405  0.65669  0.38568  Biso   1.000  P
  P4       1.0000 0.99595  0.15669  0.11432  Biso   1.000  P
  P5       1.0000 0.37695  0.13929  0.57416  Biso   1.000  P
  P6       1.0000 0.12305  0.63929  0.92584  Biso   1.000  P
  P7       1.0000 0.62305  0.86071  0.42584  Biso   1.000  P
  P8       1.0000 0.87695  0.36071  0.07416  Biso   1.000  P
  N1       1.0000 0.33060  0.35310  0.52754  Biso   1.000  N
  N2       1.0000 0.16940  0.85310  0.97246  Biso   1.000  N
  N3       1.0000 0.66940  0.64690  0.47246  Biso   1.000  N
  N4       1.0000 0.83060  0.14690  0.02754  Biso   1.000  N
  N5       1.0000 0.59940  0.24830  0.70427  Biso   1.000  N
  N6       1.0000 0.90060  0.74830  0.79573  Biso   1.000  N
  N7       1.0000 0.40060  0.75170  0.29573  Biso   1.000  N
  N8       1.0000 0.09940  0.25170  0.20427  Biso   1.000  N
  N9       1.0000 0.39100  0.15970  0.70191  Biso   1.000  N
  N10      1.0000 0.10900  0.65970  0.79809  Biso   1.000  N
  N11      1.0000 0.60900  0.84030  0.29809  Biso   1.000  N
  N12      1.0000 0.89100  0.34030  0.20191  Biso   1.000  N
  N13      1.0000 0.38300  0.18880  0.47154  Biso   1.000  N
  N14      1.0000 0.11700  0.68880  0.02846  Biso   1.000  N
  N15      1.0000 0.61700  0.81120  0.52846  Biso   1.000  N
  N16      1.0000 0.88300  0.31120  0.97154  Biso   1.000  N
  N17      1.0000 0.24140  0.29450  0.62226  Biso   1.000  N
  N18      1.0000 0.25860  0.79450  0.87774  Biso   1.000  N
  N19      1.0000 0.75860  0.70550  0.37774  Biso   1.000  N
  N20      1.0000 0.74140  0.20550  0.12226  Biso   1.000  N
  N21      1.0000 0.07640  0.84790  0.76997  Biso   1.000  N
  N22      1.0000 0.42360  0.34790  0.73003  Biso   1.000  N
  N23      1.0000 0.92360  0.15210  0.23003  Biso   1.000  N
  N24      1.0000 0.57640  0.65210  0.26997  Biso   1.000  N
  C1       1.0000 0.49790  0.36190  0.54596  Biso   1.000  C
  C2       1.0000 0.00210  0.86190  0.95404  Biso   1.000  C
  C3       1.0000 0.50210  0.63810  0.45404  Biso   1.000  C
  C4       1.0000 0.99790  0.13810  0.04596  Biso   1.000  C
  C5       1.0000 0.58470  0.34570  0.53590  Biso   1.000  C
  C6       1.0000 0.91530  0.84570  0.96410  Biso   1.000  C
  C7       1.0000 0.41530  0.65430  0.46410  Biso   1.000  C
  C8       1.0000 0.08470  0.15430  0.03590  Biso   1.000  C
  C9       1.0000 0.61090  0.35120  0.48267  Biso   1.000  C
  C10      1.0000 0.88910  0.85120  0.01733  Biso   1.000  C
  C11      1.0000 0.38910  0.64880  0.51733  Biso   1.000  C
  C12      1.0000 0.11090  0.14880  0.98267  Biso   1.000  C
  H1       1.0000 0.57280  0.31220  0.45980  Biso   1.000  H
  H2       1.0000 0.92720  0.81220  0.04020  Biso   1.000  H
  H3       1.0000 0.42720  0.68780  0.54020  Biso   1.000  H
  H4       1.0000 0.07280  0.18780  0.95980  Biso   1.000  H
  H5       1.0000 0.59620  0.40630  0.46890  Biso   1.000  H
  H6       1.0000 0.90380  0.90630  0.03110  Biso   1.000  H
  H7       1.0000 0.40380  0.59370  0.53110  Biso   1.000  H
  H8       1.0000 0.09620  0.09370  0.96890  Biso   1.000  H
  C13      1.0000 0.71390  0.33340  0.48310  Biso   1.000  C
  C14      1.0000 0.78610  0.83340  0.01690  Biso   1.000  C
  C15      1.0000 0.28610  0.66660  0.51690  Biso   1.000  C
  C16      1.0000 0.21390  0.16660  0.98310  Biso   1.000  C
  H9       1.0000 0.71960  0.31440  0.44900  Biso   1.000  H
  H10      1.0000 0.78040  0.81440  0.05100  Biso   1.000  H
  H11      1.0000 0.28040  0.68560  0.55100  Biso   1.000  H
  H12      1.0000 0.21960  0.18560  0.94900  Biso   1.000  H
  H13      1.0000 0.74810  0.38520  0.48910  Biso   1.000  H
  H14      1.0000 0.75190  0.88520  0.01090  Biso   1.000  H
  H15      1.0000 0.25190  0.61480  0.51090  Biso   1.000  H
  H16      1.0000 0.24810  0.11480  0.98910  Biso   1.000  H
  C17      1.0000 0.75820  0.27660  0.51850  Biso   1.000  C
  C18      1.0000 0.74180  0.77660  0.98150  Biso   1.000  C
  C19      1.0000 0.24180  0.72340  0.48150  Biso   1.000  C
  C20      1.0000 0.25820  0.22340  0.01850  Biso   1.000  C
  H17      1.0000 0.82440  0.27560  0.51630  Biso   1.000  H
  H18      1.0000 0.67560  0.77560  0.98370  Biso   1.000  H
  H19      1.0000 0.17560  0.72440  0.48370  Biso   1.000  H
  H20      1.0000 0.32440  0.22440  0.01630  Biso   1.000  H
  H21      1.0000 0.73260  0.22240  0.50820  Biso   1.000  H
  H22      1.0000 0.76740  0.72240  0.99180  Biso   1.000  H
  H23      1.0000 0.26740  0.77760  0.49180  Biso   1.000  H
  H24      1.0000 0.23260  0.27760  0.00820  Biso   1.000  H
  C21      1.0000 0.75100  0.29010  0.57508  Biso   1.000  C
  C22      1.0000 0.74900  0.79010  0.92492  Biso   1.000  C
  C23      1.0000 0.24900  0.70990  0.42492  Biso   1.000  C
  C24      1.0000 0.25100  0.20990  0.07508  Biso   1.000  C
  H25      1.0000 0.76740  0.23910  0.59410  Biso   1.000  H
  H26      1.0000 0.73260  0.73910  0.90590  Biso   1.000  H
  H27      1.0000 0.23260  0.76090  0.40590  Biso   1.000  H
  H28      1.0000 0.26740  0.26090  0.09410  Biso   1.000  H
  H29      1.0000 0.79590  0.33210  0.58990  Biso   1.000  H
  H30      1.0000 0.70410  0.83210  0.91010  Biso   1.000  H
  H31      1.0000 0.20410  0.66790  0.41010  Biso   1.000  H
  H32      1.0000 0.29590  0.16790  0.08990  Biso   1.000  H
  C25      1.0000 0.65240  0.31670  0.58087  Biso   1.000  C
  C26      1.0000 0.84760  0.81670  0.91913  Biso   1.000  C
  C27      1.0000 0.34760  0.68330  0.41913  Biso   1.000  C
  C28      1.0000 0.15240  0.18330  0.08087  Biso   1.000  C
  C29      1.0000 0.61800  0.31280  0.62579  Biso   1.000  C
  C30      1.0000 0.88200  0.81280  0.87421  Biso   1.000  C
  C31      1.0000 0.38200  0.68720  0.37421  Biso   1.000  C
  C32      1.0000 0.11800  0.18720  0.12579  Biso   1.000  C
  C33      1.0000 0.66210  0.28150  0.67665  Biso   1.000  C
  C34      1.0000 0.83790  0.78150  0.82335  Biso   1.000  C
  C35      1.0000 0.33790  0.71850  0.32335  Biso   1.000  C
  C36      1.0000 0.16210  0.21850  0.17665  Biso   1.000  C
  C37      1.0000 0.75700  0.28520  0.69770  Biso   1.000  C
  C38      1.0000 0.74300  0.78520  0.80230  Biso   1.000  C
  C39      1.0000 0.24300  0.71480  0.30230  Biso   1.000  C
  C40      1.0000 0.25700  0.21480  0.19770  Biso   1.000  C
  H33      1.0000 0.79860  0.30990  0.67940  Biso   1.000  H
  H34      1.0000 0.70140  0.80990  0.82060  Biso   1.000  H
  H35      1.0000 0.20140  0.69010  0.32060  Biso   1.000  H
  H36      1.0000 0.29860  0.19010  0.17940  Biso   1.000  H
  C41      1.0000 0.78970  0.25230  0.74570  Biso   1.000  C
  C42      1.0000 0.71030  0.75230  0.75430  Biso   1.000  C
  C43      1.0000 0.21030  0.74770  0.25430  Biso   1.000  C
  C44      1.0000 0.28970  0.24770  0.24570  Biso   1.000  C
  H37      1.0000 0.85350  0.25440  0.76000  Biso   1.000  H
  H38      1.0000 0.64650  0.75440  0.74000  Biso   1.000  H
  H39      1.0000 0.14650  0.74560  0.24000  Biso   1.000  H
  H40      1.0000 0.35350  0.24560  0.26000  Biso   1.000  H
  C45      1.0000 0.72730  0.21610  0.77250  Biso   1.000  C
  C46      1.0000 0.77270  0.71610  0.72750  Biso   1.000  C
  C47      1.0000 0.27270  0.78390  0.22750  Biso   1.000  C
  C48      1.0000 0.22730  0.28390  0.27250  Biso   1.000  C
  H41      1.0000 0.74840  0.19190  0.80460  Biso   1.000  H
  H42      1.0000 0.75160  0.69190  0.69540  Biso   1.000  H
  H43      1.0000 0.25160  0.80810  0.19540  Biso   1.000  H
  H44      1.0000 0.24840  0.30810  0.30460  Biso   1.000  H
  C49      1.0000 0.63360  0.21660  0.75080  Biso   1.000  C
  C50      1.0000 0.86640  0.71660  0.74920  Biso   1.000  C
  C51      1.0000 0.36640  0.78340  0.24920  Biso   1.000  C
  C52      1.0000 0.13360  0.28340  0.25080  Biso   1.000  C
  H45      1.0000 0.59140  0.19360  0.76950  Biso   1.000  H
  H46      1.0000 0.90860  0.69360  0.73050  Biso   1.000  H
  H47      1.0000 0.40860  0.80640  0.23050  Biso   1.000  H
  H48      1.0000 0.09140  0.30640  0.26950  Biso   1.000  H
  C53      1.0000 0.40850  0.38250  0.51183  Biso   1.000  C
  C54      1.0000 0.09150  0.88250  0.98817  Biso   1.000  C
  C55      1.0000 0.59150  0.61750  0.48817  Biso   1.000  C
  C56      1.0000 0.90850  0.11750  0.01183  Biso   1.000  C
  C57      1.0000 0.40020  0.43110  0.46714  Biso   1.000  C
  C58      1.0000 0.09980  0.93110  0.03286  Biso   1.000  C
  C59      1.0000 0.59980  0.56890  0.53286  Biso   1.000  C
  C60      1.0000 0.90020  0.06890  0.96714  Biso   1.000  C
  H49      1.0000 0.45350  0.45260  0.45690  Biso   1.000  H
  H50      1.0000 0.04650  0.95260  0.04310  Biso   1.000  H
  H51      1.0000 0.54650  0.54740  0.54310  Biso   1.000  H
  H52      1.0000 0.95350  0.04740  0.95690  Biso   1.000  H
  C61      1.0000 0.31270  0.44650  0.43889  Biso   1.000  C
  C62      1.0000 0.18730  0.94650  0.06111  Biso   1.000  C
  C63      1.0000 0.68730  0.55350  0.56111  Biso   1.000  C
  C64      1.0000 0.81270  0.05350  0.93889  Biso   1.000  C
  H53      1.0000 0.30620  0.47760  0.40870  Biso   1.000  H
  H54      1.0000 0.19380  0.97760  0.09130  Biso   1.000  H
  H55      1.0000 0.69380  0.52240  0.59130  Biso   1.000  H
  H56      1.0000 0.80620  0.02240  0.90870  Biso   1.000  H
  C65      1.0000 0.23400  0.41590  0.45510  Biso   1.000  C
  C66      1.0000 0.26600  0.91590  0.04490  Biso   1.000  C
  C67      1.0000 0.76600  0.58410  0.54490  Biso   1.000  C
  C68      1.0000 0.73400  0.08410  0.95510  Biso   1.000  C
  H57      1.0000 0.17400  0.42630  0.43630  Biso   1.000  H
  H58      1.0000 0.32600  0.92630  0.06370  Biso   1.000  H
  H59      1.0000 0.82600  0.57370  0.56370  Biso   1.000  H
  H60      1.0000 0.67400  0.07370  0.93630  Biso   1.000  H
  C69      1.0000 0.24620  0.36980  0.49975  Biso   1.000  C
  C70      1.0000 0.25380  0.86980  0.00025  Biso   1.000  C
  C71      1.0000 0.75380  0.63020  0.50025  Biso   1.000  C
  C72      1.0000 0.74620  0.13020  0.99975  Biso   1.000  C
  H61      1.0000 0.19330  0.34950  0.51090  Biso   1.000  H
  H62      1.0000 0.30670  0.84950  0.98910  Biso   1.000  H
  H63      1.0000 0.80670  0.65050  0.48910  Biso   1.000  H
  H64      1.0000 0.69330  0.15050  0.01090  Biso   1.000  H
  C73      1.0000 0.49460  0.44890  0.63919  Biso   1.000  C
  C74      1.0000 0.00540  0.94890  0.86081  Biso   1.000  C
  C75      1.0000 0.50540  0.55110  0.36081  Biso   1.000  C
  C76      1.0000 0.99460  0.05110  0.13919  Biso   1.000  C
  C77      1.0000 0.57550  0.48530  0.66740  Biso   1.000  C
  C78      1.0000 0.92450  0.98530  0.83260  Biso   1.000  C
  C79      1.0000 0.42450  0.51470  0.33260  Biso   1.000  C
  C80      1.0000 0.07550  0.01470  0.16740  Biso   1.000  C
  H65      1.0000 0.63240  0.45680  0.67330  Biso   1.000  H
  H66      1.0000 0.86760  0.95680  0.82670  Biso   1.000  H
  H67      1.0000 0.36760  0.54320  0.32670  Biso   1.000  H
  H68      1.0000 0.13240  0.04320  0.17330  Biso   1.000  H
  C81      1.0000 0.56990  0.56530  0.68670  Biso   1.000  C
  C82      1.0000 0.93010  0.06530  0.81330  Biso   1.000  C
  C83      1.0000 0.43010  0.43470  0.31330  Biso   1.000  C
  C84      1.0000 0.06990  0.93470  0.18670  Biso   1.000  C
  H69      1.0000 0.62360  0.58990  0.70570  Biso   1.000  H
  H70      1.0000 0.87640  0.08990  0.79430  Biso   1.000  H
  H71      1.0000 0.37640  0.41010  0.29430  Biso   1.000  H
  H72      1.0000 0.12360  0.91010  0.20570  Biso   1.000  H
  C85      1.0000 0.48730  0.60780  0.67820  Biso   1.000  C
  C86      1.0000 0.01270  0.10780  0.82180  Biso   1.000  C
  C87      1.0000 0.51270  0.39220  0.32180  Biso   1.000  C
  C88      1.0000 0.98730  0.89220  0.17820  Biso   1.000  C
  H73      1.0000 0.48500  0.66100  0.69140  Biso   1.000  H
  H74      1.0000 0.01500  0.16100  0.80860  Biso   1.000  H
  H75      1.0000 0.51500  0.33900  0.30860  Biso   1.000  H
  H76      1.0000 0.98500  0.83900  0.19140  Biso   1.000  H
  C89      1.0000 0.40680  0.57250  0.65020  Biso   1.000  C
  C90      1.0000 0.09320  0.07250  0.84980  Biso   1.000  C
  C91      1.0000 0.59320  0.42750  0.34980  Biso   1.000  C
  C92      1.0000 0.90680  0.92750  0.15020  Biso   1.000  C
  H77      1.0000 0.35060  0.60190  0.64400  Biso   1.000  H
  H78      1.0000 0.14940  0.10190  0.85600  Biso   1.000  H
  H79      1.0000 0.64940  0.39810  0.35600  Biso   1.000  H
  H80      1.0000 0.85060  0.89810  0.14400  Biso   1.000  H
  C93      1.0000 0.41050  0.49240  0.63113  Biso   1.000  C
  C94      1.0000 0.08950  0.99240  0.86887  Biso   1.000  C
  C95      1.0000 0.58950  0.50760  0.36887  Biso   1.000  C
  C96      1.0000 0.91050  0.00760  0.13113  Biso   1.000  C
  H81      1.0000 0.35610  0.46790  0.61290  Biso   1.000  H
  H82      1.0000 0.14390  0.96790  0.88710  Biso   1.000  H
  H83      1.0000 0.64390  0.53210  0.38710  Biso   1.000  H
  H84      1.0000 0.85610  0.03210  0.11290  Biso   1.000  H
  C97      1.0000 0.43660  0.08620  0.63105  Biso   1.000  C
  C98      1.0000 0.06340  0.58620  0.86895  Biso   1.000  C
  C99      1.0000 0.56340  0.91380  0.36895  Biso   1.000  C
  C100     1.0000 0.93660  0.41380  0.13105  Biso   1.000  C
  C101     1.0000 0.52430  0.06130  0.62593  Biso   1.000  C
  C102     1.0000 0.97570  0.56130  0.87407  Biso   1.000  C
  C103     1.0000 0.47570  0.93870  0.37407  Biso   1.000  C
  C104     1.0000 0.02430  0.43870  0.12593  Biso   1.000  C
  C105     1.0000 0.59710  0.02520  0.66806  Biso   1.000  C
  C106     1.0000 0.90290  0.52520  0.83194  Biso   1.000  C
  C107     1.0000 0.40290  0.97480  0.33194  Biso   1.000  C
  C108     1.0000 0.09710  0.47480  0.16806  Biso   1.000  C
  H85      1.0000 0.58470  0.96670  0.67120  Biso   1.000  H
  H86      1.0000 0.91530  0.46670  0.82880  Biso   1.000  H
  H87      1.0000 0.41530  0.03330  0.32880  Biso   1.000  H
  H88      1.0000 0.08470  0.53330  0.17120  Biso   1.000  H
  H89      1.0000 0.59220  0.05150  0.70050  Biso   1.000  H
  H90      1.0000 0.90780  0.55150  0.79950  Biso   1.000  H
  H91      1.0000 0.40780  0.94850  0.29950  Biso   1.000  H
  H92      1.0000 0.09220  0.44850  0.20050  Biso   1.000  H
  C109     1.0000 0.69510  0.03640  0.65820  Biso   1.000  C
  C110     1.0000 0.80490  0.53640  0.84180  Biso   1.000  C
  C111     1.0000 0.30490  0.96360  0.34180  Biso   1.000  C
  C112     1.0000 0.19510  0.46360  0.15820  Biso   1.000  C
  H93      1.0000 0.71300  0.09410  0.66350  Biso   1.000  H
  H94      1.0000 0.78700  0.59410  0.83650  Biso   1.000  H
  H95      1.0000 0.28700  0.90590  0.33650  Biso   1.000  H
  H96      1.0000 0.21300  0.40590  0.16350  Biso   1.000  H
  H97      1.0000 0.73820  0.00380  0.68300  Biso   1.000  H
  H98      1.0000 0.76180  0.50380  0.81700  Biso   1.000  H
  H99      1.0000 0.26180  0.99620  0.31700  Biso   1.000  H
  H100     1.0000 0.23820  0.49620  0.18300  Biso   1.000  H
  C113     1.0000 0.70410  0.01190  0.60630  Biso   1.000  C
  C114     1.0000 0.79590  0.51190  0.89370  Biso   1.000  C
  C115     1.0000 0.29590  0.98810  0.39370  Biso   1.000  C
  C116     1.0000 0.20410  0.48810  0.10630  Biso   1.000  C
  H101     1.0000 0.69220  0.95290  0.60280  Biso   1.000  H
  H102     1.0000 0.80780  0.45290  0.89720  Biso   1.000  H
  H103     1.0000 0.30780  0.04710  0.39720  Biso   1.000  H
  H104     1.0000 0.19220  0.54710  0.10280  Biso   1.000  H
  H105     1.0000 0.76880  0.02100  0.60260  Biso   1.000  H
  H106     1.0000 0.73120  0.52100  0.89740  Biso   1.000  H
  H107     1.0000 0.23120  0.97900  0.39740  Biso   1.000  H
  H108     1.0000 0.26880  0.47900  0.10260  Biso   1.000  H
  C117     1.0000 0.64090  0.05500  0.56227  Biso   1.000  C
  C118     1.0000 0.85910  0.55500  0.93773  Biso   1.000  C
  C119     1.0000 0.35910  0.94500  0.43773  Biso   1.000  C
  C120     1.0000 0.14090  0.44500  0.06227  Biso   1.000  C
  H109     1.0000 0.63260  0.01960  0.53210  Biso   1.000  H
  H110     1.0000 0.86740  0.51960  0.96790  Biso   1.000  H
  H111     1.0000 0.36740  0.98040  0.46790  Biso   1.000  H
  H112     1.0000 0.13260  0.48040  0.03210  Biso   1.000  H
  H113     1.0000 0.67160  0.10530  0.55410  Biso   1.000  H
  H114     1.0000 0.82840  0.60530  0.94590  Biso   1.000  H
  H115     1.0000 0.32840  0.89470  0.44590  Biso   1.000  H
  H116     1.0000 0.17160  0.39470  0.05410  Biso   1.000  H
  C121     1.0000 0.54430  0.07700  0.57346  Biso   1.000  C
  C122     1.0000 0.95570  0.57700  0.92654  Biso   1.000  C
  C123     1.0000 0.45570  0.92300  0.42654  Biso   1.000  C
  C124     1.0000 0.04430  0.42300  0.07346  Biso   1.000  C
  C125     1.0000 0.47240  0.11440  0.54082  Biso   1.000  C
  C126     1.0000 0.02760  0.61440  0.95918  Biso   1.000  C
  C127     1.0000 0.52760  0.88560  0.45918  Biso   1.000  C
  C128     1.0000 0.97240  0.38560  0.04082  Biso   1.000  C
  C129     1.0000 0.46230  0.14380  0.48751  Biso   1.000  C
  C130     1.0000 0.03770  0.64380  0.01249  Biso   1.000  C
  C131     1.0000 0.53770  0.85620  0.51249  Biso   1.000  C
  C132     1.0000 0.96230  0.35620  0.98751  Biso   1.000  C
  C133     1.0000 0.52550  0.12790  0.45423  Biso   1.000  C
  C134     1.0000 0.97450  0.62790  0.04577  Biso   1.000  C
  C135     1.0000 0.47450  0.87210  0.54577  Biso   1.000  C
  C136     1.0000 0.02550  0.37210  0.95423  Biso   1.000  C
  H117     1.0000 0.57920  0.09610  0.46500  Biso   1.000  H
  H118     1.0000 0.92080  0.59610  0.03500  Biso   1.000  H
  H119     1.0000 0.42080  0.90390  0.53500  Biso   1.000  H
  H120     1.0000 0.07920  0.40390  0.96500  Biso   1.000  H
  C137     1.0000 0.50530  0.16090  0.40490  Biso   1.000  C
  C138     1.0000 0.99470  0.66090  0.09510  Biso   1.000  C
  C139     1.0000 0.49470  0.83910  0.59510  Biso   1.000  C
  C140     1.0000 0.00530  0.33910  0.90490  Biso   1.000  C
  H121     1.0000 0.54590  0.15120  0.38210  Biso   1.000  H
  H122     1.0000 0.95410  0.65120  0.11790  Biso   1.000  H
  H123     1.0000 0.45410  0.84880  0.61790  Biso   1.000  H
  H124     1.0000 0.04590  0.34880  0.88210  Biso   1.000  H
  C141     1.0000 0.42630  0.20780  0.38930  Biso   1.000  C
  C142     1.0000 0.07370  0.70780  0.11070  Biso   1.000  C
  C143     1.0000 0.57370  0.79220  0.61070  Biso   1.000  C
  C144     1.0000 0.92630  0.29220  0.88930  Biso   1.000  C
  H125     1.0000 0.41290  0.23090  0.35650  Biso   1.000  H
  H126     1.0000 0.08710  0.73090  0.14350  Biso   1.000  H
  H127     1.0000 0.58710  0.76910  0.64350  Biso   1.000  H
  H128     1.0000 0.91290  0.26910  0.85650  Biso   1.000  H
  C145     1.0000 0.36710  0.21950  0.42412  Biso   1.000  C
  C146     1.0000 0.13290  0.71950  0.07588  Biso   1.000  C
  C147     1.0000 0.63290  0.78050  0.57588  Biso   1.000  C
  C148     1.0000 0.86710  0.28050  0.92412  Biso   1.000  C
  H129     1.0000 0.31290  0.25090  0.41370  Biso   1.000  H
  H130     1.0000 0.18710  0.75090  0.08630  Biso   1.000  H
  H131     1.0000 0.68710  0.74910  0.58630  Biso   1.000  H
  H132     1.0000 0.81290  0.24910  0.91370  Biso   1.000  H
  C149     1.0000 0.39750  0.08520  0.67948  Biso   1.000  C
  C150     1.0000 0.10250  0.58520  0.82052  Biso   1.000  C
  C151     1.0000 0.60250  0.91480  0.32052  Biso   1.000  C
  C152     1.0000 0.89750  0.41480  0.17948  Biso   1.000  C
  C153     1.0000 0.36970  0.01220  0.69970  Biso   1.000  C
  C154     1.0000 0.13030  0.51220  0.80030  Biso   1.000  C
  C155     1.0000 0.63030  0.98780  0.30030  Biso   1.000  C
  C156     1.0000 0.86970  0.48780  0.19970  Biso   1.000  C
  H133     1.0000 0.37650  0.96170  0.68380  Biso   1.000  H
  H134     1.0000 0.12350  0.46170  0.81620  Biso   1.000  H
  H135     1.0000 0.62350  0.03830  0.31620  Biso   1.000  H
  H136     1.0000 0.87650  0.53830  0.18380  Biso   1.000  H
  C157     1.0000 0.33140  0.01610  0.74420  Biso   1.000  C
  C158     1.0000 0.16860  0.51610  0.75580  Biso   1.000  C
  C159     1.0000 0.66860  0.98390  0.25580  Biso   1.000  C
  C160     1.0000 0.83140  0.48390  0.24420  Biso   1.000  C
  H137     1.0000 0.31270  0.96800  0.75880  Biso   1.000  H
  H138     1.0000 0.18730  0.46800  0.74120  Biso   1.000  H
  H139     1.0000 0.68730  0.03200  0.24120  Biso   1.000  H
  H140     1.0000 0.81270  0.53200  0.25880  Biso   1.000  H
  C161     1.0000 0.32140  0.09040  0.76620  Biso   1.000  C
  C162     1.0000 0.17860  0.59040  0.73380  Biso   1.000  C
  C163     1.0000 0.67860  0.90960  0.23380  Biso   1.000  C
  C164     1.0000 0.82140  0.40960  0.26620  Biso   1.000  C
  H141     1.0000 0.29410  0.09400  0.79530  Biso   1.000  H
  H142     1.0000 0.20590  0.59400  0.70470  Biso   1.000  H
  H143     1.0000 0.70590  0.90600  0.20470  Biso   1.000  H
  H144     1.0000 0.79410  0.40600  0.29530  Biso   1.000  H
  C165     1.0000 0.35250  0.16140  0.74479  Biso   1.000  C
  C166     1.0000 0.14750  0.66140  0.75521  Biso   1.000  C
  C167     1.0000 0.64750  0.83860  0.25521  Biso   1.000  C
  C168     1.0000 0.85250  0.33860  0.24479  Biso   1.000  C
  H145     1.0000 0.34660  0.21210  0.76060  Biso   1.000  H
  H146     1.0000 0.15340  0.71210  0.73940  Biso   1.000  H
  H147     1.0000 0.65340  0.78790  0.23940  Biso   1.000  H
  H148     1.0000 0.84660  0.28790  0.26060  Biso   1.000  H
  C169     1.0000 0.27590  0.07350  0.54735  Biso   1.000  C
  C170     1.0000 0.22410  0.57350  0.95265  Biso   1.000  C
  C171     1.0000 0.72410  0.92650  0.45265  Biso   1.000  C
  C172     1.0000 0.77590  0.42650  0.04735  Biso   1.000  C
  C173     1.0000 0.20480  0.10650  0.50968  Biso   1.000  C
  C174     1.0000 0.29520  0.60650  0.99032  Biso   1.000  C
  C175     1.0000 0.79520  0.89350  0.49032  Biso   1.000  C
  C176     1.0000 0.70480  0.39350  0.00968  Biso   1.000  C
  H149     1.0000 0.20840  0.16090  0.49880  Biso   1.000  H
  H150     1.0000 0.29160  0.66090  0.00120  Biso   1.000  H
  H151     1.0000 0.79160  0.83910  0.50120  Biso   1.000  H
  H152     1.0000 0.70840  0.33910  0.99880  Biso   1.000  H
  C177     1.0000 0.12860  0.05740  0.48860  Biso   1.000  C
  C178     1.0000 0.37140  0.55740  0.01140  Biso   1.000  C
  C179     1.0000 0.87140  0.94260  0.51140  Biso   1.000  C
  C180     1.0000 0.62860  0.44260  0.98860  Biso   1.000  C
  H153     1.0000 0.08090  0.07900  0.46340  Biso   1.000  H
  H154     1.0000 0.41910  0.57900  0.03660  Biso   1.000  H
  H155     1.0000 0.91910  0.92100  0.53660  Biso   1.000  H
  H156     1.0000 0.58090  0.42100  0.96340  Biso   1.000  H
  C181     1.0000 0.12300  0.97680  0.50460  Biso   1.000  C
  C182     1.0000 0.37700  0.47680  0.99540  Biso   1.000  C
  C183     1.0000 0.87700  0.02320  0.49540  Biso   1.000  C
  C184     1.0000 0.62300  0.52320  0.00460  Biso   1.000  C
  H157     1.0000 0.07180  0.94430  0.49000  Biso   1.000  H
  H158     1.0000 0.42820  0.44430  0.01000  Biso   1.000  H
  H159     1.0000 0.92820  0.05570  0.51000  Biso   1.000  H
  H160     1.0000 0.57180  0.55570  0.99000  Biso   1.000  H
  C185     1.0000 0.19220  0.94390  0.54210  Biso   1.000  C
  C186     1.0000 0.30780  0.44390  0.95790  Biso   1.000  C
  C187     1.0000 0.80780  0.05610  0.45790  Biso   1.000  C
  C188     1.0000 0.69220  0.55610  0.04210  Biso   1.000  C
  H161     1.0000 0.18780  0.88950  0.55270  Biso   1.000  H
  H162     1.0000 0.31220  0.38950  0.94730  Biso   1.000  H
  H163     1.0000 0.81220  0.11050  0.44730  Biso   1.000  H
  H164     1.0000 0.68780  0.61050  0.05270  Biso   1.000  H
  C189     1.0000 0.26870  0.99220  0.56396  Biso   1.000  C
  C190     1.0000 0.23130  0.49220  0.93604  Biso   1.000  C
  C191     1.0000 0.73130  0.00780  0.43604  Biso   1.000  C
  C192     1.0000 0.76870  0.50780  0.06396  Biso   1.000  C
  H165     1.0000 0.31520  0.97040  0.58970  Biso   1.000  H
  H166     1.0000 0.18480  0.47040  0.91030  Biso   1.000  H
  H167     1.0000 0.68480  0.02960  0.41030  Biso   1.000  H
  H168     1.0000 0.81520  0.52960  0.08970  Biso   1.000  H
  C193     1.0000 0.17910  0.29800  0.64220  Biso   1.000  C
  C194     1.0000 0.32090  0.79800  0.85780  Biso   1.000  C
  C195     1.0000 0.82090  0.70200  0.35780  Biso   1.000  C
  C196     1.0000 0.67910  0.20200  0.14220  Biso   1.000  C
  C197     1.0000 0.09510  0.30230  0.66620  Biso   1.000  C
  C198     1.0000 0.40490  0.80230  0.83380  Biso   1.000  C
  C199     1.0000 0.90490  0.69770  0.33380  Biso   1.000  C
  C200     1.0000 0.59510  0.19770  0.16620  Biso   1.000  C
  H169     1.0000 0.08700  0.35850  0.67740  Biso   1.000  H
  H170     1.0000 0.41300  0.85850  0.82260  Biso   1.000  H
  H171     1.0000 0.91300  0.64150  0.32260  Biso   1.000  H
  H172     1.0000 0.58700  0.14150  0.17740  Biso   1.000  H
  H173     1.0000 0.10400  0.26680  0.69630  Biso   1.000  H
  H174     1.0000 0.39600  0.76680  0.80370  Biso   1.000  H
  H175     1.0000 0.89600  0.73320  0.30370  Biso   1.000  H
  H176     1.0000 0.60400  0.23320  0.19630  Biso   1.000  H
  C201     1.0000 0.00690  0.27550  0.62870  Biso   1.000  C
  C202     1.0000 0.49310  0.77550  0.87130  Biso   1.000  C
  C203     1.0000 0.99310  0.72450  0.37130  Biso   1.000  C
  C204     1.0000 0.50690  0.22450  0.12870  Biso   1.000  C
  H177     1.0000 0.95510  0.27390  0.64730  Biso   1.000  H
  H178     1.0000 0.54490  0.77390  0.85270  Biso   1.000  H
  H179     1.0000 0.04490  0.72610  0.35270  Biso   1.000  H
  H180     1.0000 0.45510  0.22610  0.14730  Biso   1.000  H
  H181     1.0000 0.99220  0.31740  0.60210  Biso   1.000  H
  H182     1.0000 0.50780  0.81740  0.89790  Biso   1.000  H
  H183     1.0000 0.00780  0.68260  0.39790  Biso   1.000  H
  H184     1.0000 0.49220  0.18260  0.10210  Biso   1.000  H
  C205     1.0000 0.01210  0.19460  0.60330  Biso   1.000  C
  C206     1.0000 0.48790  0.69460  0.89670  Biso   1.000  C
  C207     1.0000 0.98790  0.80540  0.39670  Biso   1.000  C
  C208     1.0000 0.51210  0.30540  0.10330  Biso   1.000  C
  H185     1.0000 0.05890  0.19950  0.58160  Biso   1.000  H
  H186     1.0000 0.44110  0.69950  0.91840  Biso   1.000  H
  H187     1.0000 0.94110  0.80050  0.41840  Biso   1.000  H
  H188     1.0000 0.55890  0.30050  0.08160  Biso   1.000  H
  H189     1.0000 0.95190  0.18570  0.58060  Biso   1.000  H
  H190     1.0000 0.54810  0.68570  0.91940  Biso   1.000  H
  H191     1.0000 0.04810  0.81430  0.41940  Biso   1.000  H
  H192     1.0000 0.45190  0.31430  0.08060  Biso   1.000  H
  C209     1.0000 0.03510  0.11520  0.63590  Biso   1.000  C
  C210     1.0000 0.46490  0.61520  0.86410  Biso   1.000  C
  C211     1.0000 0.96490  0.88480  0.36410  Biso   1.000  C
  C212     1.0000 0.53510  0.38480  0.13590  Biso   1.000  C
  H193     1.0000 0.05010  0.07220  0.61320  Biso   1.000  H
  H194     1.0000 0.44990  0.57220  0.88680  Biso   1.000  H
  H195     1.0000 0.94990  0.92780  0.38680  Biso   1.000  H
  H196     1.0000 0.55010  0.42780  0.11320  Biso   1.000  H
  H197     1.0000 0.09190  0.12580  0.66110  Biso   1.000  H
  H198     1.0000 0.40810  0.62580  0.83890  Biso   1.000  H
  H199     1.0000 0.90810  0.87420  0.33890  Biso   1.000  H
  H200     1.0000 0.59190  0.37420  0.16110  Biso   1.000  H
  C213     1.0000 0.97670  0.08700  0.65910  Biso   1.000  C
  C214     1.0000 0.52330  0.58700  0.84090  Biso   1.000  C
  C215     1.0000 0.02330  0.91300  0.34090  Biso   1.000  C
  C216     1.0000 0.47670  0.41300  0.15910  Biso   1.000  C
  H201     1.0000 0.91610  0.09090  0.63600  Biso   1.000  H
  H202     1.0000 0.58390  0.59090  0.86400  Biso   1.000  H
  H203     1.0000 0.08390  0.90910  0.36400  Biso   1.000  H
  H204     1.0000 0.41610  0.40910  0.13600  Biso   1.000  H
  H205     1.0000 0.97410  0.12420  0.68770  Biso   1.000  H
  H206     1.0000 0.52590  0.62420  0.81230  Biso   1.000  H
  H207     1.0000 0.02590  0.87580  0.31230  Biso   1.000  H
  H208     1.0000 0.47410  0.37580  0.18770  Biso   1.000  H
  C217     1.0000 0.98430  0.99810  0.68140  Biso   1.000  C
  C218     1.0000 0.51570  0.49810  0.81860  Biso   1.000  C
  C219     1.0000 0.01570  0.00190  0.31860  Biso   1.000  C
  C220     1.0000 0.48430  0.50190  0.18140  Biso   1.000  C
  H209     1.0000 0.93580  0.99010  0.70180  Biso   1.000  H
  H210     1.0000 0.56420  0.49010  0.79820  Biso   1.000  H
  H211     1.0000 0.06420  0.00990  0.29820  Biso   1.000  H
  H212     1.0000 0.43580  0.50990  0.20180  Biso   1.000  H
  H213     1.0000 0.97320  0.95870  0.65320  Biso   1.000  H
  H214     1.0000 0.52680  0.45870  0.84680  Biso   1.000  H
  H215     1.0000 0.02680  0.04130  0.34680  Biso   1.000  H
  H216     1.0000 0.47320  0.54130  0.15320  Biso   1.000  H
  C221     1.0000 0.08040  0.98050  0.71510  Biso   1.000  C
  C222     1.0000 0.41960  0.48050  0.78490  Biso   1.000  C
  C223     1.0000 0.91960  0.01950  0.28490  Biso   1.000  C
  C224     1.0000 0.58040  0.51950  0.21510  Biso   1.000  C
  H217     1.0000 0.12720  0.97580  0.69330  Biso   1.000  H
  H218     1.0000 0.37280  0.47580  0.80670  Biso   1.000  H
  H219     1.0000 0.87280  0.02420  0.30670  Biso   1.000  H
  H220     1.0000 0.62720  0.52420  0.19330  Biso   1.000  H
  H221     1.0000 0.09810  0.02670  0.73850  Biso   1.000  H
  H222     1.0000 0.40190  0.52670  0.76150  Biso   1.000  H
  H223     1.0000 0.90190  0.97330  0.26150  Biso   1.000  H
  H224     1.0000 0.59810  0.47330  0.23850  Biso   1.000  H
  C225     1.0000 0.08030  0.90420  0.74540  Biso   1.000  C
  C226     1.0000 0.41970  0.40420  0.75460  Biso   1.000  C
  C227     1.0000 0.91970  0.09580  0.25460  Biso   1.000  C
  C228     1.0000 0.58030  0.59580  0.24540  Biso   1.000  C
  F1       1.0000 0.86540  0.45420  0.63214  Biso   1.000  F
  F2       1.0000 0.63460  0.95420  0.86786  Biso   1.000  F
  F3       1.0000 0.13460  0.54580  0.36786  Biso   1.000  F
  F4       1.0000 0.36540  0.04580  0.13214  Biso   1.000  F
  F5       1.0000 0.94990  0.44920  0.71013  Biso   1.000  F
  F6       1.0000 0.55010  0.94920  0.78987  Biso   1.000  F
  F7       1.0000 0.05010  0.55080  0.28987  Biso   1.000  F
  F8       1.0000 0.44990  0.05080  0.21013  Biso   1.000  F
  F9       1.0000 0.92510  0.57050  0.67028  Biso   1.000  F
  F10      1.0000 0.57490  0.07050  0.82972  Biso   1.000  F
  F11      1.0000 0.07490  0.42950  0.32972  Biso   1.000  F
  F12      1.0000 0.42510  0.92950  0.17028  Biso   1.000  F
  F13      1.0000 0.80780  0.50910  0.69400  Biso   1.000  F
  F14      1.0000 0.69220  0.00910  0.80600  Biso   1.000  F
  F15      1.0000 0.19220  0.49090  0.30600  Biso   1.000  F
  F16      1.0000 0.30780  0.99090  0.19400  Biso   1.000  F
  B1       1.0000 0.89030  0.49480  0.67510  Biso   1.000  B
  B2       1.0000 0.60970  0.99480  0.82490  Biso   1.000  B
  B3       1.0000 0.10970  0.50520  0.32490  Biso   1.000  B
  B4       1.0000 0.39030  0.00520  0.17510  Biso   1.000  B
  F17      1.0000 0.22360  0.71690  0.64940  Biso   1.000  F
  F18      1.0000 0.27640  0.21690  0.85060  Biso   1.000  F
  F19      1.0000 0.77640  0.28310  0.35060  Biso   1.000  F
  F20      1.0000 0.72360  0.78310  0.14940  Biso   1.000  F
  F21      1.0000 0.30360  0.82800  0.63250  Biso   1.000  F
  F22      1.0000 0.19640  0.32800  0.86750  Biso   1.000  F
  F23      1.0000 0.69640  0.17200  0.36750  Biso   1.000  F
  F24      1.0000 0.80360  0.67200  0.13250  Biso   1.000  F
  F25      1.0000 0.29380  0.79900  0.71390  Biso   1.000  F
  F26      1.0000 0.20620  0.29900  0.78610  Biso   1.000  F
  F27      1.0000 0.70620  0.20100  0.28610  Biso   1.000  F
  F28      1.0000 0.79380  0.70100  0.21390  Biso   1.000  F
  F29      1.0000 0.17290  0.84250  0.66200  Biso   1.000  F
  F30      1.0000 0.32710  0.34250  0.83800  Biso   1.000  F
  F31      1.0000 0.82710  0.15750  0.33800  Biso   1.000  F
  F32      1.0000 0.67290  0.65750  0.16200  Biso   1.000  F
  B5       1.0000 0.25660  0.79150  0.66470  Biso   1.000  B
  B6       1.0000 0.24340  0.29150  0.83530  Biso   1.000  B
  B7       1.0000 0.74340  0.20850  0.33530  Biso   1.000  B
  B8       1.0000 0.75660  0.70850  0.16470  Biso   1.000  B
