data_image0
_cell_length_a       14.561
_cell_length_b       15.654
_cell_length_c       15.931
_cell_angle_alpha    92.203
_cell_angle_beta     107.049
_cell_angle_gamma    92.93

_symmetry_space_group_name_H-M    "P 1"
_symmetry_int_tables_number       1

loop_
  _symmetry_equiv_pos_as_xyz
  'x, y, z'

loop_
  _atom_site_label
  _atom_site_occupancy
  _atom_site_fract_x
  _atom_site_fract_y
  _atom_site_fract_z
  _atom_site_thermal_displace_type
  _atom_site_B_iso_or_equiv
  _atom_site_type_symbol
  Cu1      1.0000 0.69708  0.82838  0.34915  Biso   1.000  Cu
  Cu2      1.0000 0.30292  0.17162  0.65085  Biso   1.000  Cu
  Cu3      1.0000 0.66079  0.67393  0.38741  Biso   1.000  Cu
  Cu4      1.0000 0.33921  0.32607  0.61259  Biso   1.000  Cu
  P1       1.0000 0.58947  0.79056  0.42763  Biso   1.000  P
  P2       1.0000 0.41053  0.20944  0.57237  Biso   1.000  P
  P3       1.0000 0.62876  0.79678  0.20439  Biso   1.000  P
  P4       1.0000 0.37124  0.20322  0.79561  Biso   1.000  P
  N1       1.0000 0.68890  0.95190  0.39370  Biso   1.000  N
  N2       1.0000 0.31110  0.04810  0.60630  Biso   1.000  N
  N3       1.0000 0.53890  0.60450  0.38910  Biso   1.000  N
  N4       1.0000 0.46110  0.39550  0.61090  Biso   1.000  N
  N5       1.0000 0.70850  0.61120  0.29420  Biso   1.000  N
  N6       1.0000 0.29150  0.38880  0.70580  Biso   1.000  N
  N7       1.0000 0.54440  0.96840  0.18820  Biso   1.000  N
  N8       1.0000 0.45560  0.03160  0.81180  Biso   1.000  N
  N9       1.0000 0.83800  0.81360  0.38730  Biso   1.000  N
  N10      1.0000 0.16200  0.18640  0.61270  Biso   1.000  N
  C1       1.0000 0.47020  0.73850  0.39490  Biso   1.000  C
  C2       1.0000 0.52980  0.26150  0.60510  Biso   1.000  C
  C3       1.0000 0.40310  0.79440  0.36380  Biso   1.000  C
  C4       1.0000 0.59690  0.20560  0.63620  Biso   1.000  C
  C5       1.0000 0.29620  0.77190  0.31670  Biso   1.000  C
  C6       1.0000 0.70380  0.22810  0.68330  Biso   1.000  C
  H1       1.0000 0.29030  0.72290  0.27580  Biso   1.000  H
  H2       1.0000 0.70970  0.27710  0.72420  Biso   1.000  H
  H3       1.0000 0.26430  0.75540  0.35980  Biso   1.000  H
  H4       1.0000 0.73570  0.24460  0.64020  Biso   1.000  H
  C7       1.0000 0.24870  0.84030  0.27010  Biso   1.000  C
  C8       1.0000 0.75130  0.15970  0.72990  Biso   1.000  C
  H5       1.0000 0.24440  0.82770  0.20890  Biso   1.000  H
  H6       1.0000 0.75560  0.17230  0.79110  Biso   1.000  H
  H7       1.0000 0.18330  0.83500  0.27370  Biso   1.000  H
  H8       1.0000 0.81670  0.16500  0.72630  Biso   1.000  H
  C9       1.0000 0.27670  0.92270  0.28640  Biso   1.000  C
  C10      1.0000 0.72330  0.07730  0.71360  Biso   1.000  C
  H9       1.0000 0.23880  0.94620  0.32160  Biso   1.000  H
  H10      1.0000 0.76120  0.05380  0.67840  Biso   1.000  H
  H11      1.0000 0.25730  0.94930  0.23040  Biso   1.000  H
  H12      1.0000 0.74270  0.05070  0.76960  Biso   1.000  H
  C11      1.0000 0.37740  0.95350  0.32970  Biso   1.000  C
  C12      1.0000 0.62260  0.04650  0.67030  Biso   1.000  C
  H13      1.0000 0.37890  0.99500  0.37700  Biso   1.000  H
  H14      1.0000 0.62110  0.00500  0.62300  Biso   1.000  H
  H15      1.0000 0.40200  0.98280  0.28740  Biso   1.000  H
  H16      1.0000 0.59800  0.01720  0.71260  Biso   1.000  H
  C13      1.0000 0.44160  0.88550  0.36600  Biso   1.000  C
  C14      1.0000 0.55840  0.11450  0.63400  Biso   1.000  C
  C15      1.0000 0.53870  0.89260  0.39990  Biso   1.000  C
  C16      1.0000 0.46130  0.10740  0.60010  Biso   1.000  C
  C17      1.0000 0.60440  0.96900  0.40650  Biso   1.000  C
  C18      1.0000 0.39560  0.03100  0.59350  Biso   1.000  C
  C19      1.0000 0.58820  0.05270  0.42970  Biso   1.000  C
  C20      1.0000 0.41180  0.94730  0.57030  Biso   1.000  C
  H17      1.0000 0.53060  0.06420  0.44050  Biso   1.000  H
  H18      1.0000 0.46940  0.93580  0.55950  Biso   1.000  H
  C21      1.0000 0.65610  0.11670  0.43640  Biso   1.000  C
  C22      1.0000 0.34390  0.88330  0.56360  Biso   1.000  C
  H19      1.0000 0.64520  0.17210  0.45240  Biso   1.000  H
  H20      1.0000 0.35480  0.82790  0.54760  Biso   1.000  H
  C23      1.0000 0.74170  0.10060  0.41980  Biso   1.000  C
  C24      1.0000 0.25830  0.89940  0.58020  Biso   1.000  C
  H21      1.0000 0.78830  0.14440  0.42260  Biso   1.000  H
  H22      1.0000 0.21170  0.85560  0.57740  Biso   1.000  H
  C25      1.0000 0.75550  0.01570  0.39860  Biso   1.000  C
  C26      1.0000 0.24450  0.98430  0.60140  Biso   1.000  C
  H23      1.0000 0.81270  0.00310  0.38740  Biso   1.000  H
  H24      1.0000 0.18730  0.99690  0.61260  Biso   1.000  H
  C27      1.0000 0.46160  0.64480  0.39510  Biso   1.000  C
  C28      1.0000 0.53840  0.35520  0.60490  Biso   1.000  C
  C29      1.0000 0.37970  0.59800  0.40460  Biso   1.000  C
  C30      1.0000 0.62030  0.40200  0.59540  Biso   1.000  C
  H25      1.0000 0.32880  0.62630  0.41420  Biso   1.000  H
  H26      1.0000 0.67120  0.37370  0.58580  Biso   1.000  H
  C31      1.0000 0.37670  0.51040  0.39920  Biso   1.000  C
  C32      1.0000 0.62330  0.48960  0.60080  Biso   1.000  C
  H27      1.0000 0.32210  0.47840  0.40170  Biso   1.000  H
  H28      1.0000 0.67790  0.52160  0.59830  Biso   1.000  H
  C33      1.0000 0.45650  0.46970  0.39000  Biso   1.000  C
  C34      1.0000 0.54350  0.53030  0.61000  Biso   1.000  C
  H29      1.0000 0.45600  0.41020  0.38610  Biso   1.000  H
  H30      1.0000 0.54400  0.58980  0.61390  Biso   1.000  H
  C35      1.0000 0.53640  0.52000  0.38700  Biso   1.000  C
  C36      1.0000 0.46360  0.48000  0.61300  Biso   1.000  C
  H31      1.0000 0.59070  0.49310  0.38340  Biso   1.000  H
  H32      1.0000 0.40930  0.50690  0.61660  Biso   1.000  H
  C37      1.0000 0.62950  0.80000  0.54590  Biso   1.000  C
  C38      1.0000 0.37050  0.20000  0.45410  Biso   1.000  C
  C39      1.0000 0.72450  0.83390  0.58900  Biso   1.000  C
  C40      1.0000 0.27550  0.16610  0.41100  Biso   1.000  C
  H33      1.0000 0.76730  0.84730  0.55740  Biso   1.000  H
  H34      1.0000 0.23270  0.15270  0.44260  Biso   1.000  H
  C41      1.0000 0.75210  0.84670  0.68140  Biso   1.000  C
  C42      1.0000 0.24790  0.15330  0.31860  Biso   1.000  C
  H35      1.0000 0.81280  0.87270  0.70970  Biso   1.000  H
  H36      1.0000 0.18720  0.12730  0.29030  Biso   1.000  H
  C43      1.0000 0.69710  0.82420  0.72930  Biso   1.000  C
  C44      1.0000 0.30290  0.17580  0.27070  Biso   1.000  C
  H37      1.0000 0.72070  0.83090  0.79030  Biso   1.000  H
  H38      1.0000 0.27930  0.16910  0.20970  Biso   1.000  H
  C45      1.0000 0.60210  0.78980  0.68940  Biso   1.000  C
  C46      1.0000 0.39790  0.21020  0.31060  Biso   1.000  C
  H39      1.0000 0.56240  0.77500  0.72360  Biso   1.000  H
  H40      1.0000 0.43760  0.22500  0.27640  Biso   1.000  H
  C47      1.0000 0.56820  0.77810  0.59720  Biso   1.000  C
  C48      1.0000 0.43180  0.22190  0.40280  Biso   1.000  C
  H41      1.0000 0.50540  0.75610  0.57000  Biso   1.000  H
  H42      1.0000 0.49460  0.24390  0.43000  Biso   1.000  H
  C49      1.0000 0.59570  0.68400  0.18120  Biso   1.000  C
  C50      1.0000 0.40430  0.31600  0.81880  Biso   1.000  C
  C51      1.0000 0.50190  0.66950  0.14140  Biso   1.000  C
  C52      1.0000 0.49810  0.33050  0.85860  Biso   1.000  C
  C53      1.0000 0.44620  0.58200  0.12420  Biso   1.000  C
  C54      1.0000 0.55380  0.41800  0.87580  Biso   1.000  C
  H43      1.0000 0.48340  0.54090  0.10350  Biso   1.000  H
  H44      1.0000 0.51660  0.45910  0.89650  Biso   1.000  H
  H45      1.0000 0.43800  0.56300  0.17900  Biso   1.000  H
  H46      1.0000 0.56200  0.43700  0.82100  Biso   1.000  H
  C55      1.0000 0.34990  0.58410  0.05810  Biso   1.000  C
  C56      1.0000 0.65010  0.41590  0.94190  Biso   1.000  C
  H47      1.0000 0.31360  0.53000  0.05630  Biso   1.000  H
  H48      1.0000 0.68640  0.47000  0.94370  Biso   1.000  H
  H49      1.0000 0.35810  0.59090  0.00040  Biso   1.000  H
  H50      1.0000 0.64190  0.40910  0.99960  Biso   1.000  H
  C57      1.0000 0.29330  0.65680  0.07920  Biso   1.000  C
  C58      1.0000 0.70670  0.34320  0.92080  Biso   1.000  C
  H51      1.0000 0.29010  0.65380  0.13900  Biso   1.000  H
  H52      1.0000 0.70990  0.34620  0.86100  Biso   1.000  H
  H53      1.0000 0.22810  0.65160  0.03980  Biso   1.000  H
  H54      1.0000 0.77190  0.34840  0.96020  Biso   1.000  H
  C59      1.0000 0.34360  0.74370  0.06860  Biso   1.000  C
  C60      1.0000 0.65640  0.25630  0.93140  Biso   1.000  C
  H55      1.0000 0.33540  0.75120  0.00680  Biso   1.000  H
  H56      1.0000 0.66460  0.24880  0.99320  Biso   1.000  H
  H57      1.0000 0.31390  0.79000  0.09090  Biso   1.000  H
  H58      1.0000 0.68610  0.21000  0.90910  Biso   1.000  H
  C61      1.0000 0.45000  0.74730  0.11810  Biso   1.000  C
  C62      1.0000 0.55000  0.25270  0.88190  Biso   1.000  C
  C63      1.0000 0.50780  0.82070  0.14390  Biso   1.000  C
  C64      1.0000 0.49220  0.17930  0.85610  Biso   1.000  C
  C65      1.0000 0.48640  0.91090  0.13010  Biso   1.000  C
  C66      1.0000 0.51360  0.08910  0.86990  Biso   1.000  C
  C67      1.0000 0.41400  0.93800  0.05610  Biso   1.000  C
  C68      1.0000 0.58600  0.06200  0.94390  Biso   1.000  C
  H59      1.0000 0.37560  0.89790  0.01430  Biso   1.000  H
  H60      1.0000 0.62440  0.10210  0.98570  Biso   1.000  H
  C69      1.0000 0.40170  0.02250  0.04730  Biso   1.000  C
  C70      1.0000 0.59830  0.97750  0.95270  Biso   1.000  C
  H61      1.0000 0.35670  0.04100  0.99800  Biso   1.000  H
  H62      1.0000 0.64330  0.95900  0.00200  Biso   1.000  H
  C71      1.0000 0.45510  0.08010  0.11040  Biso   1.000  C
  C72      1.0000 0.54490  0.91990  0.88960  Biso   1.000  C
  H63      1.0000 0.44340  0.13790  0.10740  Biso   1.000  H
  H64      1.0000 0.55660  0.86210  0.89260  Biso   1.000  H
  C73      1.0000 0.52790  0.05170  0.18010  Biso   1.000  C
  C74      1.0000 0.47210  0.94830  0.81990  Biso   1.000  C
  H65      1.0000 0.56610  0.09170  0.22210  Biso   1.000  H
  H66      1.0000 0.43390  0.90830  0.77790  Biso   1.000  H
  C75      1.0000 0.66660  0.61710  0.20890  Biso   1.000  C
  C76      1.0000 0.33340  0.38290  0.79110  Biso   1.000  C
  C77      1.0000 0.68790  0.56570  0.14490  Biso   1.000  C
  C78      1.0000 0.31210  0.43430  0.85510  Biso   1.000  C
  H67      1.0000 0.65850  0.57280  0.08560  Biso   1.000  H
  H68      1.0000 0.34150  0.42720  0.91440  Biso   1.000  H
  C79      1.0000 0.75270  0.50480  0.17030  Biso   1.000  C
  C80      1.0000 0.24730  0.49520  0.82970  Biso   1.000  C
  H69      1.0000 0.76770  0.46930  0.12870  Biso   1.000  H
  H70      1.0000 0.23230  0.53070  0.87130  Biso   1.000  H
  C81      1.0000 0.79660  0.49660  0.26160  Biso   1.000  C
  C82      1.0000 0.20340  0.50340  0.73840  Biso   1.000  C
  H71      1.0000 0.84110  0.45580  0.28150  Biso   1.000  H
  H72      1.0000 0.15890  0.54420  0.71850  Biso   1.000  H
  C83      1.0000 0.77120  0.55080  0.31910  Biso   1.000  C
  C84      1.0000 0.22880  0.44920  0.68090  Biso   1.000  C
  H73      1.0000 0.79910  0.54540  0.37900  Biso   1.000  H
  H74      1.0000 0.20090  0.45460  0.62100  Biso   1.000  H
  C85      1.0000 0.70500  0.82250  0.13450  Biso   1.000  C
  C86      1.0000 0.29500  0.17750  0.86550  Biso   1.000  C
  C87      1.0000 0.78000  0.88710  0.16630  Biso   1.000  C
  C88      1.0000 0.22000  0.11290  0.83370  Biso   1.000  C
  H75      1.0000 0.78830  0.91660  0.22010  Biso   1.000  H
  H76      1.0000 0.21170  0.08340  0.77990  Biso   1.000  H
  C89      1.0000 0.83920  0.90540  0.11760  Biso   1.000  C
  C90      1.0000 0.16080  0.09460  0.88240  Biso   1.000  C
  H77      1.0000 0.89090  0.94560  0.13970  Biso   1.000  H
  H78      1.0000 0.10910  0.05440  0.86030  Biso   1.000  H
  C91      1.0000 0.82470  0.86580  0.03600  Biso   1.000  C
  C92      1.0000 0.17530  0.13420  0.96400  Biso   1.000  C
  H79      1.0000 0.86550  0.88080  0.00280  Biso   1.000  H
  H80      1.0000 0.13450  0.11920  0.99720  Biso   1.000  H
  C93      1.0000 0.74990  0.80370  0.00210  Biso   1.000  C
  C94      1.0000 0.25010  0.19630  0.99790  Biso   1.000  C
  H81      1.0000 0.74020  0.77680  0.94690  Biso   1.000  H
  H82      1.0000 0.25980  0.22320  0.05310  Biso   1.000  H
  C95      1.0000 0.68960  0.78260  0.05300  Biso   1.000  C
  C96      1.0000 0.31040  0.21740  0.94700  Biso   1.000  C
  H83      1.0000 0.63890  0.74140  0.03160  Biso   1.000  H
  H84      1.0000 0.36110  0.25860  0.96840  Biso   1.000  H
  C97      1.0000 0.91520  0.80070  0.40380  Biso   1.000  C
  C98      1.0000 0.08480  0.19930  0.59620  Biso   1.000  C
  C99      1.0000 0.01610  0.77560  0.42190  Biso   1.000  C
  C100     1.0000 0.98390  0.22440  0.57810  Biso   1.000  C
  C101     1.0000 0.97500  0.71320  0.26090  Biso   1.000  C
  C102     1.0000 0.02500  0.28680  0.73910  Biso   1.000  C
  H85      1.0000 0.04240  0.76410  0.48350  Biso   1.000  H
  H86      1.0000 0.95760  0.23590  0.51650  Biso   1.000  H
  H87      1.0000 0.05600  0.82140  0.40840  Biso   1.000  H
  H88      1.0000 0.94400  0.17860  0.59160  Biso   1.000  H
  C103     1.0000 0.01420  0.68770  0.35870  Biso   1.000  C
  C104     1.0000 0.98580  0.31230  0.64130  Biso   1.000  C
  H89      1.0000 0.07840  0.66770  0.37000  Biso   1.000  H
  H90      1.0000 0.92160  0.33230  0.63000  Biso   1.000  H
  H91      1.0000 0.97250  0.64240  0.37060  Biso   1.000  H
  H92      1.0000 0.02750  0.35760  0.62940  Biso   1.000  H
  H93      1.0000 0.91300  0.68100  0.24100  Biso   1.000  H
  H94      1.0000 0.08700  0.31900  0.75900  Biso   1.000  H
  H95      1.0000 0.95970  0.77220  0.26800  Biso   1.000  H
  H96      1.0000 0.04030  0.22780  0.73200  Biso   1.000  H
  C105     1.0000 0.99240  0.63710  0.20300  Biso   1.000  C
  C106     1.0000 0.00760  0.36290  0.79700  Biso   1.000  C
  H97      1.0000 0.05990  0.63690  0.20590  Biso   1.000  H
  H98      1.0000 0.94010  0.36310  0.79410  Biso   1.000  H
  H99      1.0000 0.97280  0.58290  0.22210  Biso   1.000  H
  H100     1.0000 0.02720  0.41710  0.77790  Biso   1.000  H
  C107     1.0000 0.93200  0.65180  0.11190  Biso   1.000  C
  C108     1.0000 0.06800  0.34820  0.88810  Biso   1.000  C
  H101     1.0000 0.86590  0.64140  0.11240  Biso   1.000  H
  H102     1.0000 0.13410  0.35860  0.88760  Biso   1.000  H
  H103     1.0000 0.94060  0.71270  0.10520  Biso   1.000  H
  H104     1.0000 0.05940  0.28730  0.89480  Biso   1.000  H
  C109     1.0000 0.93630  0.61060  0.03030  Biso   1.000  C
  C110     1.0000 0.06370  0.38940  0.96970  Biso   1.000  C
  H105     1.0000 0.95930  0.55390  0.04220  Biso   1.000  H
  H106     1.0000 0.04070  0.44610  0.95780  Biso   1.000  H
  H107     1.0000 0.98330  0.64310  0.00980  Biso   1.000  H
  H108     1.0000 0.01670  0.35690  0.99020  Biso   1.000  H
  C111     1.0000 0.84380  0.60190  0.95860  Biso   1.000  C
  C112     1.0000 0.15620  0.39810  0.04140  Biso   1.000  C
  H109     1.0000 0.79910  0.63060  0.98290  Biso   1.000  H
  H110     1.0000 0.20090  0.36940  0.01710  Biso   1.000  H
  H111     1.0000 0.82410  0.54140  0.95470  Biso   1.000  H
  H112     1.0000 0.17590  0.45860  0.04530  Biso   1.000  H
  N11      1.0000 0.77000  0.65330  0.49520  Biso   1.000  N
  N12      1.0000 0.23000  0.34670  0.50480  Biso   1.000  N
  C113     1.0000 0.84090  0.64340  0.54770  Biso   1.000  C
  C114     1.0000 0.15910  0.35660  0.45230  Biso   1.000  C
  C115     1.0000 0.84010  0.62180  0.73440  Biso   1.000  C
  C116     1.0000 0.15990  0.37820  0.26560  Biso   1.000  C
  H113     1.0000 0.78440  0.64110  0.69090  Biso   1.000  H
  H114     1.0000 0.21560  0.35890  0.30910  Biso   1.000  H
  H115     1.0000 0.87170  0.66950  0.77490  Biso   1.000  H
  H116     1.0000 0.12830  0.33050  0.22510  Biso   1.000  H
  C117     1.0000 0.91570  0.57640  0.68740  Biso   1.000  C
  C118     1.0000 0.08430  0.42360  0.31260  Biso   1.000  C
  H117     1.0000 0.97800  0.57200  0.73040  Biso   1.000  H
  H118     1.0000 0.02200  0.42800  0.26960  Biso   1.000  H
  H119     1.0000 0.89040  0.51940  0.66280  Biso   1.000  H
  H120     1.0000 0.10960  0.48060  0.33720  Biso   1.000  H
  C119     1.0000 0.92490  0.63140  0.61810  Biso   1.000  C
  C120     1.0000 0.07510  0.36860  0.38190  Biso   1.000  C
  H121     1.0000 0.95090  0.68740  0.64540  Biso   1.000  H
  H122     1.0000 0.04910  0.31260  0.35460  Biso   1.000  H
  H123     1.0000 0.97230  0.60840  0.59300  Biso   1.000  H
  H124     1.0000 0.02770  0.39160  0.40700  Biso   1.000  H
  C121     1.0000 0.80800  0.53310  0.79100  Biso   1.000  C
  C122     1.0000 0.19200  0.46690  0.20900  Biso   1.000  C
  H125     1.0000 0.74440  0.50510  0.76540  Biso   1.000  H
  H126     1.0000 0.25560  0.49490  0.23460  Biso   1.000  H
  H127     1.0000 0.85750  0.49360  0.81350  Biso   1.000  H
  H128     1.0000 0.14250  0.50640  0.18650  Biso   1.000  H
  C123     1.0000 0.81490  0.62910  0.85480  Biso   1.000  C
  C124     1.0000 0.18510  0.37090  0.14520  Biso   1.000  C
  H129     1.0000 0.86370  0.66950  0.84620  Biso   1.000  H
  H130     1.0000 0.13630  0.33050  0.15380  Biso   1.000  H
  H131     1.0000 0.75350  0.65510  0.83870  Biso   1.000  H
  H132     1.0000 0.24650  0.34490  0.16130  Biso   1.000  H
  H133     1.0000 0.02060  0.71480  0.43070  Biso   1.000  H
  H134     1.0000 0.97940  0.28520  0.56930  Biso   1.000  H
  H135     1.0000 0.05900  0.80790  0.47280  Biso   1.000  H
  H136     1.0000 0.94100  0.19210  0.52720  Biso   1.000  H
  C125     1.0000 0.03960  0.80120  0.33000  Biso   1.000  C
  C126     1.0000 0.96040  0.19880  0.67000  Biso   1.000  C
  H137     1.0000 0.10790  0.80260  0.33600  Biso   1.000  H
  H138     1.0000 0.89210  0.19740  0.66400  Biso   1.000  H
  H139     1.0000 0.01450  0.85550  0.30990  Biso   1.000  H
  H140     1.0000 0.98550  0.14450  0.69010  Biso   1.000  H
  H141     1.0000 0.94390  0.68440  0.29920  Biso   1.000  H
  H142     1.0000 0.05610  0.31560  0.70080  Biso   1.000  H
  H143     1.0000 0.92370  0.74080  0.21970  Biso   1.000  H
  H144     1.0000 0.07630  0.25920  0.78030  Biso   1.000  H
  C127     1.0000 0.00640  0.71400  0.17660  Biso   1.000  C
  C128     1.0000 0.99360  0.28600  0.82340  Biso   1.000  C
  H145     1.0000 0.00490  0.77100  0.15460  Biso   1.000  H
  H146     1.0000 0.99510  0.22900  0.84540  Biso   1.000  H
  H147     1.0000 0.07080  0.69460  0.18720  Biso   1.000  H
  H148     1.0000 0.92920  0.30540  0.81280  Biso   1.000  H
  H149     1.0000 0.92070  0.60520  0.14690  Biso   1.000  H
  H150     1.0000 0.07930  0.39480  0.85310  Biso   1.000  H
  H151     1.0000 0.87310  0.68170  0.09620  Biso   1.000  H
  H152     1.0000 0.12690  0.31830  0.90380  Biso   1.000  H
  C129     1.0000 0.88330  0.59590  0.94840  Biso   1.000  C
  C130     1.0000 0.11670  0.40410  0.05160  Biso   1.000  C
  H153     1.0000 0.81800  0.59470  0.95220  Biso   1.000  H
  H154     1.0000 0.18200  0.40530  0.04780  Biso   1.000  H
  C131     1.0000 0.87810  0.53040  0.87940  Biso   1.000  C
  C132     1.0000 0.12190  0.46960  0.12060  Biso   1.000  C
  H155     1.0000 0.94160  0.53010  0.87130  Biso   1.000  H
  H156     1.0000 0.05840  0.46990  0.12870  Biso   1.000  H
  H157     1.0000 0.86610  0.47560  0.90200  Biso   1.000  H
  H158     1.0000 0.13390  0.52440  0.09800  Biso   1.000  H
  H159     1.0000 0.74400  0.53890  0.79660  Biso   1.000  H
  H160     1.0000 0.25600  0.46110  0.20340  Biso   1.000  H
  H161     1.0000 0.80710  0.48000  0.75730  Biso   1.000  H
  H162     1.0000 0.19290  0.52000  0.24270  Biso   1.000  H
  H163     1.0000 0.89210  0.64900  0.92140  Biso   1.000  H
  H164     1.0000 0.10790  0.35100  0.07860  Biso   1.000  H
