data_image0
_cell_length_a       7.92
_cell_length_b       10.52
_cell_length_c       14.39
_cell_angle_alpha    102.5
_cell_angle_beta     104.1
_cell_angle_gamma    100.6

_symmetry_space_group_name_H-M    "P 1"
_symmetry_int_tables_number       1

loop_
  _symmetry_equiv_pos_as_xyz
  'x, y, z'

loop_
  _atom_site_label
  _atom_site_occupancy
  _atom_site_fract_x
  _atom_site_fract_y
  _atom_site_fract_z
  _atom_site_thermal_displace_type
  _atom_site_B_iso_or_equiv
  _atom_site_type_symbol
  Cu1      1.0000 0.00720  0.38570  0.02100  Biso   1.000  Cu
  Cu2      1.0000 0.99280  0.61430  0.97900  Biso   1.000  Cu
  Cu3      1.0000 0.33110  0.48470  0.99020  Biso   1.000  Cu
  Cu4      1.0000 0.66890  0.51530  0.00980  Biso   1.000  Cu
  S1       1.0000 0.88910  0.23550  0.86990  Biso   1.000  S
  S2       1.0000 0.11090  0.76450  0.13010  Biso   1.000  S
  S3       1.0000 0.16920  0.57280  0.87770  Biso   1.000  S
  S4       1.0000 0.83080  0.42720  0.12230  Biso   1.000  S
  S5       1.0000 0.56260  0.69320  0.10620  Biso   1.000  S
  S6       1.0000 0.43740  0.30680  0.89380  Biso   1.000  S
  S7       1.0000 0.29540  0.38490  0.11650  Biso   1.000  S
  S8       1.0000 0.70460  0.61510  0.88350  Biso   1.000  S
  O1       1.0000 0.07110  0.44050  0.61830  Biso   1.000  O
  O2       1.0000 0.92890  0.55950  0.38170  Biso   1.000  O
  O3       1.0000 0.81880  0.15380  0.61150  Biso   1.000  O
  O4       1.0000 0.18120  0.84620  0.38850  Biso   1.000  O
  O5       1.0000 0.39200  0.53860  0.38080  Biso   1.000  O
  O6       1.0000 0.60800  0.46140  0.61920  Biso   1.000  O
  O7       1.0000 0.65430  0.81140  0.37280  Biso   1.000  O
  O8       1.0000 0.34570  0.18860  0.62720  Biso   1.000  O
  C1       1.0000 0.94310  0.30380  0.78360  Biso   1.000  C
  C2       1.0000 0.05690  0.69620  0.21640  Biso   1.000  C
  C3       1.0000 0.04690  0.43000  0.78510  Biso   1.000  C
  C4       1.0000 0.95310  0.57000  0.21490  Biso   1.000  C
  C5       1.0000 0.02190  0.39060  0.67840  Biso   1.000  C
  C6       1.0000 0.97810  0.60940  0.32160  Biso   1.000  C
  C7       1.0000 0.90510  0.25570  0.67530  Biso   1.000  C
  C8       1.0000 0.09490  0.74430  0.32470  Biso   1.000  C
  C9       1.0000 0.52000  0.64740  0.20520  Biso   1.000  C
  C10      1.0000 0.48000  0.35260  0.79480  Biso   1.000  C
  C11      1.0000 0.41140  0.52810  0.20890  Biso   1.000  C
  C12      1.0000 0.58860  0.47190  0.79110  Biso   1.000  C
  C13      1.0000 0.44130  0.57810  0.31580  Biso   1.000  C
  C14      1.0000 0.55870  0.42190  0.68420  Biso   1.000  C
  C15      1.0000 0.56160  0.70620  0.31240  Biso   1.000  C
  C16      1.0000 0.43840  0.29380  0.68760  Biso   1.000  C
  C17      1.0000 0.44080  0.06690  0.33020  Biso   1.000  C
  C18      1.0000 0.55920  0.93310  0.66980  Biso   1.000  C
  C19      1.0000 0.59400  0.28500  0.41960  Biso   1.000  C
  C20      1.0000 0.40600  0.71500  0.58040  Biso   1.000  C
  C21      1.0000 0.90680  0.03550  0.33150  Biso   1.000  C
  C22      1.0000 0.09320  0.96450  0.66850  Biso   1.000  C
  C23      1.0000 0.58120  0.21410  0.25920  Biso   1.000  C
  C24      1.0000 0.41880  0.78590  0.74080  Biso   1.000  C
  C25      1.0000 0.06460  0.25310  0.41030  Biso   1.000  C
  C26      1.0000 0.93540  0.74690  0.58970  Biso   1.000  C
  C27      1.0000 0.50050  0.16840  0.41870  Biso   1.000  C
  C28      1.0000 0.49950  0.83160  0.58130  Biso   1.000  C
  C29      1.0000 0.48370  0.09340  0.25210  Biso   1.000  C
  C30      1.0000 0.51630  0.90660  0.74790  Biso   1.000  C
  C31      1.0000 0.02800  0.15760  0.24380  Biso   1.000  C
  C32      1.0000 0.97200  0.84240  0.75620  Biso   1.000  C
  C33      1.0000 0.09700  0.26150  0.32090  Biso   1.000  C
  C34      1.0000 0.90300  0.73850  0.67910  Biso   1.000  C
  C35      1.0000 0.93310  0.04650  0.25010  Biso   1.000  C
  C36      1.0000 0.06690  0.95350  0.74990  Biso   1.000  C
  C37      1.0000 0.63790  0.30450  0.33800  Biso   1.000  C
  C38      1.0000 0.36210  0.69550  0.66200  Biso   1.000  C
  C39      1.0000 0.96970  0.13420  0.41240  Biso   1.000  C
  C40      1.0000 0.03030  0.86580  0.58760  Biso   1.000  C
  O9       1.0000 0.15020  0.04130  0.00370  Biso   1.000  O
  O10      1.0000 0.84980  0.95870  0.99630  Biso   1.000  O
  O11      1.0000 0.62200  0.08250  0.00600  Biso   1.000  O
  O12      1.0000 0.37800  0.91750  0.99400  Biso   1.000  O
  O13      1.0000 0.04000  0.03000  0.01000  Biso   1.000  O
  O14      1.0000 0.96000  0.97000  0.99000  Biso   1.000  O
  O15      1.0000 0.34040  0.09100  0.00500  Biso   1.000  O
  O16      1.0000 0.65960  0.90900  0.99500  Biso   1.000  O
