data_image0
_cell_length_a       11.4778
_cell_length_b       13.1159
_cell_length_c       24.903
_cell_angle_alpha    90
_cell_angle_beta     102.761
_cell_angle_gamma    90

_symmetry_space_group_name_H-M    "P 1"
_symmetry_int_tables_number       1

loop_
  _symmetry_equiv_pos_as_xyz
  'x, y, z'

loop_
  _atom_site_label
  _atom_site_occupancy
  _atom_site_fract_x
  _atom_site_fract_y
  _atom_site_fract_z
  _atom_site_thermal_displace_type
  _atom_site_B_iso_or_equiv
  _atom_site_type_symbol
  C1       1.0000 0.53240  0.89470  0.21660  Biso   1.000  C
  C2       1.0000 0.46760  0.39470  0.28340  Biso   1.000  C
  C3       1.0000 0.46760  0.10530  0.78340  Biso   1.000  C
  C4       1.0000 0.53240  0.60530  0.71660  Biso   1.000  C
  H1       1.0000 0.46760  0.88080  0.23480  Biso   1.000  H
  H2       1.0000 0.53240  0.38080  0.26520  Biso   1.000  H
  H3       1.0000 0.53240  0.11920  0.76520  Biso   1.000  H
  H4       1.0000 0.46760  0.61920  0.73480  Biso   1.000  H
  H5       1.0000 0.50800  0.87150  0.17880  Biso   1.000  H
  H6       1.0000 0.49200  0.37150  0.32120  Biso   1.000  H
  H7       1.0000 0.49200  0.12850  0.82120  Biso   1.000  H
  H8       1.0000 0.50800  0.62850  0.67880  Biso   1.000  H
  C5       1.0000 0.63720  0.81900  0.30139  Biso   1.000  C
  C6       1.0000 0.36280  0.31900  0.19861  Biso   1.000  C
  C7       1.0000 0.36280  0.18100  0.69861  Biso   1.000  C
  C8       1.0000 0.63720  0.68100  0.80139  Biso   1.000  C
  H9       1.0000 0.58900  0.75910  0.30370  Biso   1.000  H
  H10      1.0000 0.41100  0.25910  0.19630  Biso   1.000  H
  H11      1.0000 0.41100  0.24090  0.69630  Biso   1.000  H
  H12      1.0000 0.58900  0.74090  0.80370  Biso   1.000  H
  H13      1.0000 0.60020  0.87640  0.31570  Biso   1.000  H
  H14      1.0000 0.39980  0.37640  0.18430  Biso   1.000  H
  H15      1.0000 0.39980  0.12360  0.68430  Biso   1.000  H
  H16      1.0000 0.60020  0.62360  0.81570  Biso   1.000  H
  C9       1.0000 0.76100  0.80270  0.33712  Biso   1.000  C
  C10      1.0000 0.23900  0.30270  0.16288  Biso   1.000  C
  C11      1.0000 0.23900  0.19730  0.66288  Biso   1.000  C
  C12      1.0000 0.76100  0.69730  0.83712  Biso   1.000  C
  C13      1.0000 0.94230  0.83360  0.38553  Biso   1.000  C
  C14      1.0000 0.05770  0.33360  0.11447  Biso   1.000  C
  C15      1.0000 0.05770  0.16640  0.61447  Biso   1.000  C
  C16      1.0000 0.94230  0.66640  0.88553  Biso   1.000  C
  C17      1.0000 0.04900  0.87490  0.41550  Biso   1.000  C
  C18      1.0000 0.95100  0.37490  0.08450  Biso   1.000  C
  C19      1.0000 0.95100  0.12510  0.58450  Biso   1.000  C
  C20      1.0000 0.04900  0.62510  0.91550  Biso   1.000  C
  H17      1.0000 0.06180  0.94500  0.41740  Biso   1.000  H
  H18      1.0000 0.93820  0.44500  0.08260  Biso   1.000  H
  H19      1.0000 0.93820  0.05500  0.58260  Biso   1.000  H
  H20      1.0000 0.06180  0.55500  0.91740  Biso   1.000  H
  C21      1.0000 0.13330  0.80860  0.44200  Biso   1.000  C
  C22      1.0000 0.86670  0.30860  0.05800  Biso   1.000  C
  C23      1.0000 0.86670  0.19140  0.55800  Biso   1.000  C
  C24      1.0000 0.13330  0.69140  0.94200  Biso   1.000  C
  H21      1.0000 0.20640  0.83330  0.46150  Biso   1.000  H
  H22      1.0000 0.79360  0.33330  0.03850  Biso   1.000  H
  H23      1.0000 0.79360  0.16670  0.53850  Biso   1.000  H
  H24      1.0000 0.20640  0.66670  0.96150  Biso   1.000  H
  C25      1.0000 0.11160  0.70420  0.44026  Biso   1.000  C
  C26      1.0000 0.88840  0.20420  0.05974  Biso   1.000  C
  C27      1.0000 0.88840  0.29580  0.55974  Biso   1.000  C
  C28      1.0000 0.11160  0.79580  0.94026  Biso   1.000  C
  H25      1.0000 0.17170  0.66150  0.45900  Biso   1.000  H
  H26      1.0000 0.82830  0.16150  0.04100  Biso   1.000  H
  H27      1.0000 0.82830  0.33850  0.54100  Biso   1.000  H
  H28      1.0000 0.17170  0.83850  0.95900  Biso   1.000  H
  C29      1.0000 0.00820  0.66080  0.41290  Biso   1.000  C
  C30      1.0000 0.99180  0.16080  0.08710  Biso   1.000  C
  C31      1.0000 0.99180  0.33920  0.58710  Biso   1.000  C
  C32      1.0000 0.00820  0.83920  0.91290  Biso   1.000  C
  H29      1.0000 0.99600  0.59080  0.41310  Biso   1.000  H
  H30      1.0000 0.00400  0.09080  0.08690  Biso   1.000  H
  H31      1.0000 0.00400  0.40920  0.58690  Biso   1.000  H
  H32      1.0000 0.99600  0.90920  0.91310  Biso   1.000  H
  C33      1.0000 0.92250  0.72630  0.38494  Biso   1.000  C
  C34      1.0000 0.07750  0.22630  0.11506  Biso   1.000  C
  C35      1.0000 0.07750  0.27370  0.61506  Biso   1.000  C
  C36      1.0000 0.92250  0.77370  0.88494  Biso   1.000  C
  C37      1.0000 0.65060  0.74680  0.21574  Biso   1.000  C
  C38      1.0000 0.34940  0.24680  0.28426  Biso   1.000  C
  C39      1.0000 0.34940  0.25320  0.78426  Biso   1.000  C
  C40      1.0000 0.65060  0.75320  0.71574  Biso   1.000  C
  H33      1.0000 0.57250  0.71650  0.20240  Biso   1.000  H
  H34      1.0000 0.42750  0.21650  0.29760  Biso   1.000  H
  H35      1.0000 0.42750  0.28350  0.79760  Biso   1.000  H
  H36      1.0000 0.57250  0.78350  0.70240  Biso   1.000  H
  H37      1.0000 0.69800  0.69930  0.24150  Biso   1.000  H
  H38      1.0000 0.30200  0.19930  0.25850  Biso   1.000  H
  H39      1.0000 0.30200  0.30070  0.75850  Biso   1.000  H
  H40      1.0000 0.69800  0.80070  0.74150  Biso   1.000  H
  C41      1.0000 0.70890  0.76130  0.16802  Biso   1.000  C
  C42      1.0000 0.29110  0.26130  0.33198  Biso   1.000  C
  C43      1.0000 0.29110  0.23870  0.83198  Biso   1.000  C
  C44      1.0000 0.70890  0.73870  0.66802  Biso   1.000  C
  C45      1.0000 0.78520  0.84450  0.10654  Biso   1.000  C
  C46      1.0000 0.21480  0.34450  0.39346  Biso   1.000  C
  C47      1.0000 0.21480  0.15550  0.89346  Biso   1.000  C
  C48      1.0000 0.78520  0.65550  0.60654  Biso   1.000  C
  C49      1.0000 0.83100  0.91450  0.07394  Biso   1.000  C
  C50      1.0000 0.16900  0.41450  0.42606  Biso   1.000  C
  C51      1.0000 0.16900  0.08550  0.92606  Biso   1.000  C
  C52      1.0000 0.83100  0.58550  0.57394  Biso   1.000  C
  H41      1.0000 0.81860  0.98420  0.07690  Biso   1.000  H
  H42      1.0000 0.18140  0.48420  0.42310  Biso   1.000  H
  H43      1.0000 0.18140  0.01580  0.92310  Biso   1.000  H
  H44      1.0000 0.81860  0.51580  0.57690  Biso   1.000  H
  C53      1.0000 0.89520  0.87710  0.03730  Biso   1.000  C
  C54      1.0000 0.10480  0.37710  0.46270  Biso   1.000  C
  C55      1.0000 0.10480  0.12290  0.96270  Biso   1.000  C
  C56      1.0000 0.89520  0.62290  0.53730  Biso   1.000  C
  H45      1.0000 0.92560  0.92150  0.01470  Biso   1.000  H
  H46      1.0000 0.07440  0.42150  0.48530  Biso   1.000  H
  H47      1.0000 0.07440  0.07850  0.98530  Biso   1.000  H
  H48      1.0000 0.92560  0.57850  0.51470  Biso   1.000  H
  C57      1.0000 0.91320  0.77670  0.03452  Biso   1.000  C
  C58      1.0000 0.08680  0.27670  0.46548  Biso   1.000  C
  C59      1.0000 0.08680  0.22330  0.96548  Biso   1.000  C
  C60      1.0000 0.91320  0.72330  0.53452  Biso   1.000  C
  H49      1.0000 0.95890  0.75430  0.01030  Biso   1.000  H
  H50      1.0000 0.04110  0.25430  0.48970  Biso   1.000  H
  H51      1.0000 0.04110  0.24570  0.98970  Biso   1.000  H
  H52      1.0000 0.95890  0.74570  0.51030  Biso   1.000  H
  C61      1.0000 0.86850  0.70180  0.06536  Biso   1.000  C
  C62      1.0000 0.13150  0.20180  0.43464  Biso   1.000  C
  C63      1.0000 0.13150  0.29820  0.93464  Biso   1.000  C
  C64      1.0000 0.86850  0.79820  0.56536  Biso   1.000  C
  H53      1.0000 0.88190  0.63250  0.06170  Biso   1.000  H
  H54      1.0000 0.11810  0.13250  0.43830  Biso   1.000  H
  H55      1.0000 0.11810  0.36750  0.93830  Biso   1.000  H
  H56      1.0000 0.88190  0.86750  0.56170  Biso   1.000  H
  C65      1.0000 0.80200  0.74010  0.10205  Biso   1.000  C
  C66      1.0000 0.19800  0.24010  0.39795  Biso   1.000  C
  C67      1.0000 0.19800  0.25990  0.89795  Biso   1.000  C
  C68      1.0000 0.80200  0.75990  0.60205  Biso   1.000  C
  C69      1.0000 0.96240  0.22650  0.28876  Biso   1.000  C
  C70      1.0000 0.03760  0.72650  0.21124  Biso   1.000  C
  C71      1.0000 0.03760  0.77350  0.71124  Biso   1.000  C
  C72      1.0000 0.96240  0.27350  0.78876  Biso   1.000  C
  H57      1.0000 0.98510  0.25010  0.32660  Biso   1.000  H
  H58      1.0000 0.01490  0.75010  0.17340  Biso   1.000  H
  H59      1.0000 0.01490  0.74990  0.67340  Biso   1.000  H
  H60      1.0000 0.98510  0.24990  0.82660  Biso   1.000  H
  H61      1.0000 0.02880  0.23920  0.27140  Biso   1.000  H
  H62      1.0000 0.97120  0.73920  0.22860  Biso   1.000  H
  H63      1.0000 0.97120  0.76080  0.72860  Biso   1.000  H
  H64      1.0000 0.02880  0.26080  0.77140  Biso   1.000  H
  C73      1.0000 0.85890  0.30790  0.20120  Biso   1.000  C
  C74      1.0000 0.14110  0.80790  0.29880  Biso   1.000  C
  C75      1.0000 0.14110  0.69210  0.79880  Biso   1.000  C
  C76      1.0000 0.85890  0.19210  0.70120  Biso   1.000  C
  H65      1.0000 0.90910  0.36710  0.20050  Biso   1.000  H
  H66      1.0000 0.09090  0.86710  0.29950  Biso   1.000  H
  H67      1.0000 0.09090  0.63290  0.79950  Biso   1.000  H
  H68      1.0000 0.90910  0.13290  0.70050  Biso   1.000  H
  H69      1.0000 0.89560  0.25080  0.18640  Biso   1.000  H
  H70      1.0000 0.10440  0.75080  0.31360  Biso   1.000  H
  H71      1.0000 0.10440  0.74920  0.81360  Biso   1.000  H
  H72      1.0000 0.89560  0.24920  0.68640  Biso   1.000  H
  C77      1.0000 0.74500  0.32680  0.16620  Biso   1.000  C
  C78      1.0000 0.25500  0.82680  0.33380  Biso   1.000  C
  C79      1.0000 0.25500  0.67320  0.83380  Biso   1.000  C
  C80      1.0000 0.74500  0.17320  0.66620  Biso   1.000  C
  C81      1.0000 0.56510  0.28810  0.11473  Biso   1.000  C
  C82      1.0000 0.43490  0.78810  0.38527  Biso   1.000  C
  C83      1.0000 0.43490  0.71190  0.88527  Biso   1.000  C
  C84      1.0000 0.56510  0.21190  0.61473  Biso   1.000  C
  C85      1.0000 0.46150  0.24490  0.08760  Biso   1.000  C
  C86      1.0000 0.53850  0.74490  0.41240  Biso   1.000  C
  C87      1.0000 0.53850  0.75510  0.91240  Biso   1.000  C
  C88      1.0000 0.46150  0.25510  0.58760  Biso   1.000  C
  H73      1.0000 0.44610  0.17590  0.09100  Biso   1.000  H
  H74      1.0000 0.55390  0.67590  0.40900  Biso   1.000  H
  H75      1.0000 0.55390  0.82410  0.90900  Biso   1.000  H
  H76      1.0000 0.44610  0.32410  0.59100  Biso   1.000  H
  C89      1.0000 0.37790  0.31000  0.05380  Biso   1.000  C
  C90      1.0000 0.62210  0.81000  0.44620  Biso   1.000  C
  C91      1.0000 0.62210  0.69000  0.94620  Biso   1.000  C
  C92      1.0000 0.37790  0.19000  0.55380  Biso   1.000  C
  H77      1.0000 0.30640  0.28310  0.03400  Biso   1.000  H
  H78      1.0000 0.69360  0.78310  0.46600  Biso   1.000  H
  H79      1.0000 0.69360  0.71690  0.96600  Biso   1.000  H
  H80      1.0000 0.30640  0.21690  0.53400  Biso   1.000  H
  C93      1.0000 0.40090  0.41440  0.04960  Biso   1.000  C
  C94      1.0000 0.59910  0.91440  0.45040  Biso   1.000  C
  C95      1.0000 0.59910  0.58560  0.95040  Biso   1.000  C
  C96      1.0000 0.40090  0.08560  0.54960  Biso   1.000  C
  H81      1.0000 0.34430  0.45610  0.02760  Biso   1.000  H
  H82      1.0000 0.65570  0.95610  0.47240  Biso   1.000  H
  H83      1.0000 0.65570  0.54390  0.97240  Biso   1.000  H
  H84      1.0000 0.34430  0.04390  0.52760  Biso   1.000  H
  C97      1.0000 0.51070  0.45630  0.07900  Biso   1.000  C
  C98      1.0000 0.48930  0.95630  0.42100  Biso   1.000  C
  C99      1.0000 0.48930  0.54370  0.92100  Biso   1.000  C
  C100     1.0000 0.51070  0.04370  0.57900  Biso   1.000  C
  H85      1.0000 0.52790  0.52510  0.07630  Biso   1.000  H
  H86      1.0000 0.47210  0.02510  0.42370  Biso   1.000  H
  H87      1.0000 0.47210  0.47490  0.92370  Biso   1.000  H
  H88      1.0000 0.52790  0.97490  0.57630  Biso   1.000  H
  C101     1.0000 0.59040  0.39200  0.11151  Biso   1.000  C
  C102     1.0000 0.40960  0.89200  0.38849  Biso   1.000  C
  C103     1.0000 0.40960  0.60800  0.88849  Biso   1.000  C
  C104     1.0000 0.59040  0.10800  0.61151  Biso   1.000  C
  C105     1.0000 0.83920  0.38120  0.28930  Biso   1.000  C
  C106     1.0000 0.16080  0.88120  0.21070  Biso   1.000  C
  C107     1.0000 0.16080  0.61880  0.71070  Biso   1.000  C
  C108     1.0000 0.83920  0.11880  0.78930  Biso   1.000  C
  H89      1.0000 0.79220  0.42960  0.26400  Biso   1.000  H
  H90      1.0000 0.20780  0.92960  0.23600  Biso   1.000  H
  H91      1.0000 0.20780  0.57040  0.73600  Biso   1.000  H
  H92      1.0000 0.79220  0.07040  0.76400  Biso   1.000  H
  H93      1.0000 0.91630  0.41180  0.30460  Biso   1.000  H
  H94      1.0000 0.08370  0.91180  0.19540  Biso   1.000  H
  H95      1.0000 0.08370  0.58820  0.69540  Biso   1.000  H
  H96      1.0000 0.91630  0.08820  0.80460  Biso   1.000  H
  C109     1.0000 0.77670  0.35780  0.33490  Biso   1.000  C
  C110     1.0000 0.22330  0.85780  0.16510  Biso   1.000  C
  C111     1.0000 0.22330  0.64220  0.66510  Biso   1.000  C
  C112     1.0000 0.77670  0.14220  0.83490  Biso   1.000  C
  C113     1.0000 0.69780  0.28020  0.39157  Biso   1.000  C
  C114     1.0000 0.30220  0.78020  0.10843  Biso   1.000  C
  C115     1.0000 0.30220  0.71980  0.60843  Biso   1.000  C
  C116     1.0000 0.69780  0.21980  0.89157  Biso   1.000  C
  C117     1.0000 0.64060  0.20950  0.42130  Biso   1.000  C
  C118     1.0000 0.35940  0.70950  0.07870  Biso   1.000  C
  C119     1.0000 0.35940  0.79050  0.57870  Biso   1.000  C
  C120     1.0000 0.64060  0.29050  0.92130  Biso   1.000  C
  H97      1.0000 0.64280  0.13980  0.41500  Biso   1.000  H
  H98      1.0000 0.35720  0.63980  0.08500  Biso   1.000  H
  H99      1.0000 0.35720  0.86020  0.58500  Biso   1.000  H
  H100     1.0000 0.64280  0.36020  0.91500  Biso   1.000  H
  C121     1.0000 0.58220  0.24830  0.45970  Biso   1.000  C
  C122     1.0000 0.41780  0.74830  0.04030  Biso   1.000  C
  C123     1.0000 0.41780  0.75170  0.54030  Biso   1.000  C
  C124     1.0000 0.58220  0.25170  0.95970  Biso   1.000  C
  H101     1.0000 0.54540  0.20390  0.47990  Biso   1.000  H
  H102     1.0000 0.45460  0.70390  0.02010  Biso   1.000  H
  H103     1.0000 0.45460  0.79610  0.52010  Biso   1.000  H
  H104     1.0000 0.54540  0.29610  0.97990  Biso   1.000  H
  C125     1.0000 0.57720  0.35590  0.46890  Biso   1.000  C
  C126     1.0000 0.42280  0.85590  0.03110  Biso   1.000  C
  C127     1.0000 0.42280  0.64410  0.53110  Biso   1.000  C
  C128     1.0000 0.57720  0.14410  0.96890  Biso   1.000  C
  H105     1.0000 0.53630  0.38070  0.49450  Biso   1.000  H
  H106     1.0000 0.46370  0.88070  0.00550  Biso   1.000  H
  H107     1.0000 0.46370  0.61930  0.50550  Biso   1.000  H
  H108     1.0000 0.53630  0.11930  0.99450  Biso   1.000  H
  C129     1.0000 0.63180  0.42140  0.44040  Biso   1.000  C
  C130     1.0000 0.36820  0.92140  0.05960  Biso   1.000  C
  C131     1.0000 0.36820  0.57860  0.55960  Biso   1.000  C
  C132     1.0000 0.63180  0.07860  0.94040  Biso   1.000  C
  H109     1.0000 0.63030  0.49110  0.44720  Biso   1.000  H
  H110     1.0000 0.36970  0.99110  0.05280  Biso   1.000  H
  H111     1.0000 0.36970  0.50890  0.55280  Biso   1.000  H
  H112     1.0000 0.63030  0.00890  0.94720  Biso   1.000  H
  C133     1.0000 0.69070  0.38440  0.40075  Biso   1.000  C
  C134     1.0000 0.30930  0.88440  0.09925  Biso   1.000  C
  C135     1.0000 0.30930  0.61560  0.59925  Biso   1.000  C
  C136     1.0000 0.69070  0.11560  0.90075  Biso   1.000  C
  Cu1      1.0000 0.73827  0.57698  0.34888  Biso   1.000  Cu
  Cu2      1.0000 0.26173  0.07698  0.15112  Biso   1.000  Cu
  Cu3      1.0000 0.26173  0.42302  0.65112  Biso   1.000  Cu
  Cu4      1.0000 0.73827  0.92302  0.84888  Biso   1.000  Cu
  Cu5      1.0000 0.76779  0.54671  0.15368  Biso   1.000  Cu
  Cu6      1.0000 0.23221  0.04671  0.34632  Biso   1.000  Cu
  Cu7      1.0000 0.23221  0.45329  0.84632  Biso   1.000  Cu
  Cu8      1.0000 0.76779  0.95329  0.65368  Biso   1.000  Cu
  N1       1.0000 0.63720  0.83820  0.24395  Biso   1.000  N
  N2       1.0000 0.36280  0.33820  0.25605  Biso   1.000  N
  N3       1.0000 0.36280  0.16180  0.75605  Biso   1.000  N
  N4       1.0000 0.63720  0.66180  0.74395  Biso   1.000  N
  N5       1.0000 0.80830  0.70790  0.35447  Biso   1.000  N
  N6       1.0000 0.19170  0.20790  0.14553  Biso   1.000  N
  N7       1.0000 0.19170  0.29210  0.64553  Biso   1.000  N
  N8       1.0000 0.80830  0.79210  0.85447  Biso   1.000  N
  N9       1.0000 0.84090  0.87520  0.35526  Biso   1.000  N
  N10      1.0000 0.15910  0.37520  0.14474  Biso   1.000  N
  N11      1.0000 0.15910  0.12480  0.64474  Biso   1.000  N
  N12      1.0000 0.84090  0.62480  0.85526  Biso   1.000  N
  H113     1.0000 0.82970  0.93930  0.34870  Biso   1.000  H
  H114     1.0000 0.17030  0.43930  0.15130  Biso   1.000  H
  H115     1.0000 0.17030  0.06070  0.65130  Biso   1.000  H
  H116     1.0000 0.82970  0.56070  0.84870  Biso   1.000  H
  N13      1.0000 0.75310  0.68980  0.14025  Biso   1.000  N
  N14      1.0000 0.24690  0.18980  0.35975  Biso   1.000  N
  N15      1.0000 0.24690  0.31020  0.85975  Biso   1.000  N
  N16      1.0000 0.75310  0.81020  0.64025  Biso   1.000  N
  N17      1.0000 0.72650  0.85690  0.14868  Biso   1.000  N
  N18      1.0000 0.27350  0.35690  0.35132  Biso   1.000  N
  N19      1.0000 0.27350  0.14310  0.85132  Biso   1.000  N
  N20      1.0000 0.72650  0.64310  0.64868  Biso   1.000  N
  H117     1.0000 0.70480  0.91380  0.16060  Biso   1.000  H
  H118     1.0000 0.29520  0.41380  0.33940  Biso   1.000  H
  H119     1.0000 0.29520  0.08620  0.83940  Biso   1.000  H
  H120     1.0000 0.70480  0.58620  0.66060  Biso   1.000  H
  N21      1.0000 0.85580  0.28510  0.25912  Biso   1.000  N
  N22      1.0000 0.14420  0.78510  0.24088  Biso   1.000  N
  N23      1.0000 0.14420  0.71490  0.74088  Biso   1.000  N
  N24      1.0000 0.85580  0.21490  0.75912  Biso   1.000  N
  N25      1.0000 0.70250  0.41260  0.14442  Biso   1.000  N
  N26      1.0000 0.29750  0.91260  0.35558  Biso   1.000  N
  N27      1.0000 0.29750  0.58740  0.85558  Biso   1.000  N
  N28      1.0000 0.70250  0.08740  0.64442  Biso   1.000  N
  N29      1.0000 0.66430  0.24920  0.15012  Biso   1.000  N
  N30      1.0000 0.33570  0.74920  0.34988  Biso   1.000  N
  N31      1.0000 0.33570  0.75080  0.84988  Biso   1.000  N
  N32      1.0000 0.66430  0.25080  0.65012  Biso   1.000  N
  H121     1.0000 0.67420  0.18660  0.16050  Biso   1.000  H
  H122     1.0000 0.32580  0.68660  0.33950  Biso   1.000  H
  H123     1.0000 0.32580  0.81340  0.83950  Biso   1.000  H
  H124     1.0000 0.67420  0.31340  0.66050  Biso   1.000  H
  N33      1.0000 0.74770  0.43130  0.36457  Biso   1.000  N
  N34      1.0000 0.25230  0.93130  0.13543  Biso   1.000  N
  N35      1.0000 0.25230  0.56870  0.63543  Biso   1.000  N
  N36      1.0000 0.74770  0.06870  0.86457  Biso   1.000  N
  N37      1.0000 0.75440  0.27030  0.35112  Biso   1.000  N
  N38      1.0000 0.24560  0.77030  0.14888  Biso   1.000  N
  N39      1.0000 0.24560  0.72970  0.64888  Biso   1.000  N
  N40      1.0000 0.75440  0.22970  0.85112  Biso   1.000  N
  H125     1.0000 0.77300  0.21340  0.33800  Biso   1.000  H
  H126     1.0000 0.22700  0.71340  0.16200  Biso   1.000  H
  H127     1.0000 0.22700  0.78660  0.66200  Biso   1.000  H
  H128     1.0000 0.77300  0.28660  0.83800  Biso   1.000  H
  O1       1.0000 0.44190  0.08620  0.19255  Biso   1.000  O
  O2       1.0000 0.55810  0.58620  0.30745  Biso   1.000  O
  O3       1.0000 0.55810  0.91380  0.80745  Biso   1.000  O
  O4       1.0000 0.44190  0.41380  0.69255  Biso   1.000  O
  O5       1.0000 0.65740  0.04570  0.18648  Biso   1.000  O
  O6       1.0000 0.34260  0.54570  0.31352  Biso   1.000  O
  O7       1.0000 0.34260  0.95430  0.81352  Biso   1.000  O
  O8       1.0000 0.65740  0.45430  0.68648  Biso   1.000  O
  O9       1.0000 0.60210  0.06530  0.28001  Biso   1.000  O
  O10      1.0000 0.39790  0.56530  0.21999  Biso   1.000  O
  O11      1.0000 0.39790  0.93470  0.71999  Biso   1.000  O
  O12      1.0000 0.60210  0.43470  0.78001  Biso   1.000  O
  H129     1.0000 0.67530  0.06740  0.28820  Biso   1.000  H
  H130     1.0000 0.32470  0.56740  0.21180  Biso   1.000  H
  H131     1.0000 0.32470  0.93260  0.71180  Biso   1.000  H
  H132     1.0000 0.67530  0.43260  0.78820  Biso   1.000  H
  O13      1.0000 0.04860  0.03600  0.31266  Biso   1.000  O
  O14      1.0000 0.95140  0.53600  0.18734  Biso   1.000  O
  O15      1.0000 0.95140  0.96400  0.68734  Biso   1.000  O
  O16      1.0000 0.04860  0.46400  0.81266  Biso   1.000  O
  O17      1.0000 0.83080  0.07820  0.31654  Biso   1.000  O
  O18      1.0000 0.16920  0.57820  0.18346  Biso   1.000  O
  O19      1.0000 0.16920  0.92180  0.68346  Biso   1.000  O
  O20      1.0000 0.83080  0.42180  0.81654  Biso   1.000  O
  O21      1.0000 0.88970  0.06030  0.22659  Biso   1.000  O
  O22      1.0000 0.11030  0.56030  0.27341  Biso   1.000  O
  O23      1.0000 0.11030  0.93970  0.77341  Biso   1.000  O
  O24      1.0000 0.88970  0.43970  0.72659  Biso   1.000  O
  H133     1.0000 0.83110  0.10830  0.20820  Biso   1.000  H
  H134     1.0000 0.16890  0.60830  0.29180  Biso   1.000  H
  H135     1.0000 0.16890  0.89170  0.79180  Biso   1.000  H
  H136     1.0000 0.83110  0.39170  0.70820  Biso   1.000  H
  P1       1.0000 0.55850  0.03056  0.21698  Biso   1.000  P
  P2       1.0000 0.44150  0.53056  0.28302  Biso   1.000  P
  P3       1.0000 0.44150  0.96944  0.78302  Biso   1.000  P
  P4       1.0000 0.55850  0.46944  0.71698  Biso   1.000  P
  P5       1.0000 0.93322  0.09318  0.28819  Biso   1.000  P
  P6       1.0000 0.06678  0.59318  0.21181  Biso   1.000  P
  P7       1.0000 0.06678  0.90682  0.71181  Biso   1.000  P
  P8       1.0000 0.93322  0.40682  0.78819  Biso   1.000  P
