data_image0
_cell_length_a       26.3331
_cell_length_b       5.2292
_cell_length_c       23.7064
_cell_angle_alpha    90
_cell_angle_beta     122.678
_cell_angle_gamma    90

_symmetry_space_group_name_H-M    "P 1"
_symmetry_int_tables_number       1

loop_
  _symmetry_equiv_pos_as_xyz
  'x, y, z'

loop_
  _atom_site_label
  _atom_site_occupancy
  _atom_site_fract_x
  _atom_site_fract_y
  _atom_site_fract_z
  _atom_site_thermal_displace_type
  _atom_site_B_iso_or_equiv
  _atom_site_type_symbol
  Cu1      1.0000 0.03197  0.15660  0.08276  Biso   1.000  Cu
  Cu2      1.0000 0.96803  0.15660  0.41724  Biso   1.000  Cu
  Cu3      1.0000 0.53197  0.65660  0.08276  Biso   1.000  Cu
  Cu4      1.0000 0.46803  0.65660  0.41724  Biso   1.000  Cu
  Cu5      1.0000 0.96803  0.84340  0.91724  Biso   1.000  Cu
  Cu6      1.0000 0.03197  0.84340  0.58276  Biso   1.000  Cu
  Cu7      1.0000 0.46803  0.34340  0.91724  Biso   1.000  Cu
  Cu8      1.0000 0.53197  0.34340  0.58276  Biso   1.000  Cu
  Cu9      1.0000 0.00000  0.74075  0.25000  Biso   1.000  Cu
  Cu10     1.0000 0.50000  0.24075  0.25000  Biso   1.000  Cu
  Cu11     1.0000 0.00000  0.25925  0.75000  Biso   1.000  Cu
  Cu12     1.0000 0.50000  0.75925  0.75000  Biso   1.000  Cu
  N1       1.0000 0.99220  0.58150  0.98040  Biso   1.000  N
  N2       1.0000 0.00780  0.58150  0.51960  Biso   1.000  N
  N3       1.0000 0.49220  0.08150  0.98040  Biso   1.000  N
  N4       1.0000 0.50780  0.08150  0.51960  Biso   1.000  N
  N5       1.0000 0.00780  0.41850  0.01960  Biso   1.000  N
  N6       1.0000 0.99220  0.41850  0.48040  Biso   1.000  N
  N7       1.0000 0.50780  0.91850  0.01960  Biso   1.000  N
  N8       1.0000 0.49220  0.91850  0.48040  Biso   1.000  N
  N9       1.0000 0.01766  0.00950  0.14605  Biso   1.000  N
  N10      1.0000 0.98234  0.00950  0.35395  Biso   1.000  N
  N11      1.0000 0.51766  0.50950  0.14605  Biso   1.000  N
  N12      1.0000 0.48234  0.50950  0.35395  Biso   1.000  N
  N13      1.0000 0.98234  0.99050  0.85395  Biso   1.000  N
  N14      1.0000 0.01766  0.99050  0.64605  Biso   1.000  N
  N15      1.0000 0.48234  0.49050  0.85395  Biso   1.000  N
  N16      1.0000 0.51766  0.49050  0.64605  Biso   1.000  N
  C1       1.0000 0.01250  0.90950  0.18654  Biso   1.000  C
  C2       1.0000 0.98750  0.90950  0.31346  Biso   1.000  C
  C3       1.0000 0.51250  0.40950  0.18654  Biso   1.000  C
  C4       1.0000 0.48750  0.40950  0.31346  Biso   1.000  C
  C5       1.0000 0.98750  0.09050  0.81346  Biso   1.000  C
  C6       1.0000 0.01250  0.09050  0.68654  Biso   1.000  C
  C7       1.0000 0.48750  0.59050  0.81346  Biso   1.000  C
  C8       1.0000 0.51250  0.59050  0.68654  Biso   1.000  C
  N17      1.0000 0.10508  0.92100  0.09847  Biso   1.000  N
  N18      1.0000 0.89492  0.92100  0.40153  Biso   1.000  N
  N19      1.0000 0.60508  0.42100  0.09847  Biso   1.000  N
  N20      1.0000 0.39492  0.42100  0.40153  Biso   1.000  N
  N21      1.0000 0.89492  0.07900  0.90153  Biso   1.000  N
  N22      1.0000 0.10508  0.07900  0.59847  Biso   1.000  N
  N23      1.0000 0.39492  0.57900  0.90153  Biso   1.000  N
  N24      1.0000 0.60508  0.57900  0.59847  Biso   1.000  N
  N25      1.0000 0.93056  0.45540  0.19175  Biso   1.000  N
  N26      1.0000 0.06944  0.45540  0.30825  Biso   1.000  N
  N27      1.0000 0.43056  0.95540  0.19175  Biso   1.000  N
  N28      1.0000 0.56944  0.95540  0.30825  Biso   1.000  N
  N29      1.0000 0.06944  0.54460  0.80825  Biso   1.000  N
  N30      1.0000 0.93056  0.54460  0.69175  Biso   1.000  N
  N31      1.0000 0.56944  0.04460  0.80825  Biso   1.000  N
  N32      1.0000 0.43056  0.04460  0.69175  Biso   1.000  N
  C9       1.0000 0.12757  0.95020  0.05353  Biso   1.000  C
  C10      1.0000 0.87243  0.95020  0.44647  Biso   1.000  C
  C11      1.0000 0.62757  0.45020  0.05353  Biso   1.000  C
  C12      1.0000 0.37243  0.45020  0.44647  Biso   1.000  C
  C13      1.0000 0.87243  0.04980  0.94647  Biso   1.000  C
  C14      1.0000 0.12757  0.04980  0.55353  Biso   1.000  C
  C15      1.0000 0.37243  0.54980  0.94647  Biso   1.000  C
  C16      1.0000 0.62757  0.54980  0.55353  Biso   1.000  C
  C17      1.0000 0.15720  0.20870  0.06378  Biso   1.000  C
  C18      1.0000 0.84280  0.20870  0.43622  Biso   1.000  C
  C19      1.0000 0.65720  0.70870  0.06378  Biso   1.000  C
  C20      1.0000 0.34280  0.70870  0.43622  Biso   1.000  C
  C21      1.0000 0.84280  0.79130  0.93622  Biso   1.000  C
  C22      1.0000 0.15720  0.79130  0.56378  Biso   1.000  C
  C23      1.0000 0.34280  0.29130  0.93622  Biso   1.000  C
  C24      1.0000 0.65720  0.29130  0.56378  Biso   1.000  C
  C25      1.0000 0.20774  0.24600  0.13686  Biso   1.000  C
  C26      1.0000 0.79226  0.24600  0.36314  Biso   1.000  C
  C27      1.0000 0.70774  0.74600  0.13686  Biso   1.000  C
  C28      1.0000 0.29226  0.74600  0.36314  Biso   1.000  C
  C29      1.0000 0.79226  0.75400  0.86314  Biso   1.000  C
  C30      1.0000 0.20774  0.75400  0.63686  Biso   1.000  C
  C31      1.0000 0.29226  0.25400  0.86314  Biso   1.000  C
  C32      1.0000 0.70774  0.25400  0.63686  Biso   1.000  C
  C33      1.0000 0.18496  0.19550  0.18288  Biso   1.000  C
  C34      1.0000 0.81504  0.19550  0.31712  Biso   1.000  C
  C35      1.0000 0.68496  0.69550  0.18288  Biso   1.000  C
  C36      1.0000 0.31504  0.69550  0.31712  Biso   1.000  C
  C37      1.0000 0.81504  0.80450  0.81712  Biso   1.000  C
  C38      1.0000 0.18496  0.80450  0.68288  Biso   1.000  C
  C39      1.0000 0.31504  0.30450  0.81712  Biso   1.000  C
  C40      1.0000 0.68496  0.30450  0.68288  Biso   1.000  C
  C41      1.0000 0.15548  0.93440  0.16927  Biso   1.000  C
  C42      1.0000 0.84452  0.93440  0.33073  Biso   1.000  C
  C43      1.0000 0.65548  0.43440  0.16927  Biso   1.000  C
  C44      1.0000 0.34452  0.43440  0.33073  Biso   1.000  C
  C45      1.0000 0.84452  0.06560  0.83073  Biso   1.000  C
  C46      1.0000 0.15548  0.06560  0.66927  Biso   1.000  C
  C47      1.0000 0.34452  0.56560  0.83073  Biso   1.000  C
  C48      1.0000 0.65548  0.56560  0.66927  Biso   1.000  C
  C49      1.0000 0.88640  0.42960  0.21160  Biso   1.000  C
  C50      1.0000 0.11360  0.42960  0.28840  Biso   1.000  C
  C51      1.0000 0.38640  0.92960  0.21160  Biso   1.000  C
  C52      1.0000 0.61360  0.92960  0.28840  Biso   1.000  C
  C53      1.0000 0.11360  0.57040  0.78840  Biso   1.000  C
  C54      1.0000 0.88640  0.57040  0.71160  Biso   1.000  C
  C55      1.0000 0.61360  0.07040  0.78840  Biso   1.000  C
  C56      1.0000 0.38640  0.07040  0.71160  Biso   1.000  C
  C57      1.0000 0.84106  0.21610  0.17424  Biso   1.000  C
  C58      1.0000 0.15894  0.21610  0.32576  Biso   1.000  C
  C59      1.0000 0.34106  0.71610  0.17424  Biso   1.000  C
  C60      1.0000 0.65894  0.71610  0.32576  Biso   1.000  C
  C61      1.0000 0.15894  0.78390  0.82576  Biso   1.000  C
  C62      1.0000 0.84106  0.78390  0.67424  Biso   1.000  C
  C63      1.0000 0.65894  0.28390  0.82576  Biso   1.000  C
  C64      1.0000 0.34106  0.28390  0.67424  Biso   1.000  C
  C65      1.0000 0.80852  0.25020  0.09859  Biso   1.000  C
  C66      1.0000 0.19148  0.25020  0.40141  Biso   1.000  C
  C67      1.0000 0.30852  0.75020  0.09859  Biso   1.000  C
  C68      1.0000 0.69148  0.75020  0.40141  Biso   1.000  C
  C69      1.0000 0.19148  0.74980  0.90141  Biso   1.000  C
  C70      1.0000 0.80852  0.74980  0.59859  Biso   1.000  C
  C71      1.0000 0.69148  0.24980  0.90141  Biso   1.000  C
  C72      1.0000 0.30852  0.24980  0.59859  Biso   1.000  C
  C73      1.0000 0.85420  0.28020  0.07824  Biso   1.000  C
  C74      1.0000 0.14580  0.28020  0.42176  Biso   1.000  C
  C75      1.0000 0.35420  0.78020  0.07824  Biso   1.000  C
  C76      1.0000 0.64580  0.78020  0.42176  Biso   1.000  C
  C77      1.0000 0.14580  0.71980  0.92176  Biso   1.000  C
  C78      1.0000 0.85420  0.71980  0.57824  Biso   1.000  C
  C79      1.0000 0.64580  0.21980  0.92176  Biso   1.000  C
  C80      1.0000 0.35420  0.21980  0.57824  Biso   1.000  C
  C81      1.0000 0.89958  0.49100  0.11846  Biso   1.000  C
  C82      1.0000 0.10042  0.49100  0.38154  Biso   1.000  C
  C83      1.0000 0.39958  0.99100  0.11846  Biso   1.000  C
  C84      1.0000 0.60042  0.99100  0.38154  Biso   1.000  C
  C85      1.0000 0.10042  0.50900  0.88154  Biso   1.000  C
  C86      1.0000 0.89958  0.50900  0.61846  Biso   1.000  C
  C87      1.0000 0.60042  0.00900  0.88154  Biso   1.000  C
  C88      1.0000 0.39958  0.00900  0.61846  Biso   1.000  C
  H1       1.0000 0.08970  0.78400  0.09380  Biso   1.000  H
  H2       1.0000 0.91030  0.78400  0.40620  Biso   1.000  H
  H3       1.0000 0.58970  0.28400  0.09380  Biso   1.000  H
  H4       1.0000 0.41030  0.28400  0.40620  Biso   1.000  H
  H5       1.0000 0.91030  0.21600  0.90620  Biso   1.000  H
  H6       1.0000 0.08970  0.21600  0.59380  Biso   1.000  H
  H7       1.0000 0.41030  0.71600  0.90620  Biso   1.000  H
  H8       1.0000 0.58970  0.71600  0.59380  Biso   1.000  H
  H9       1.0000 0.94920  0.31100  0.20170  Biso   1.000  H
  H10      1.0000 0.05080  0.31100  0.29830  Biso   1.000  H
  H11      1.0000 0.44920  0.81100  0.20170  Biso   1.000  H
  H12      1.0000 0.55080  0.81100  0.29830  Biso   1.000  H
  H13      1.0000 0.05080  0.68900  0.79830  Biso   1.000  H
  H14      1.0000 0.94920  0.68900  0.70170  Biso   1.000  H
  H15      1.0000 0.55080  0.18900  0.79830  Biso   1.000  H
  H16      1.0000 0.44920  0.18900  0.70170  Biso   1.000  H
  H17      1.0000 0.09460  0.93200  0.01040  Biso   1.000  H
  H18      1.0000 0.90540  0.93200  0.48960  Biso   1.000  H
  H19      1.0000 0.59460  0.43200  0.01040  Biso   1.000  H
  H20      1.0000 0.40540  0.43200  0.48960  Biso   1.000  H
  H21      1.0000 0.90540  0.06800  0.98960  Biso   1.000  H
  H22      1.0000 0.09460  0.06800  0.51040  Biso   1.000  H
  H23      1.0000 0.40540  0.56800  0.98960  Biso   1.000  H
  H24      1.0000 0.59460  0.56800  0.51040  Biso   1.000  H
  H25      1.0000 0.15650  0.81100  0.06200  Biso   1.000  H
  H26      1.0000 0.84350  0.81100  0.43800  Biso   1.000  H
  H27      1.0000 0.65650  0.31100  0.06200  Biso   1.000  H
  H28      1.0000 0.34350  0.31100  0.43800  Biso   1.000  H
  H29      1.0000 0.84350  0.18900  0.93800  Biso   1.000  H
  H30      1.0000 0.15650  0.18900  0.56200  Biso   1.000  H
  H31      1.0000 0.34350  0.68900  0.93800  Biso   1.000  H
  H32      1.0000 0.65650  0.68900  0.56200  Biso   1.000  H
  H33      1.0000 0.17360  0.21400  0.03560  Biso   1.000  H
  H34      1.0000 0.82640  0.21400  0.46440  Biso   1.000  H
  H35      1.0000 0.67360  0.71400  0.03560  Biso   1.000  H
  H36      1.0000 0.32640  0.71400  0.46440  Biso   1.000  H
  H37      1.0000 0.82640  0.78600  0.96440  Biso   1.000  H
  H38      1.0000 0.17360  0.78600  0.53560  Biso   1.000  H
  H39      1.0000 0.32640  0.28600  0.96440  Biso   1.000  H
  H40      1.0000 0.67360  0.28600  0.53560  Biso   1.000  H
  H41      1.0000 0.12710  0.33700  0.04980  Biso   1.000  H
  H42      1.0000 0.87290  0.33700  0.45020  Biso   1.000  H
  H43      1.0000 0.62710  0.83700  0.04980  Biso   1.000  H
  H44      1.0000 0.37290  0.83700  0.45020  Biso   1.000  H
  H45      1.0000 0.87290  0.66300  0.95020  Biso   1.000  H
  H46      1.0000 0.12710  0.66300  0.54980  Biso   1.000  H
  H47      1.0000 0.37290  0.16300  0.95020  Biso   1.000  H
  H48      1.0000 0.62710  0.16300  0.54980  Biso   1.000  H
  H49      1.0000 0.22380  0.41800  0.14380  Biso   1.000  H
  H50      1.0000 0.77620  0.41800  0.35620  Biso   1.000  H
  H51      1.0000 0.72380  0.91800  0.14380  Biso   1.000  H
  H52      1.0000 0.27620  0.91800  0.35620  Biso   1.000  H
  H53      1.0000 0.77620  0.58200  0.85620  Biso   1.000  H
  H54      1.0000 0.22380  0.58200  0.64380  Biso   1.000  H
  H55      1.0000 0.27620  0.08200  0.85620  Biso   1.000  H
  H56      1.0000 0.72380  0.08200  0.64380  Biso   1.000  H
  H57      1.0000 0.24080  0.12500  0.14720  Biso   1.000  H
  H58      1.0000 0.75920  0.12500  0.35280  Biso   1.000  H
  H59      1.0000 0.74080  0.62500  0.14720  Biso   1.000  H
  H60      1.0000 0.25920  0.62500  0.35280  Biso   1.000  H
  H61      1.0000 0.75920  0.87500  0.85280  Biso   1.000  H
  H62      1.0000 0.24080  0.87500  0.64720  Biso   1.000  H
  H63      1.0000 0.25920  0.37500  0.85280  Biso   1.000  H
  H64      1.0000 0.74080  0.37500  0.64720  Biso   1.000  H
  H65      1.0000 0.21660  0.20100  0.22800  Biso   1.000  H
  H66      1.0000 0.78340  0.20100  0.27200  Biso   1.000  H
  H67      1.0000 0.71660  0.70100  0.22800  Biso   1.000  H
  H68      1.0000 0.28340  0.70100  0.27200  Biso   1.000  H
  H69      1.0000 0.78340  0.79900  0.77200  Biso   1.000  H
  H70      1.0000 0.21660  0.79900  0.72800  Biso   1.000  H
  H71      1.0000 0.28340  0.29900  0.77200  Biso   1.000  H
  H72      1.0000 0.71660  0.29900  0.72800  Biso   1.000  H
  H73      1.0000 0.15720  0.32800  0.17780  Biso   1.000  H
  H74      1.0000 0.84280  0.32800  0.32220  Biso   1.000  H
  H75      1.0000 0.65720  0.82800  0.17780  Biso   1.000  H
  H76      1.0000 0.34280  0.82800  0.32220  Biso   1.000  H
  H77      1.0000 0.84280  0.67200  0.82220  Biso   1.000  H
  H78      1.0000 0.15720  0.67200  0.67780  Biso   1.000  H
  H79      1.0000 0.34280  0.17200  0.82220  Biso   1.000  H
  H80      1.0000 0.65720  0.17200  0.67780  Biso   1.000  H
  H81      1.0000 0.14050  0.90700  0.19680  Biso   1.000  H
  H82      1.0000 0.85950  0.90700  0.30320  Biso   1.000  H
  H83      1.0000 0.64050  0.40700  0.19680  Biso   1.000  H
  H84      1.0000 0.35950  0.40700  0.30320  Biso   1.000  H
  H85      1.0000 0.85950  0.09300  0.80320  Biso   1.000  H
  H86      1.0000 0.14050  0.09300  0.69680  Biso   1.000  H
  H87      1.0000 0.35950  0.59300  0.80320  Biso   1.000  H
  H88      1.0000 0.64050  0.59300  0.69680  Biso   1.000  H
  H89      1.0000 0.18480  0.80100  0.17750  Biso   1.000  H
  H90      1.0000 0.81520  0.80100  0.32250  Biso   1.000  H
  H91      1.0000 0.68480  0.30100  0.17750  Biso   1.000  H
  H92      1.0000 0.31520  0.30100  0.32250  Biso   1.000  H
  H93      1.0000 0.81520  0.19900  0.82250  Biso   1.000  H
  H94      1.0000 0.18480  0.19900  0.67750  Biso   1.000  H
  H95      1.0000 0.31520  0.69900  0.82250  Biso   1.000  H
  H96      1.0000 0.68480  0.69900  0.67750  Biso   1.000  H
  H97      1.0000 0.90790  0.39700  0.25870  Biso   1.000  H
  H98      1.0000 0.09210  0.39700  0.24130  Biso   1.000  H
  H99      1.0000 0.40790  0.89700  0.25870  Biso   1.000  H
  H100     1.0000 0.59210  0.89700  0.24130  Biso   1.000  H
  H101     1.0000 0.09210  0.60300  0.74130  Biso   1.000  H
  H102     1.0000 0.90790  0.60300  0.75870  Biso   1.000  H
  H103     1.0000 0.59210  0.10300  0.74130  Biso   1.000  H
  H104     1.0000 0.40790  0.10300  0.75870  Biso   1.000  H
  H105     1.0000 0.86630  0.58400  0.20160  Biso   1.000  H
  H106     1.0000 0.13370  0.58400  0.29840  Biso   1.000  H
  H107     1.0000 0.36630  0.08400  0.20160  Biso   1.000  H
  H108     1.0000 0.63370  0.08400  0.29840  Biso   1.000  H
  H109     1.0000 0.13370  0.41600  0.79840  Biso   1.000  H
  H110     1.0000 0.86630  0.41600  0.70160  Biso   1.000  H
  H111     1.0000 0.63370  0.91600  0.79840  Biso   1.000  H
  H112     1.0000 0.36630  0.91600  0.70160  Biso   1.000  H
  H113     1.0000 0.81290  0.20700  0.18890  Biso   1.000  H
  H114     1.0000 0.18710  0.20700  0.31110  Biso   1.000  H
  H115     1.0000 0.31290  0.70700  0.18890  Biso   1.000  H
  H116     1.0000 0.68710  0.70700  0.31110  Biso   1.000  H
  H117     1.0000 0.18710  0.79300  0.81110  Biso   1.000  H
  H118     1.0000 0.81290  0.79300  0.68890  Biso   1.000  H
  H119     1.0000 0.68710  0.29300  0.81110  Biso   1.000  H
  H120     1.0000 0.31290  0.29300  0.68890  Biso   1.000  H
  H121     1.0000 0.86270  0.06200  0.18850  Biso   1.000  H
  H122     1.0000 0.13730  0.06200  0.31150  Biso   1.000  H
  H123     1.0000 0.36270  0.56200  0.18850  Biso   1.000  H
  H124     1.0000 0.63730  0.56200  0.31150  Biso   1.000  H
  H125     1.0000 0.13730  0.93800  0.81150  Biso   1.000  H
  H126     1.0000 0.86270  0.93800  0.68850  Biso   1.000  H
  H127     1.0000 0.63730  0.43800  0.81150  Biso   1.000  H
  H128     1.0000 0.36270  0.43800  0.68850  Biso   1.000  H
  H129     1.0000 0.78200  0.10600  0.07680  Biso   1.000  H
  H130     1.0000 0.21800  0.10600  0.42320  Biso   1.000  H
  H131     1.0000 0.28200  0.60600  0.07680  Biso   1.000  H
  H132     1.0000 0.71800  0.60600  0.42320  Biso   1.000  H
  H133     1.0000 0.21800  0.89400  0.92320  Biso   1.000  H
  H134     1.0000 0.78200  0.89400  0.57680  Biso   1.000  H
  H135     1.0000 0.71800  0.39400  0.92320  Biso   1.000  H
  H136     1.0000 0.28200  0.39400  0.57680  Biso   1.000  H
  H137     1.0000 0.78350  0.40700  0.08530  Biso   1.000  H
  H138     1.0000 0.21650  0.40700  0.41470  Biso   1.000  H
  H139     1.0000 0.28350  0.90700  0.08530  Biso   1.000  H
  H140     1.0000 0.71650  0.90700  0.41470  Biso   1.000  H
  H141     1.0000 0.21650  0.59300  0.91470  Biso   1.000  H
  H142     1.0000 0.78350  0.59300  0.58530  Biso   1.000  H
  H143     1.0000 0.71650  0.09300  0.91470  Biso   1.000  H
  H144     1.0000 0.28350  0.09300  0.58530  Biso   1.000  H
  H145     1.0000 0.83460  0.31700  0.03260  Biso   1.000  H
  H146     1.0000 0.16540  0.31700  0.46740  Biso   1.000  H
  H147     1.0000 0.33460  0.81700  0.03260  Biso   1.000  H
  H148     1.0000 0.66540  0.81700  0.46740  Biso   1.000  H
  H149     1.0000 0.16540  0.68300  0.96740  Biso   1.000  H
  H150     1.0000 0.83460  0.68300  0.53260  Biso   1.000  H
  H151     1.0000 0.66540  0.18300  0.96740  Biso   1.000  H
  H152     1.0000 0.33460  0.18300  0.53260  Biso   1.000  H
  H153     1.0000 0.87560  0.12900  0.08680  Biso   1.000  H
  H154     1.0000 0.12440  0.12900  0.41320  Biso   1.000  H
  H155     1.0000 0.37560  0.62900  0.08680  Biso   1.000  H
  H156     1.0000 0.62440  0.62900  0.41320  Biso   1.000  H
  H157     1.0000 0.12440  0.87100  0.91320  Biso   1.000  H
  H158     1.0000 0.87560  0.87100  0.58680  Biso   1.000  H
  H159     1.0000 0.62440  0.37100  0.91320  Biso   1.000  H
  H160     1.0000 0.37560  0.37100  0.58680  Biso   1.000  H
  H161     1.0000 0.92930  0.50100  0.10760  Biso   1.000  H
  H162     1.0000 0.07070  0.50100  0.39240  Biso   1.000  H
  H163     1.0000 0.42930  0.00100  0.10760  Biso   1.000  H
  H164     1.0000 0.57070  0.00100  0.39240  Biso   1.000  H
  H165     1.0000 0.07070  0.49900  0.89240  Biso   1.000  H
  H166     1.0000 0.92930  0.49900  0.60760  Biso   1.000  H
  H167     1.0000 0.57070  0.99900  0.89240  Biso   1.000  H
  H168     1.0000 0.42930  0.99900  0.60760  Biso   1.000  H
  H169     1.0000 0.87980  0.65600  0.10770  Biso   1.000  H
  H170     1.0000 0.12020  0.65600  0.39230  Biso   1.000  H
  H171     1.0000 0.37980  0.15600  0.10770  Biso   1.000  H
  H172     1.0000 0.62020  0.15600  0.39230  Biso   1.000  H
  H173     1.0000 0.12020  0.34400  0.89230  Biso   1.000  H
  H174     1.0000 0.87980  0.34400  0.60770  Biso   1.000  H
  H175     1.0000 0.62020  0.84400  0.89230  Biso   1.000  H
  H176     1.0000 0.37980  0.84400  0.60770  Biso   1.000  H
