data_image0
_cell_length_a       26.377
_cell_length_b       5.2533
_cell_length_c       23.773
_cell_angle_alpha    90
_cell_angle_beta     122.718
_cell_angle_gamma    90

_symmetry_space_group_name_H-M    "P 1"
_symmetry_int_tables_number       1

loop_
  _symmetry_equiv_pos_as_xyz
  'x, y, z'

loop_
  _atom_site_label
  _atom_site_occupancy
  _atom_site_fract_x
  _atom_site_fract_y
  _atom_site_fract_z
  _atom_site_thermal_displace_type
  _atom_site_B_iso_or_equiv
  _atom_site_type_symbol
  Cu1      1.0000 0.00000  0.74503  0.25000  Biso   1.000  Cu
  Cu2      1.0000 0.50000  0.24503  0.25000  Biso   1.000  Cu
  Cu3      1.0000 0.00000  0.25497  0.75000  Biso   1.000  Cu
  Cu4      1.0000 0.50000  0.75497  0.75000  Biso   1.000  Cu
  N1       1.0000 0.93057  0.46030  0.19162  Biso   1.000  N
  N2       1.0000 0.43057  0.96030  0.19162  Biso   1.000  N
  N3       1.0000 0.06943  0.46030  0.30838  Biso   1.000  N
  N4       1.0000 0.56943  0.96030  0.30838  Biso   1.000  N
  N5       1.0000 0.06943  0.53970  0.80838  Biso   1.000  N
  N6       1.0000 0.56943  0.03970  0.80838  Biso   1.000  N
  N7       1.0000 0.93057  0.53970  0.69162  Biso   1.000  N
  N8       1.0000 0.43057  0.03970  0.69162  Biso   1.000  N
  C1       1.0000 0.89983  0.49430  0.11863  Biso   1.000  C
  C2       1.0000 0.39983  0.99430  0.11863  Biso   1.000  C
  C3       1.0000 0.10017  0.49430  0.38137  Biso   1.000  C
  C4       1.0000 0.60017  0.99430  0.38137  Biso   1.000  C
  C5       1.0000 0.10017  0.50570  0.88137  Biso   1.000  C
  C6       1.0000 0.60017  0.00570  0.88137  Biso   1.000  C
  C7       1.0000 0.89983  0.50570  0.61863  Biso   1.000  C
  C8       1.0000 0.39983  0.00570  0.61863  Biso   1.000  C
  C9       1.0000 0.85456  0.28420  0.07845  Biso   1.000  C
  C10      1.0000 0.35456  0.78420  0.07845  Biso   1.000  C
  C11      1.0000 0.14544  0.28420  0.42155  Biso   1.000  C
  C12      1.0000 0.64544  0.78420  0.42155  Biso   1.000  C
  C13      1.0000 0.14544  0.71580  0.92155  Biso   1.000  C
  C14      1.0000 0.64544  0.21580  0.92155  Biso   1.000  C
  C15      1.0000 0.85456  0.71580  0.57845  Biso   1.000  C
  C16      1.0000 0.35456  0.21580  0.57845  Biso   1.000  C
  C17      1.0000 0.80902  0.25310  0.09853  Biso   1.000  C
  C18      1.0000 0.30902  0.75310  0.09853  Biso   1.000  C
  C19      1.0000 0.19098  0.25310  0.40147  Biso   1.000  C
  C20      1.0000 0.69098  0.75310  0.40147  Biso   1.000  C
  C21      1.0000 0.19098  0.74690  0.90147  Biso   1.000  C
  C22      1.0000 0.69098  0.24690  0.90147  Biso   1.000  C
  C23      1.0000 0.80902  0.74690  0.59853  Biso   1.000  C
  C24      1.0000 0.30902  0.24690  0.59853  Biso   1.000  C
  C25      1.0000 0.84111  0.22170  0.17382  Biso   1.000  C
  C26      1.0000 0.34111  0.72170  0.17382  Biso   1.000  C
  C27      1.0000 0.15889  0.22170  0.32618  Biso   1.000  C
  C28      1.0000 0.65889  0.72170  0.32618  Biso   1.000  C
  C29      1.0000 0.15889  0.77830  0.82618  Biso   1.000  C
  C30      1.0000 0.65889  0.27830  0.82618  Biso   1.000  C
  C31      1.0000 0.84111  0.77830  0.67382  Biso   1.000  C
  C32      1.0000 0.34111  0.27830  0.67382  Biso   1.000  C
  C33      1.0000 0.88626  0.43470  0.21113  Biso   1.000  C
  C34      1.0000 0.38626  0.93470  0.21113  Biso   1.000  C
  C35      1.0000 0.11374  0.43470  0.28887  Biso   1.000  C
  C36      1.0000 0.61374  0.93470  0.28887  Biso   1.000  C
  C37      1.0000 0.11374  0.56530  0.78887  Biso   1.000  C
  C38      1.0000 0.61374  0.06530  0.78887  Biso   1.000  C
  C39      1.0000 0.88626  0.56530  0.71113  Biso   1.000  C
  C40      1.0000 0.38626  0.06530  0.71113  Biso   1.000  C
  N9       1.0000 0.01261  0.91390  0.18678  Biso   1.000  N
  N10      1.0000 0.51261  0.41390  0.18678  Biso   1.000  N
  N11      1.0000 0.98739  0.91390  0.31322  Biso   1.000  N
  N12      1.0000 0.48739  0.41390  0.31322  Biso   1.000  N
  N13      1.0000 0.98739  0.08610  0.81322  Biso   1.000  N
  N14      1.0000 0.48739  0.58610  0.81322  Biso   1.000  N
  N15      1.0000 0.01261  0.08610  0.68678  Biso   1.000  N
  N16      1.0000 0.51261  0.58610  0.68678  Biso   1.000  N
  C41      1.0000 0.01797  0.01400  0.14645  Biso   1.000  C
  C42      1.0000 0.51797  0.51400  0.14645  Biso   1.000  C
  C43      1.0000 0.98203  0.01400  0.35355  Biso   1.000  C
  C44      1.0000 0.48203  0.51400  0.35355  Biso   1.000  C
  C45      1.0000 0.98203  0.98600  0.85355  Biso   1.000  C
  C46      1.0000 0.48203  0.48600  0.85355  Biso   1.000  C
  C47      1.0000 0.01797  0.98600  0.64645  Biso   1.000  C
  C48      1.0000 0.51797  0.48600  0.64645  Biso   1.000  C
  Cu5      1.0000 0.03200  0.16080  0.08336  Biso   1.000  Cu
  Cu6      1.0000 0.53200  0.66080  0.08336  Biso   1.000  Cu
  Cu7      1.0000 0.96800  0.16080  0.41664  Biso   1.000  Cu
  Cu8      1.0000 0.46800  0.66080  0.41664  Biso   1.000  Cu
  Cu9      1.0000 0.96800  0.83920  0.91664  Biso   1.000  Cu
  Cu10     1.0000 0.46800  0.33920  0.91664  Biso   1.000  Cu
  Cu11     1.0000 0.03200  0.83920  0.58336  Biso   1.000  Cu
  Cu12     1.0000 0.53200  0.33920  0.58336  Biso   1.000  Cu
  N17      1.0000 0.10481  0.92550  0.09829  Biso   1.000  N
  N18      1.0000 0.60481  0.42550  0.09829  Biso   1.000  N
  N19      1.0000 0.89519  0.92550  0.40171  Biso   1.000  N
  N20      1.0000 0.39519  0.42550  0.40171  Biso   1.000  N
  N21      1.0000 0.89519  0.07450  0.90171  Biso   1.000  N
  N22      1.0000 0.39519  0.57450  0.90171  Biso   1.000  N
  N23      1.0000 0.10481  0.07450  0.59829  Biso   1.000  N
  N24      1.0000 0.60481  0.57450  0.59829  Biso   1.000  N
  C49      1.0000 0.12711  0.95510  0.05337  Biso   1.000  C
  C50      1.0000 0.62711  0.45510  0.05337  Biso   1.000  C
  C51      1.0000 0.87289  0.95510  0.44663  Biso   1.000  C
  C52      1.0000 0.37289  0.45510  0.44663  Biso   1.000  C
  C53      1.0000 0.87289  0.04490  0.94663  Biso   1.000  C
  C54      1.0000 0.37289  0.54490  0.94663  Biso   1.000  C
  C55      1.0000 0.12711  0.04490  0.55337  Biso   1.000  C
  C56      1.0000 0.62711  0.54490  0.55337  Biso   1.000  C
  C57      1.0000 0.15736  0.21210  0.06450  Biso   1.000  C
  C58      1.0000 0.65736  0.71210  0.06450  Biso   1.000  C
  C59      1.0000 0.84264  0.21210  0.43550  Biso   1.000  C
  C60      1.0000 0.34264  0.71210  0.43550  Biso   1.000  C
  C61      1.0000 0.84264  0.78790  0.93550  Biso   1.000  C
  C62      1.0000 0.34264  0.28790  0.93550  Biso   1.000  C
  C63      1.0000 0.15736  0.78790  0.56450  Biso   1.000  C
  C64      1.0000 0.65736  0.28790  0.56450  Biso   1.000  C
  C65      1.0000 0.20803  0.24520  0.13749  Biso   1.000  C
  C66      1.0000 0.70803  0.74520  0.13749  Biso   1.000  C
  C67      1.0000 0.79197  0.24520  0.36251  Biso   1.000  C
  C68      1.0000 0.29197  0.74520  0.36251  Biso   1.000  C
  C69      1.0000 0.79197  0.75480  0.86251  Biso   1.000  C
  C70      1.0000 0.29197  0.25480  0.86251  Biso   1.000  C
  C71      1.0000 0.20803  0.75480  0.63749  Biso   1.000  C
  C72      1.0000 0.70803  0.25480  0.63749  Biso   1.000  C
  C73      1.0000 0.18534  0.19270  0.18345  Biso   1.000  C
  C74      1.0000 0.68534  0.69270  0.18345  Biso   1.000  C
  C75      1.0000 0.81466  0.19270  0.31655  Biso   1.000  C
  C76      1.0000 0.31466  0.69270  0.31655  Biso   1.000  C
  C77      1.0000 0.81466  0.80730  0.81655  Biso   1.000  C
  C78      1.0000 0.31466  0.30730  0.81655  Biso   1.000  C
  C79      1.0000 0.18534  0.80730  0.68345  Biso   1.000  C
  C80      1.0000 0.68534  0.30730  0.68345  Biso   1.000  C
  C81      1.0000 0.15523  0.93460  0.16875  Biso   1.000  C
  C82      1.0000 0.65523  0.43460  0.16875  Biso   1.000  C
  C83      1.0000 0.84477  0.93460  0.33125  Biso   1.000  C
  C84      1.0000 0.34477  0.43460  0.33125  Biso   1.000  C
  C85      1.0000 0.84477  0.06540  0.83125  Biso   1.000  C
  C86      1.0000 0.34477  0.56540  0.83125  Biso   1.000  C
  C87      1.0000 0.15523  0.06540  0.66875  Biso   1.000  C
  C88      1.0000 0.65523  0.56540  0.66875  Biso   1.000  C
  C89      1.0000 0.00771  0.42030  0.01982  Biso   1.000  C
  C90      1.0000 0.50771  0.92030  0.01982  Biso   1.000  C
  C91      1.0000 0.99229  0.42030  0.48018  Biso   1.000  C
  C92      1.0000 0.49229  0.92030  0.48018  Biso   1.000  C
  C93      1.0000 0.99229  0.57970  0.98018  Biso   1.000  C
  C94      1.0000 0.49229  0.07970  0.98018  Biso   1.000  C
  C95      1.0000 0.00771  0.57970  0.51982  Biso   1.000  C
  C96      1.0000 0.50771  0.07970  0.51982  Biso   1.000  C
  H1       1.0000 0.94870  0.32600  0.20110  Biso   1.000  H
  H2       1.0000 0.44870  0.82600  0.20110  Biso   1.000  H
  H3       1.0000 0.05130  0.32600  0.29890  Biso   1.000  H
  H4       1.0000 0.55130  0.82600  0.29890  Biso   1.000  H
  H5       1.0000 0.05130  0.67400  0.79890  Biso   1.000  H
  H6       1.0000 0.55130  0.17400  0.79890  Biso   1.000  H
  H7       1.0000 0.94870  0.67400  0.70110  Biso   1.000  H
  H8       1.0000 0.44870  0.17400  0.70110  Biso   1.000  H
  H9       1.0000 0.93030  0.50900  0.10750  Biso   1.000  H
  H10      1.0000 0.43030  0.00900  0.10750  Biso   1.000  H
  H11      1.0000 0.06970  0.50900  0.39250  Biso   1.000  H
  H12      1.0000 0.56970  0.00900  0.39250  Biso   1.000  H
  H13      1.0000 0.06970  0.49100  0.89250  Biso   1.000  H
  H14      1.0000 0.56970  0.99100  0.89250  Biso   1.000  H
  H15      1.0000 0.93030  0.49100  0.60750  Biso   1.000  H
  H16      1.0000 0.43030  0.99100  0.60750  Biso   1.000  H
  H17      1.0000 0.88100  0.64800  0.10810  Biso   1.000  H
  H18      1.0000 0.38100  0.14800  0.10810  Biso   1.000  H
  H19      1.0000 0.11900  0.64800  0.39190  Biso   1.000  H
  H20      1.0000 0.61900  0.14800  0.39190  Biso   1.000  H
  H21      1.0000 0.11900  0.35200  0.89190  Biso   1.000  H
  H22      1.0000 0.61900  0.85200  0.89190  Biso   1.000  H
  H23      1.0000 0.88100  0.35200  0.60810  Biso   1.000  H
  H24      1.0000 0.38100  0.85200  0.60810  Biso   1.000  H
  H25      1.0000 0.87630  0.14000  0.08810  Biso   1.000  H
  H26      1.0000 0.37630  0.64000  0.08810  Biso   1.000  H
  H27      1.0000 0.12370  0.14000  0.41190  Biso   1.000  H
  H28      1.0000 0.62370  0.64000  0.41190  Biso   1.000  H
  H29      1.0000 0.12370  0.86000  0.91190  Biso   1.000  H
  H30      1.0000 0.62370  0.36000  0.91190  Biso   1.000  H
  H31      1.0000 0.87630  0.86000  0.58810  Biso   1.000  H
  H32      1.0000 0.37630  0.36000  0.58810  Biso   1.000  H
  H33      1.0000 0.83350  0.31100  0.03190  Biso   1.000  H
  H34      1.0000 0.33350  0.81100  0.03190  Biso   1.000  H
  H35      1.0000 0.16650  0.31100  0.46810  Biso   1.000  H
  H36      1.0000 0.66650  0.81100  0.46810  Biso   1.000  H
  H37      1.0000 0.16650  0.68900  0.96810  Biso   1.000  H
  H38      1.0000 0.66650  0.18900  0.96810  Biso   1.000  H
  H39      1.0000 0.83350  0.68900  0.53190  Biso   1.000  H
  H40      1.0000 0.33350  0.18900  0.53190  Biso   1.000  H
  H41      1.0000 0.78190  0.10300  0.07330  Biso   1.000  H
  H42      1.0000 0.28190  0.60300  0.07330  Biso   1.000  H
  H43      1.0000 0.21810  0.10300  0.42670  Biso   1.000  H
  H44      1.0000 0.71810  0.60300  0.42670  Biso   1.000  H
  H45      1.0000 0.21810  0.89700  0.92670  Biso   1.000  H
  H46      1.0000 0.71810  0.39700  0.92670  Biso   1.000  H
  H47      1.0000 0.78190  0.89700  0.57330  Biso   1.000  H
  H48      1.0000 0.28190  0.39700  0.57330  Biso   1.000  H
  H49      1.0000 0.78480  0.40200  0.08700  Biso   1.000  H
  H50      1.0000 0.28480  0.90200  0.08700  Biso   1.000  H
  H51      1.0000 0.21520  0.40200  0.41300  Biso   1.000  H
  H52      1.0000 0.71520  0.90200  0.41300  Biso   1.000  H
  H53      1.0000 0.21520  0.59800  0.91300  Biso   1.000  H
  H54      1.0000 0.71520  0.09800  0.91300  Biso   1.000  H
  H55      1.0000 0.78480  0.59800  0.58700  Biso   1.000  H
  H56      1.0000 0.28480  0.09800  0.58700  Biso   1.000  H
  H57      1.0000 0.86180  0.06800  0.18670  Biso   1.000  H
  H58      1.0000 0.36180  0.56800  0.18670  Biso   1.000  H
  H59      1.0000 0.13820  0.06800  0.31330  Biso   1.000  H
  H60      1.0000 0.63820  0.56800  0.31330  Biso   1.000  H
  H61      1.0000 0.13820  0.93200  0.81330  Biso   1.000  H
  H62      1.0000 0.63820  0.43200  0.81330  Biso   1.000  H
  H63      1.0000 0.86180  0.93200  0.68670  Biso   1.000  H
  H64      1.0000 0.36180  0.43200  0.68670  Biso   1.000  H
  H65      1.0000 0.81260  0.21600  0.18740  Biso   1.000  H
  H66      1.0000 0.31260  0.71600  0.18740  Biso   1.000  H
  H67      1.0000 0.18740  0.21600  0.31260  Biso   1.000  H
  H68      1.0000 0.68740  0.71600  0.31260  Biso   1.000  H
  H69      1.0000 0.18740  0.78400  0.81260  Biso   1.000  H
  H70      1.0000 0.68740  0.28400  0.81260  Biso   1.000  H
  H71      1.0000 0.81260  0.78400  0.68740  Biso   1.000  H
  H72      1.0000 0.31260  0.28400  0.68740  Biso   1.000  H
  H73      1.0000 0.90780  0.40700  0.25850  Biso   1.000  H
  H74      1.0000 0.40780  0.90700  0.25850  Biso   1.000  H
  H75      1.0000 0.09220  0.40700  0.24150  Biso   1.000  H
  H76      1.0000 0.59220  0.90700  0.24150  Biso   1.000  H
  H77      1.0000 0.09220  0.59300  0.74150  Biso   1.000  H
  H78      1.0000 0.59220  0.09300  0.74150  Biso   1.000  H
  H79      1.0000 0.90780  0.59300  0.75850  Biso   1.000  H
  H80      1.0000 0.40780  0.09300  0.75850  Biso   1.000  H
  H81      1.0000 0.86520  0.59300  0.20000  Biso   1.000  H
  H82      1.0000 0.36520  0.09300  0.20000  Biso   1.000  H
  H83      1.0000 0.13480  0.59300  0.30000  Biso   1.000  H
  H84      1.0000 0.63480  0.09300  0.30000  Biso   1.000  H
  H85      1.0000 0.13480  0.40700  0.80000  Biso   1.000  H
  H86      1.0000 0.63480  0.90700  0.80000  Biso   1.000  H
  H87      1.0000 0.86520  0.40700  0.70000  Biso   1.000  H
  H88      1.0000 0.36520  0.90700  0.70000  Biso   1.000  H
  H89      1.0000 0.08890  0.80500  0.09190  Biso   1.000  H
  H90      1.0000 0.58890  0.30500  0.09190  Biso   1.000  H
  H91      1.0000 0.91110  0.80500  0.40810  Biso   1.000  H
  H92      1.0000 0.41110  0.30500  0.40810  Biso   1.000  H
  H93      1.0000 0.91110  0.19500  0.90810  Biso   1.000  H
  H94      1.0000 0.41110  0.69500  0.90810  Biso   1.000  H
  H95      1.0000 0.08890  0.19500  0.59190  Biso   1.000  H
  H96      1.0000 0.58890  0.69500  0.59190  Biso   1.000  H
  H97      1.0000 0.09330  0.93900  0.01140  Biso   1.000  H
  H98      1.0000 0.59330  0.43900  0.01140  Biso   1.000  H
  H99      1.0000 0.90670  0.93900  0.48860  Biso   1.000  H
  H100     1.0000 0.40670  0.43900  0.48860  Biso   1.000  H
  H101     1.0000 0.90670  0.06100  0.98860  Biso   1.000  H
  H102     1.0000 0.40670  0.56100  0.98860  Biso   1.000  H
  H103     1.0000 0.09330  0.06100  0.51140  Biso   1.000  H
  H104     1.0000 0.59330  0.56100  0.51140  Biso   1.000  H
  H105     1.0000 0.15650  0.81400  0.06220  Biso   1.000  H
  H106     1.0000 0.65650  0.31400  0.06220  Biso   1.000  H
  H107     1.0000 0.84350  0.81400  0.43780  Biso   1.000  H
  H108     1.0000 0.34350  0.31400  0.43780  Biso   1.000  H
  H109     1.0000 0.84350  0.18600  0.93780  Biso   1.000  H
  H110     1.0000 0.34350  0.68600  0.93780  Biso   1.000  H
  H111     1.0000 0.15650  0.18600  0.56220  Biso   1.000  H
  H112     1.0000 0.65650  0.68600  0.56220  Biso   1.000  H
  H113     1.0000 0.12780  0.34400  0.05050  Biso   1.000  H
  H114     1.0000 0.62780  0.84400  0.05050  Biso   1.000  H
  H115     1.0000 0.87220  0.34400  0.44950  Biso   1.000  H
  H116     1.0000 0.37220  0.84400  0.44950  Biso   1.000  H
  H117     1.0000 0.87220  0.65600  0.94950  Biso   1.000  H
  H118     1.0000 0.37220  0.15600  0.94950  Biso   1.000  H
  H119     1.0000 0.12780  0.65600  0.55050  Biso   1.000  H
  H120     1.0000 0.62780  0.15600  0.55050  Biso   1.000  H
  H121     1.0000 0.17560  0.22400  0.03600  Biso   1.000  H
  H122     1.0000 0.67560  0.72400  0.03600  Biso   1.000  H
  H123     1.0000 0.82440  0.22400  0.46400  Biso   1.000  H
  H124     1.0000 0.32440  0.72400  0.46400  Biso   1.000  H
  H125     1.0000 0.82440  0.77600  0.96400  Biso   1.000  H
  H126     1.0000 0.32440  0.27600  0.96400  Biso   1.000  H
  H127     1.0000 0.17560  0.77600  0.53600  Biso   1.000  H
  H128     1.0000 0.67560  0.27600  0.53600  Biso   1.000  H
  H129     1.0000 0.22440  0.40500  0.14650  Biso   1.000  H
  H130     1.0000 0.72440  0.90500  0.14650  Biso   1.000  H
  H131     1.0000 0.77560  0.40500  0.35350  Biso   1.000  H
  H132     1.0000 0.27560  0.90500  0.35350  Biso   1.000  H
  H133     1.0000 0.77560  0.59500  0.85350  Biso   1.000  H
  H134     1.0000 0.27560  0.09500  0.85350  Biso   1.000  H
  H135     1.0000 0.22440  0.59500  0.64650  Biso   1.000  H
  H136     1.0000 0.72440  0.09500  0.64650  Biso   1.000  H
  H137     1.0000 0.24110  0.12400  0.14800  Biso   1.000  H
  H138     1.0000 0.74110  0.62400  0.14800  Biso   1.000  H
  H139     1.0000 0.75890  0.12400  0.35200  Biso   1.000  H
  H140     1.0000 0.25890  0.62400  0.35200  Biso   1.000  H
  H141     1.0000 0.75890  0.87600  0.85200  Biso   1.000  H
  H142     1.0000 0.25890  0.37600  0.85200  Biso   1.000  H
  H143     1.0000 0.24110  0.87600  0.64800  Biso   1.000  H
  H144     1.0000 0.74110  0.37600  0.64800  Biso   1.000  H
  H145     1.0000 0.15900  0.32100  0.17960  Biso   1.000  H
  H146     1.0000 0.65900  0.82100  0.17960  Biso   1.000  H
  H147     1.0000 0.84100  0.32100  0.32040  Biso   1.000  H
  H148     1.0000 0.34100  0.82100  0.32040  Biso   1.000  H
  H149     1.0000 0.84100  0.67900  0.82040  Biso   1.000  H
  H150     1.0000 0.34100  0.17900  0.82040  Biso   1.000  H
  H151     1.0000 0.15900  0.67900  0.67960  Biso   1.000  H
  H152     1.0000 0.65900  0.17900  0.67960  Biso   1.000  H
  H153     1.0000 0.21750  0.19800  0.22910  Biso   1.000  H
  H154     1.0000 0.71750  0.69800  0.22910  Biso   1.000  H
  H155     1.0000 0.78250  0.19800  0.27090  Biso   1.000  H
  H156     1.0000 0.28250  0.69800  0.27090  Biso   1.000  H
  H157     1.0000 0.78250  0.80200  0.77090  Biso   1.000  H
  H158     1.0000 0.28250  0.30200  0.77090  Biso   1.000  H
  H159     1.0000 0.21750  0.80200  0.72910  Biso   1.000  H
  H160     1.0000 0.71750  0.30200  0.72910  Biso   1.000  H
  H161     1.0000 0.18240  0.79500  0.17680  Biso   1.000  H
  H162     1.0000 0.68240  0.29500  0.17680  Biso   1.000  H
  H163     1.0000 0.81760  0.79500  0.32320  Biso   1.000  H
  H164     1.0000 0.31760  0.29500  0.32320  Biso   1.000  H
  H165     1.0000 0.81760  0.20500  0.82320  Biso   1.000  H
  H166     1.0000 0.31760  0.70500  0.82320  Biso   1.000  H
  H167     1.0000 0.18240  0.20500  0.67680  Biso   1.000  H
  H168     1.0000 0.68240  0.70500  0.67680  Biso   1.000  H
  H169     1.0000 0.14040  0.90400  0.19770  Biso   1.000  H
  H170     1.0000 0.64040  0.40400  0.19770  Biso   1.000  H
  H171     1.0000 0.85960  0.90400  0.30230  Biso   1.000  H
  H172     1.0000 0.35960  0.40400  0.30230  Biso   1.000  H
  H173     1.0000 0.85960  0.09600  0.80230  Biso   1.000  H
  H174     1.0000 0.35960  0.59600  0.80230  Biso   1.000  H
  H175     1.0000 0.14040  0.09600  0.69770  Biso   1.000  H
  H176     1.0000 0.64040  0.59600  0.69770  Biso   1.000  H
