data_image0
_cell_length_a       9.4337
_cell_length_b       32.49
_cell_length_c       10.2061
_cell_angle_alpha    90
_cell_angle_beta     105.393
_cell_angle_gamma    90

_symmetry_space_group_name_H-M    "P 1"
_symmetry_int_tables_number       1

loop_
  _symmetry_equiv_pos_as_xyz
  'x, y, z'

loop_
  _atom_site_label
  _atom_site_occupancy
  _atom_site_fract_x
  _atom_site_fract_y
  _atom_site_fract_z
  _atom_site_thermal_displace_type
  _atom_site_B_iso_or_equiv
  _atom_site_type_symbol
  Cu1      1.0000 0.22905  0.09645  0.90494  Biso   1.000  Cu
  Cu2      1.0000 0.27095  0.59645  0.59506  Biso   1.000  Cu
  Cu3      1.0000 0.77095  0.90355  0.09506  Biso   1.000  Cu
  Cu4      1.0000 0.72905  0.40355  0.40494  Biso   1.000  Cu
  Cu5      1.0000 0.72976  0.13845  0.91027  Biso   1.000  Cu
  Cu6      1.0000 0.77024  0.63845  0.58973  Biso   1.000  Cu
  Cu7      1.0000 0.27024  0.86155  0.08973  Biso   1.000  Cu
  Cu8      1.0000 0.22976  0.36155  0.41027  Biso   1.000  Cu
  Cu9      1.0000 0.17392  0.59681  0.88916  Biso   1.000  Cu
  Cu10     1.0000 0.32608  0.09681  0.61084  Biso   1.000  Cu
  Cu11     1.0000 0.82608  0.40319  0.11084  Biso   1.000  Cu
  Cu12     1.0000 0.67392  0.90319  0.38916  Biso   1.000  Cu
  Cu13     1.0000 0.68130  0.63472  0.91329  Biso   1.000  Cu
  Cu14     1.0000 0.81870  0.13472  0.58671  Biso   1.000  Cu
  Cu15     1.0000 0.31870  0.36528  0.08671  Biso   1.000  Cu
  Cu16     1.0000 0.18130  0.86528  0.41329  Biso   1.000  Cu
  O1       1.0000 0.78200  0.91911  0.78090  Biso   1.000  O
  O2       1.0000 0.71800  0.41911  0.71910  Biso   1.000  O
  O3       1.0000 0.21800  0.08089  0.21910  Biso   1.000  O
  O4       1.0000 0.28200  0.58089  0.28090  Biso   1.000  O
  O5       1.0000 0.24150  0.38481  0.80180  Biso   1.000  O
  O6       1.0000 0.25850  0.88481  0.69820  Biso   1.000  O
  O7       1.0000 0.75850  0.61519  0.19820  Biso   1.000  O
  O8       1.0000 0.74150  0.11519  0.30180  Biso   1.000  O
  C1       1.0000 0.99210  0.03352  0.80220  Biso   1.000  C
  C2       1.0000 0.50790  0.53352  0.69780  Biso   1.000  C
  C3       1.0000 0.00790  0.96648  0.19780  Biso   1.000  C
  C4       1.0000 0.49210  0.46648  0.30220  Biso   1.000  C
  H1       1.0000 0.93970  0.05750  0.77270  Biso   1.000  H
  H2       1.0000 0.56030  0.55750  0.72730  Biso   1.000  H
  H3       1.0000 0.06030  0.94250  0.22730  Biso   1.000  H
  H4       1.0000 0.43970  0.44250  0.27270  Biso   1.000  H
  C5       1.0000 0.91960  0.99650  0.77470  Biso   1.000  C
  C6       1.0000 0.58040  0.49650  0.72530  Biso   1.000  C
  C7       1.0000 0.08040  0.00350  0.22530  Biso   1.000  C
  C8       1.0000 0.41960  0.50350  0.27470  Biso   1.000  C
  H5       1.0000 0.82000  0.99580  0.72950  Biso   1.000  H
  H6       1.0000 0.68000  0.49580  0.77050  Biso   1.000  H
  H7       1.0000 0.18000  0.00420  0.27050  Biso   1.000  H
  H8       1.0000 0.32000  0.50420  0.22950  Biso   1.000  H
  C9       1.0000 0.99590  0.96032  0.81500  Biso   1.000  C
  C10      1.0000 0.50410  0.46032  0.68500  Biso   1.000  C
  C11      1.0000 0.00410  0.03968  0.18500  Biso   1.000  C
  C12      1.0000 0.49590  0.53968  0.31500  Biso   1.000  C
  C13      1.0000 0.14200  0.96322  0.88470  Biso   1.000  C
  C14      1.0000 0.35800  0.46322  0.61530  Biso   1.000  C
  C15      1.0000 0.85800  0.03678  0.11530  Biso   1.000  C
  C16      1.0000 0.64200  0.53678  0.38470  Biso   1.000  C
  H9       1.0000 0.19700  0.93960  0.91450  Biso   1.000  H
  H10      1.0000 0.30300  0.43960  0.58550  Biso   1.000  H
  H11      1.0000 0.80300  0.06040  0.08550  Biso   1.000  H
  H12      1.0000 0.69700  0.56040  0.41450  Biso   1.000  H
  C17      1.0000 0.20580  0.00185  0.90980  Biso   1.000  C
  C18      1.0000 0.29420  0.50185  0.59020  Biso   1.000  C
  C19      1.0000 0.79420  0.99815  0.09020  Biso   1.000  C
  C20      1.0000 0.70580  0.49815  0.40980  Biso   1.000  C
  H13      1.0000 0.30430  0.00340  0.95790  Biso   1.000  H
  H14      1.0000 0.19570  0.50340  0.54210  Biso   1.000  H
  H15      1.0000 0.69570  0.99660  0.04210  Biso   1.000  H
  H16      1.0000 0.80430  0.49660  0.45790  Biso   1.000  H
  C21      1.0000 0.91180  0.92028  0.78170  Biso   1.000  C
  C22      1.0000 0.58820  0.42028  0.71830  Biso   1.000  C
  C23      1.0000 0.08820  0.07972  0.21830  Biso   1.000  C
  C24      1.0000 0.41180  0.57972  0.28170  Biso   1.000  C
  C25      1.0000 0.01010  0.82175  0.71040  Biso   1.000  C
  C26      1.0000 0.48990  0.32175  0.78960  Biso   1.000  C
  C27      1.0000 0.98990  0.17825  0.28960  Biso   1.000  C
  C28      1.0000 0.51010  0.67825  0.21040  Biso   1.000  C
  H17      1.0000 0.10940  0.82710  0.72160  Biso   1.000  H
  H18      1.0000 0.39060  0.32710  0.77840  Biso   1.000  H
  H19      1.0000 0.89060  0.17290  0.27840  Biso   1.000  H
  H20      1.0000 0.60940  0.67290  0.22160  Biso   1.000  H
  C29      1.0000 0.95280  0.77996  0.67700  Biso   1.000  C
  C30      1.0000 0.54720  0.27996  0.82300  Biso   1.000  C
  C31      1.0000 0.04720  0.22004  0.32300  Biso   1.000  C
  C32      1.0000 0.45280  0.72004  0.17700  Biso   1.000  C
  C33      1.0000 0.80610  0.77244  0.61400  Biso   1.000  C
  C34      1.0000 0.69390  0.27244  0.88600  Biso   1.000  C
  C35      1.0000 0.19390  0.22756  0.38600  Biso   1.000  C
  C36      1.0000 0.30610  0.72756  0.11400  Biso   1.000  C
  H21      1.0000 0.74030  0.79420  0.58860  Biso   1.000  H
  H22      1.0000 0.75970  0.29420  0.91140  Biso   1.000  H
  H23      1.0000 0.25970  0.20580  0.41140  Biso   1.000  H
  H24      1.0000 0.24030  0.70580  0.08860  Biso   1.000  H
  C37      1.0000 0.75910  0.73247  0.58950  Biso   1.000  C
  C38      1.0000 0.74090  0.23247  0.91050  Biso   1.000  C
  C39      1.0000 0.24090  0.26753  0.41050  Biso   1.000  C
  C40      1.0000 0.25910  0.76753  0.08950  Biso   1.000  C
  H25      1.0000 0.66020  0.72780  0.54750  Biso   1.000  H
  H26      1.0000 0.83980  0.22780  0.95250  Biso   1.000  H
  H27      1.0000 0.33980  0.27220  0.45250  Biso   1.000  H
  H28      1.0000 0.16020  0.77220  0.04750  Biso   1.000  H
  C41      1.0000 0.99000  0.70782  0.68180  Biso   1.000  C
  C42      1.0000 0.51000  0.20782  0.81820  Biso   1.000  C
  C43      1.0000 0.01000  0.29218  0.31820  Biso   1.000  C
  C44      1.0000 0.49000  0.79218  0.18180  Biso   1.000  C
  H29      1.0000 0.05450  0.68580  0.70540  Biso   1.000  H
  H30      1.0000 0.44550  0.18580  0.79460  Biso   1.000  H
  H31      1.0000 0.94550  0.31420  0.29460  Biso   1.000  H
  H32      1.0000 0.55450  0.81420  0.20540  Biso   1.000  H
  C45      1.0000 0.04610  0.74679  0.70970  Biso   1.000  C
  C46      1.0000 0.45390  0.24679  0.79030  Biso   1.000  C
  C47      1.0000 0.95390  0.25321  0.29030  Biso   1.000  C
  C48      1.0000 0.54610  0.75321  0.20970  Biso   1.000  C
  H33      1.0000 0.14580  0.75070  0.75010  Biso   1.000  H
  H34      1.0000 0.35420  0.25070  0.74990  Biso   1.000  H
  H35      1.0000 0.85420  0.24930  0.24990  Biso   1.000  H
  H36      1.0000 0.64580  0.74930  0.25010  Biso   1.000  H
  C49      1.0000 0.02110  0.51529  0.79220  Biso   1.000  C
  C50      1.0000 0.47890  0.01529  0.70780  Biso   1.000  C
  C51      1.0000 0.97890  0.48471  0.20780  Biso   1.000  C
  C52      1.0000 0.52110  0.98471  0.29220  Biso   1.000  C
  H37      1.0000 0.94150  0.53240  0.75490  Biso   1.000  H
  H38      1.0000 0.55850  0.03240  0.74510  Biso   1.000  H
  H39      1.0000 0.05850  0.46760  0.24510  Biso   1.000  H
  H40      1.0000 0.44150  0.96760  0.25490  Biso   1.000  H
  C53      1.0000 0.00530  0.47330  0.76600  Biso   1.000  C
  C54      1.0000 0.49470  0.97330  0.73400  Biso   1.000  C
  C55      1.0000 0.99470  0.52670  0.23400  Biso   1.000  C
  C56      1.0000 0.50530  0.02670  0.26600  Biso   1.000  C
  H41      1.0000 0.91750  0.46270  0.71200  Biso   1.000  H
  H42      1.0000 0.58250  0.96270  0.78800  Biso   1.000  H
  H43      1.0000 0.08250  0.53730  0.28800  Biso   1.000  H
  H44      1.0000 0.41750  0.03730  0.21200  Biso   1.000  H
  C57      1.0000 0.12210  0.44767  0.82140  Biso   1.000  C
  C58      1.0000 0.37790  0.94767  0.67860  Biso   1.000  C
  C59      1.0000 0.87790  0.55233  0.17860  Biso   1.000  C
  C60      1.0000 0.62210  0.05233  0.32140  Biso   1.000  C
  C61      1.0000 0.24920  0.46510  0.90190  Biso   1.000  C
  C62      1.0000 0.25080  0.96510  0.59810  Biso   1.000  C
  C63      1.0000 0.75080  0.53490  0.09810  Biso   1.000  C
  C64      1.0000 0.74920  0.03490  0.40190  Biso   1.000  C
  H45      1.0000 0.32950  0.44870  0.94290  Biso   1.000  H
  H46      1.0000 0.17050  0.94870  0.55710  Biso   1.000  H
  H47      1.0000 0.67050  0.55130  0.05710  Biso   1.000  H
  H48      1.0000 0.82950  0.05130  0.44290  Biso   1.000  H
  C65      1.0000 0.25540  0.50718  0.92070  Biso   1.000  C
  C66      1.0000 0.24460  0.00718  0.57930  Biso   1.000  C
  C67      1.0000 0.74460  0.49282  0.07930  Biso   1.000  C
  C68      1.0000 0.75540  0.99282  0.42070  Biso   1.000  C
  H49      1.0000 0.34230  0.51850  0.97350  Biso   1.000  H
  H50      1.0000 0.15770  0.01850  0.52650  Biso   1.000  H
  H51      1.0000 0.65770  0.48150  0.02650  Biso   1.000  H
  H52      1.0000 0.84230  0.98150  0.47350  Biso   1.000  H
  C69      1.0000 0.12380  0.40251  0.79110  Biso   1.000  C
  C70      1.0000 0.37620  0.90251  0.70890  Biso   1.000  C
  C71      1.0000 0.87620  0.59749  0.20890  Biso   1.000  C
  C72      1.0000 0.62380  0.09749  0.29110  Biso   1.000  C
  C73      1.0000 0.87090  0.32661  0.66250  Biso   1.000  C
  C74      1.0000 0.62910  0.82661  0.83750  Biso   1.000  C
  C75      1.0000 0.12910  0.67339  0.33750  Biso   1.000  C
  C76      1.0000 0.37090  0.17339  0.16250  Biso   1.000  C
  H53      1.0000 0.78720  0.34300  0.63920  Biso   1.000  H
  H54      1.0000 0.71280  0.84300  0.86080  Biso   1.000  H
  H55      1.0000 0.21280  0.65700  0.36080  Biso   1.000  H
  H56      1.0000 0.28720  0.15700  0.13920  Biso   1.000  H
  C77      1.0000 0.86290  0.28274  0.63020  Biso   1.000  C
  C78      1.0000 0.63710  0.78274  0.86980  Biso   1.000  C
  C79      1.0000 0.13710  0.71726  0.36980  Biso   1.000  C
  C80      1.0000 0.36290  0.21726  0.13020  Biso   1.000  C
  C81      1.0000 0.98400  0.25714  0.67270  Biso   1.000  C
  C82      1.0000 0.51600  0.75714  0.82730  Biso   1.000  C
  C83      1.0000 0.01600  0.74286  0.32730  Biso   1.000  C
  C84      1.0000 0.48400  0.24286  0.17270  Biso   1.000  C
  H57      1.0000 0.07490  0.26800  0.71850  Biso   1.000  H
  H58      1.0000 0.42510  0.76800  0.78150  Biso   1.000  H
  H59      1.0000 0.92510  0.73200  0.28150  Biso   1.000  H
  H60      1.0000 0.57490  0.23200  0.21850  Biso   1.000  H
  C85      1.0000 0.96860  0.21581  0.64680  Biso   1.000  C
  C86      1.0000 0.53140  0.71581  0.85320  Biso   1.000  C
  C87      1.0000 0.03140  0.78419  0.35320  Biso   1.000  C
  C88      1.0000 0.46860  0.28419  0.14680  Biso   1.000  C
  H61      1.0000 0.05110  0.19910  0.67580  Biso   1.000  H
  H62      1.0000 0.44890  0.69910  0.82420  Biso   1.000  H
  H63      1.0000 0.94890  0.80090  0.32420  Biso   1.000  H
  H64      1.0000 0.55110  0.30090  0.17580  Biso   1.000  H
  C89      1.0000 0.72490  0.22333  0.53800  Biso   1.000  C
  C90      1.0000 0.77510  0.72333  0.96200  Biso   1.000  C
  C91      1.0000 0.27510  0.77667  0.46200  Biso   1.000  C
  C92      1.0000 0.22490  0.27667  0.03800  Biso   1.000  C
  H65      1.0000 0.63540  0.21200  0.49060  Biso   1.000  H
  H66      1.0000 0.86460  0.71200  0.00940  Biso   1.000  H
  H67      1.0000 0.36460  0.78800  0.50940  Biso   1.000  H
  H68      1.0000 0.13540  0.28800  0.99060  Biso   1.000  H
  C93      1.0000 0.73220  0.26514  0.55960  Biso   1.000  C
  C94      1.0000 0.76780  0.76514  0.94040  Biso   1.000  C
  C95      1.0000 0.26780  0.73486  0.44040  Biso   1.000  C
  C96      1.0000 0.23220  0.23486  0.05960  Biso   1.000  C
  H69      1.0000 0.64930  0.28140  0.52680  Biso   1.000  H
  H70      1.0000 0.85070  0.78140  0.97320  Biso   1.000  H
  H71      1.0000 0.35070  0.71860  0.47320  Biso   1.000  H
  H72      1.0000 0.14930  0.21860  0.02680  Biso   1.000  H
  C97      1.0000 0.43190  0.10448  0.92330  Biso   1.000  C
  C98      1.0000 0.06810  0.60448  0.57670  Biso   1.000  C
  C99      1.0000 0.56810  0.89552  0.07670  Biso   1.000  C
  C100     1.0000 0.93190  0.39552  0.42330  Biso   1.000  C
  C101     1.0000 0.93170  0.13150  0.92150  Biso   1.000  C
  C102     1.0000 0.56830  0.63150  0.57850  Biso   1.000  C
  C103     1.0000 0.06830  0.86850  0.07850  Biso   1.000  C
  C104     1.0000 0.43170  0.36850  0.42150  Biso   1.000  C
  C105     1.0000 0.86800  0.62089  0.90270  Biso   1.000  C
  C106     1.0000 0.63200  0.12089  0.59730  Biso   1.000  C
  C107     1.0000 0.13200  0.37911  0.09730  Biso   1.000  C
  C108     1.0000 0.36800  0.87911  0.40270  Biso   1.000  C
  C109     1.0000 0.36920  0.60951  0.90410  Biso   1.000  C
  C110     1.0000 0.13080  0.10951  0.59590  Biso   1.000  C
  C111     1.0000 0.63080  0.39049  0.09590  Biso   1.000  C
  C112     1.0000 0.86920  0.89049  0.40410  Biso   1.000  C
  N1       1.0000 0.13410  0.03672  0.86900  Biso   1.000  N
  N2       1.0000 0.36590  0.53672  0.63100  Biso   1.000  N
  N3       1.0000 0.86590  0.96328  0.13100  Biso   1.000  N
  N4       1.0000 0.63410  0.46328  0.36900  Biso   1.000  N
  N5       1.0000 0.98990  0.88879  0.75470  Biso   1.000  N
  N6       1.0000 0.51010  0.38879  0.74530  Biso   1.000  N
  N7       1.0000 0.01010  0.11121  0.24530  Biso   1.000  N
  N8       1.0000 0.48990  0.61121  0.25470  Biso   1.000  N
  H73      1.0000 0.08080  0.89210  0.75640  Biso   1.000  H
  H74      1.0000 0.41920  0.39210  0.74360  Biso   1.000  H
  H75      1.0000 0.91920  0.10790  0.24360  Biso   1.000  H
  H76      1.0000 0.58080  0.60790  0.25640  Biso   1.000  H
  N9       1.0000 0.92350  0.85077  0.72400  Biso   1.000  N
  N10      1.0000 0.57650  0.35077  0.77600  Biso   1.000  N
  N11      1.0000 0.07650  0.14923  0.27600  Biso   1.000  N
  N12      1.0000 0.42350  0.64923  0.22400  Biso   1.000  N
  N13      1.0000 0.84870  0.69952  0.62290  Biso   1.000  N
  N14      1.0000 0.65130  0.19952  0.87710  Biso   1.000  N
  N15      1.0000 0.15130  0.30048  0.37710  Biso   1.000  N
  N16      1.0000 0.34870  0.80048  0.12290  Biso   1.000  N
  N17      1.0000 0.14360  0.53241  0.86750  Biso   1.000  N
  N18      1.0000 0.35640  0.03241  0.63250  Biso   1.000  N
  N19      1.0000 0.85640  0.46759  0.13250  Biso   1.000  N
  N20      1.0000 0.64360  0.96759  0.36750  Biso   1.000  N
  N21      1.0000 0.99470  0.38331  0.75340  Biso   1.000  N
  N22      1.0000 0.50530  0.88331  0.74660  Biso   1.000  N
  N23      1.0000 0.00530  0.61669  0.24660  Biso   1.000  N
  N24      1.0000 0.49470  0.11669  0.25340  Biso   1.000  N
  H77      1.0000 0.91370  0.39620  0.74770  Biso   1.000  H
  H78      1.0000 0.58630  0.89620  0.75230  Biso   1.000  H
  H79      1.0000 0.08630  0.60380  0.25230  Biso   1.000  H
  H80      1.0000 0.41370  0.10380  0.24770  Biso   1.000  H
  N25      1.0000 0.99600  0.34194  0.72380  Biso   1.000  N
  N26      1.0000 0.50400  0.84194  0.77620  Biso   1.000  N
  N27      1.0000 0.00400  0.65806  0.27620  Biso   1.000  N
  N28      1.0000 0.49600  0.15806  0.22380  Biso   1.000  N
  N29      1.0000 0.84080  0.19802  0.58180  Biso   1.000  N
  N30      1.0000 0.65920  0.69802  0.91820  Biso   1.000  N
  N31      1.0000 0.15920  0.80198  0.41820  Biso   1.000  N
  N32      1.0000 0.34080  0.30198  0.08180  Biso   1.000  N
  N33      1.0000 0.55220  0.11185  0.92920  Biso   1.000  N
  N34      1.0000 0.94780  0.61185  0.57080  Biso   1.000  N
  N35      1.0000 0.44780  0.88815  0.07080  Biso   1.000  N
  N36      1.0000 0.05220  0.38815  0.42920  Biso   1.000  N
  N37      1.0000 0.05170  0.12473  0.92240  Biso   1.000  N
  N38      1.0000 0.44830  0.62473  0.57760  Biso   1.000  N
  N39      1.0000 0.94830  0.87527  0.07760  Biso   1.000  N
  N40      1.0000 0.55170  0.37527  0.42240  Biso   1.000  N
  N41      1.0000 0.98730  0.61456  0.90160  Biso   1.000  N
  N42      1.0000 0.51270  0.11456  0.59840  Biso   1.000  N
  N43      1.0000 0.01270  0.38544  0.09840  Biso   1.000  N
  N44      1.0000 0.48730  0.88544  0.40160  Biso   1.000  N
  N45      1.0000 0.49040  0.61590  0.91360  Biso   1.000  N
  N46      1.0000 0.00960  0.11590  0.58640  Biso   1.000  N
  N47      1.0000 0.50960  0.38410  0.08640  Biso   1.000  N
  N48      1.0000 0.99040  0.88410  0.41360  Biso   1.000  N
