data_image0
_cell_length_a       21.9969
_cell_length_b       7.3578
_cell_length_c       20.3447
_cell_angle_alpha    90
_cell_angle_beta     90
_cell_angle_gamma    90

_symmetry_space_group_name_H-M    "P 1"
_symmetry_int_tables_number       1

loop_
  _symmetry_equiv_pos_as_xyz
  'x, y, z'

loop_
  _atom_site_label
  _atom_site_occupancy
  _atom_site_fract_x
  _atom_site_fract_y
  _atom_site_fract_z
  _atom_site_thermal_displace_type
  _atom_site_B_iso_or_equiv
  _atom_site_type_symbol
  O1       1.0000 0.48745  0.29580  0.44312  Biso   1.000  O
  O2       1.0000 0.01255  0.70420  0.44312  Biso   1.000  O
  O3       1.0000 0.51255  0.29580  0.05688  Biso   1.000  O
  O4       1.0000 0.98745  0.70420  0.05688  Biso   1.000  O
  O5       1.0000 0.51255  0.70420  0.55688  Biso   1.000  O
  O6       1.0000 0.98745  0.29580  0.55688  Biso   1.000  O
  O7       1.0000 0.48745  0.70420  0.94312  Biso   1.000  O
  O8       1.0000 0.01255  0.29580  0.94312  Biso   1.000  O
  Cu1      1.0000 0.50000  0.50000  0.50000  Biso   1.000  Cu
  Cu2      1.0000 0.00000  0.50000  0.50000  Biso   1.000  Cu
  Cu3      1.0000 0.50000  0.50000  0.00000  Biso   1.000  Cu
  Cu4      1.0000 0.00000  0.50000  0.00000  Biso   1.000  Cu
  Cu5      1.0000 0.25000  0.00000  0.82000  Biso   1.000  Cu
  Cu6      1.0000 0.75000  0.00000  0.68000  Biso   1.000  Cu
  Cu7      1.0000 0.75000  0.00000  0.18000  Biso   1.000  Cu
  Cu8      1.0000 0.25000  0.00000  0.32000  Biso   1.000  Cu
  Cu9      1.0000 0.41262  0.42888  0.32581  Biso   1.000  Cu
  Cu10     1.0000 0.08738  0.57112  0.32581  Biso   1.000  Cu
  Cu11     1.0000 0.58738  0.42888  0.17419  Biso   1.000  Cu
  Cu12     1.0000 0.91262  0.57112  0.17419  Biso   1.000  Cu
  Cu13     1.0000 0.58738  0.57112  0.67419  Biso   1.000  Cu
  Cu14     1.0000 0.91262  0.42888  0.67419  Biso   1.000  Cu
  Cu15     1.0000 0.41262  0.57112  0.82581  Biso   1.000  Cu
  Cu16     1.0000 0.08738  0.42888  0.82581  Biso   1.000  Cu
  N1       1.0000 0.41700  0.68370  0.36789  Biso   1.000  N
  N2       1.0000 0.08300  0.31630  0.36789  Biso   1.000  N
  N3       1.0000 0.58300  0.68370  0.13211  Biso   1.000  N
  N4       1.0000 0.91700  0.31630  0.13211  Biso   1.000  N
  N5       1.0000 0.58300  0.31630  0.63211  Biso   1.000  N
  N6       1.0000 0.91700  0.68370  0.63211  Biso   1.000  N
  N7       1.0000 0.41700  0.31630  0.86789  Biso   1.000  N
  N8       1.0000 0.08300  0.68370  0.86789  Biso   1.000  N
  N9       1.0000 0.42211  0.20560  0.52535  Biso   1.000  N
  N10      1.0000 0.07789  0.79440  0.52535  Biso   1.000  N
  N11      1.0000 0.57789  0.20560  0.97465  Biso   1.000  N
  N12      1.0000 0.92211  0.79440  0.97465  Biso   1.000  N
  N13      1.0000 0.57789  0.79440  0.47465  Biso   1.000  N
  N14      1.0000 0.92211  0.20560  0.47465  Biso   1.000  N
  N15      1.0000 0.42211  0.79440  0.02535  Biso   1.000  N
  N16      1.0000 0.07789  0.20560  0.02535  Biso   1.000  N
  N17      1.0000 0.43935  0.37050  0.55296  Biso   1.000  N
  N18      1.0000 0.06065  0.62950  0.55296  Biso   1.000  N
  N19      1.0000 0.56065  0.37050  0.94704  Biso   1.000  N
  N20      1.0000 0.93935  0.62950  0.94704  Biso   1.000  N
  N21      1.0000 0.56065  0.62950  0.44704  Biso   1.000  N
  N22      1.0000 0.93935  0.37050  0.44704  Biso   1.000  N
  N23      1.0000 0.43935  0.62950  0.05296  Biso   1.000  N
  N24      1.0000 0.06065  0.37050  0.05296  Biso   1.000  N
  N25      1.0000 0.30568  0.13870  0.74660  Biso   1.000  N
  N26      1.0000 0.19432  0.86130  0.74660  Biso   1.000  N
  N27      1.0000 0.69432  0.13870  0.75340  Biso   1.000  N
  N28      1.0000 0.80568  0.86130  0.75340  Biso   1.000  N
  N29      1.0000 0.69432  0.86130  0.25340  Biso   1.000  N
  N30      1.0000 0.80568  0.13870  0.25340  Biso   1.000  N
  N31      1.0000 0.30568  0.86130  0.24660  Biso   1.000  N
  N32      1.0000 0.19432  0.13870  0.24660  Biso   1.000  N
  N33      1.0000 0.34329  0.71150  0.84681  Biso   1.000  N
  N34      1.0000 0.15671  0.28850  0.84681  Biso   1.000  N
  N35      1.0000 0.65671  0.71150  0.65319  Biso   1.000  N
  N36      1.0000 0.84329  0.28850  0.65319  Biso   1.000  N
  N37      1.0000 0.65671  0.28850  0.15319  Biso   1.000  N
  N38      1.0000 0.84329  0.71150  0.15319  Biso   1.000  N
  N39      1.0000 0.34329  0.28850  0.34681  Biso   1.000  N
  N40      1.0000 0.15671  0.71150  0.34681  Biso   1.000  N
  N41      1.0000 0.47978  0.59610  0.76815  Biso   1.000  N
  N42      1.0000 0.02022  0.40390  0.76815  Biso   1.000  N
  N43      1.0000 0.52022  0.59610  0.73185  Biso   1.000  N
  N44      1.0000 0.97978  0.40390  0.73185  Biso   1.000  N
  N45      1.0000 0.52022  0.40390  0.23185  Biso   1.000  N
  N46      1.0000 0.97978  0.59610  0.23185  Biso   1.000  N
  N47      1.0000 0.47978  0.40390  0.26815  Biso   1.000  N
  N48      1.0000 0.02022  0.59610  0.26815  Biso   1.000  N
  C1       1.0000 0.45081  0.81510  0.34194  Biso   1.000  C
  C2       1.0000 0.04919  0.18490  0.34194  Biso   1.000  C
  C3       1.0000 0.54919  0.81510  0.15806  Biso   1.000  C
  C4       1.0000 0.95081  0.18490  0.15806  Biso   1.000  C
  C5       1.0000 0.54919  0.18490  0.65806  Biso   1.000  C
  C6       1.0000 0.95081  0.81510  0.65806  Biso   1.000  C
  C7       1.0000 0.45081  0.18490  0.84194  Biso   1.000  C
  C8       1.0000 0.04919  0.81510  0.84194  Biso   1.000  C
  H1       1.0000 0.46820  0.79510  0.30090  Biso   1.000  H
  H2       1.0000 0.03180  0.20490  0.30090  Biso   1.000  H
  H3       1.0000 0.53180  0.79510  0.19910  Biso   1.000  H
  H4       1.0000 0.96820  0.20490  0.19910  Biso   1.000  H
  H5       1.0000 0.53180  0.20490  0.69910  Biso   1.000  H
  H6       1.0000 0.96820  0.79510  0.69910  Biso   1.000  H
  H7       1.0000 0.46820  0.20490  0.80090  Biso   1.000  H
  H8       1.0000 0.03180  0.79510  0.80090  Biso   1.000  H
  C9       1.0000 0.46150  0.97950  0.37245  Biso   1.000  C
  C10      1.0000 0.03850  0.02050  0.37245  Biso   1.000  C
  C11      1.0000 0.53850  0.97950  0.12755  Biso   1.000  C
  C12      1.0000 0.96150  0.02050  0.12755  Biso   1.000  C
  C13      1.0000 0.53850  0.02050  0.62755  Biso   1.000  C
  C14      1.0000 0.96150  0.97950  0.62755  Biso   1.000  C
  C15      1.0000 0.46150  0.02050  0.87245  Biso   1.000  C
  C16      1.0000 0.03850  0.97950  0.87245  Biso   1.000  C
  H9       1.0000 0.48480  0.06820  0.35190  Biso   1.000  H
  H10      1.0000 0.01520  0.93180  0.35190  Biso   1.000  H
  H11      1.0000 0.51520  0.06820  0.14810  Biso   1.000  H
  H12      1.0000 0.98480  0.93180  0.14810  Biso   1.000  H
  H13      1.0000 0.51520  0.93180  0.64810  Biso   1.000  H
  H14      1.0000 0.98480  0.06820  0.64810  Biso   1.000  H
  H15      1.0000 0.48480  0.93180  0.85190  Biso   1.000  H
  H16      1.0000 0.01520  0.06820  0.85190  Biso   1.000  H
  C17      1.0000 0.43718  0.01050  0.43367  Biso   1.000  C
  C18      1.0000 0.06282  0.98950  0.43367  Biso   1.000  C
  C19      1.0000 0.56282  0.01050  0.06633  Biso   1.000  C
  C20      1.0000 0.93718  0.98950  0.06633  Biso   1.000  C
  C21      1.0000 0.56282  0.98950  0.56633  Biso   1.000  C
  C22      1.0000 0.93718  0.01050  0.56633  Biso   1.000  C
  C23      1.0000 0.43718  0.98950  0.93367  Biso   1.000  C
  C24      1.0000 0.06282  0.01050  0.93367  Biso   1.000  C
  C25      1.0000 0.40125  0.87510  0.46080  Biso   1.000  C
  C26      1.0000 0.09875  0.12490  0.46080  Biso   1.000  C
  C27      1.0000 0.59875  0.87510  0.03920  Biso   1.000  C
  C28      1.0000 0.90125  0.12490  0.03920  Biso   1.000  C
  C29      1.0000 0.59875  0.12490  0.53920  Biso   1.000  C
  C30      1.0000 0.90125  0.87510  0.53920  Biso   1.000  C
  C31      1.0000 0.40125  0.12490  0.96080  Biso   1.000  C
  C32      1.0000 0.09875  0.87510  0.96080  Biso   1.000  C
  H17      1.0000 0.38330  0.89180  0.50170  Biso   1.000  H
  H18      1.0000 0.11670  0.10820  0.50170  Biso   1.000  H
  H19      1.0000 0.61670  0.89180  0.99830  Biso   1.000  H
  H20      1.0000 0.88330  0.10820  0.99830  Biso   1.000  H
  H21      1.0000 0.61670  0.10820  0.49830  Biso   1.000  H
  H22      1.0000 0.88330  0.89180  0.49830  Biso   1.000  H
  H23      1.0000 0.38330  0.10820  0.00170  Biso   1.000  H
  H24      1.0000 0.11670  0.89180  0.00170  Biso   1.000  H
  C33      1.0000 0.39241  0.71640  0.42680  Biso   1.000  C
  C34      1.0000 0.10759  0.28360  0.42680  Biso   1.000  C
  C35      1.0000 0.60759  0.71640  0.07320  Biso   1.000  C
  C36      1.0000 0.89241  0.28360  0.07320  Biso   1.000  C
  C37      1.0000 0.60759  0.28360  0.57320  Biso   1.000  C
  C38      1.0000 0.89241  0.71640  0.57320  Biso   1.000  C
  C39      1.0000 0.39241  0.28360  0.92680  Biso   1.000  C
  C40      1.0000 0.10759  0.71640  0.92680  Biso   1.000  C
  H25      1.0000 0.36810  0.62710  0.44560  Biso   1.000  H
  H26      1.0000 0.13190  0.37290  0.44560  Biso   1.000  H
  H27      1.0000 0.63190  0.62710  0.05440  Biso   1.000  H
  H28      1.0000 0.86810  0.37290  0.05440  Biso   1.000  H
  H29      1.0000 0.63190  0.37290  0.55440  Biso   1.000  H
  H30      1.0000 0.86810  0.62710  0.55440  Biso   1.000  H
  H31      1.0000 0.36810  0.37290  0.94560  Biso   1.000  H
  H32      1.0000 0.13190  0.62710  0.94560  Biso   1.000  H
  C41      1.0000 0.44967  0.18450  0.46908  Biso   1.000  C
  C42      1.0000 0.05033  0.81550  0.46908  Biso   1.000  C
  C43      1.0000 0.55033  0.18450  0.03092  Biso   1.000  C
  C44      1.0000 0.94967  0.81550  0.03092  Biso   1.000  C
  C45      1.0000 0.55033  0.81550  0.53092  Biso   1.000  C
  C46      1.0000 0.94967  0.18450  0.53092  Biso   1.000  C
  C47      1.0000 0.44967  0.81550  0.96908  Biso   1.000  C
  C48      1.0000 0.05033  0.18450  0.96908  Biso   1.000  C
  C49      1.0000 0.41884  0.41540  0.60893  Biso   1.000  C
  C50      1.0000 0.08116  0.58460  0.60893  Biso   1.000  C
  C51      1.0000 0.58116  0.41540  0.89107  Biso   1.000  C
  C52      1.0000 0.91884  0.58460  0.89107  Biso   1.000  C
  C53      1.0000 0.58116  0.58460  0.39107  Biso   1.000  C
  C54      1.0000 0.91884  0.41540  0.39107  Biso   1.000  C
  C55      1.0000 0.41884  0.58460  0.10893  Biso   1.000  C
  C56      1.0000 0.08116  0.41540  0.10893  Biso   1.000  C
  H33      1.0000 0.43100  0.52910  0.62400  Biso   1.000  H
  H34      1.0000 0.06900  0.47090  0.62400  Biso   1.000  H
  H35      1.0000 0.56900  0.52910  0.87600  Biso   1.000  H
  H36      1.0000 0.93100  0.47090  0.87600  Biso   1.000  H
  H37      1.0000 0.56900  0.47090  0.37600  Biso   1.000  H
  H38      1.0000 0.93100  0.52910  0.37600  Biso   1.000  H
  H39      1.0000 0.43100  0.47090  0.12400  Biso   1.000  H
  H40      1.0000 0.06900  0.52910  0.12400  Biso   1.000  H
  C57      1.0000 0.37831  0.31290  0.65392  Biso   1.000  C
  C58      1.0000 0.12169  0.68710  0.65392  Biso   1.000  C
  C59      1.0000 0.62169  0.31290  0.84608  Biso   1.000  C
  C60      1.0000 0.87831  0.68710  0.84608  Biso   1.000  C
  C61      1.0000 0.62169  0.68710  0.34608  Biso   1.000  C
  C62      1.0000 0.87831  0.31290  0.34608  Biso   1.000  C
  C63      1.0000 0.37831  0.68710  0.15392  Biso   1.000  C
  C64      1.0000 0.12169  0.31290  0.15392  Biso   1.000  C
  C65      1.0000 0.34599  0.40860  0.70046  Biso   1.000  C
  C66      1.0000 0.15401  0.59140  0.70046  Biso   1.000  C
  C67      1.0000 0.65401  0.40860  0.79954  Biso   1.000  C
  C68      1.0000 0.84599  0.59140  0.79954  Biso   1.000  C
  C69      1.0000 0.65401  0.59140  0.29954  Biso   1.000  C
  C70      1.0000 0.84599  0.40860  0.29954  Biso   1.000  C
  C71      1.0000 0.34599  0.59140  0.20046  Biso   1.000  C
  C72      1.0000 0.15401  0.40860  0.20046  Biso   1.000  C
  H41      1.0000 0.34850  0.53470  0.70190  Biso   1.000  H
  H42      1.0000 0.15150  0.46530  0.70190  Biso   1.000  H
  H43      1.0000 0.65150  0.53470  0.79810  Biso   1.000  H
  H44      1.0000 0.84850  0.46530  0.79810  Biso   1.000  H
  H45      1.0000 0.65150  0.46530  0.29810  Biso   1.000  H
  H46      1.0000 0.84850  0.53470  0.29810  Biso   1.000  H
  H47      1.0000 0.34850  0.46530  0.20190  Biso   1.000  H
  H48      1.0000 0.15150  0.53470  0.20190  Biso   1.000  H
  C73      1.0000 0.31041  0.31840  0.74434  Biso   1.000  C
  C74      1.0000 0.18959  0.68160  0.74434  Biso   1.000  C
  C75      1.0000 0.68959  0.31840  0.75566  Biso   1.000  C
  C76      1.0000 0.81041  0.68160  0.75566  Biso   1.000  C
  C77      1.0000 0.68959  0.68160  0.25566  Biso   1.000  C
  C78      1.0000 0.81041  0.31840  0.25566  Biso   1.000  C
  C79      1.0000 0.31041  0.68160  0.24434  Biso   1.000  C
  C80      1.0000 0.18959  0.31840  0.24434  Biso   1.000  C
  H49      1.0000 0.28820  0.38640  0.77440  Biso   1.000  H
  H50      1.0000 0.21180  0.61360  0.77440  Biso   1.000  H
  H51      1.0000 0.71180  0.38640  0.72560  Biso   1.000  H
  H52      1.0000 0.78820  0.61360  0.72560  Biso   1.000  H
  H53      1.0000 0.71180  0.61360  0.22560  Biso   1.000  H
  H54      1.0000 0.78820  0.38640  0.22560  Biso   1.000  H
  H55      1.0000 0.28820  0.61360  0.27440  Biso   1.000  H
  H56      1.0000 0.21180  0.38640  0.27440  Biso   1.000  H
  C81      1.0000 0.33760  0.04560  0.70340  Biso   1.000  C
  C82      1.0000 0.16240  0.95440  0.70340  Biso   1.000  C
  C83      1.0000 0.66240  0.04560  0.79660  Biso   1.000  C
  C84      1.0000 0.83760  0.95440  0.79660  Biso   1.000  C
  C85      1.0000 0.66240  0.95440  0.29660  Biso   1.000  C
  C86      1.0000 0.83760  0.04560  0.29660  Biso   1.000  C
  C87      1.0000 0.33760  0.95440  0.20340  Biso   1.000  C
  C88      1.0000 0.16240  0.04560  0.20340  Biso   1.000  C
  H57      1.0000 0.33570  0.91940  0.70520  Biso   1.000  H
  H58      1.0000 0.16430  0.08060  0.70520  Biso   1.000  H
  H59      1.0000 0.66430  0.91940  0.79480  Biso   1.000  H
  H60      1.0000 0.83570  0.08060  0.79480  Biso   1.000  H
  H61      1.0000 0.66430  0.08060  0.29480  Biso   1.000  H
  H62      1.0000 0.83570  0.91940  0.29480  Biso   1.000  H
  H63      1.0000 0.33570  0.08060  0.20520  Biso   1.000  H
  H64      1.0000 0.16430  0.91940  0.20520  Biso   1.000  H
  C89      1.0000 0.37400  0.12460  0.65530  Biso   1.000  C
  C90      1.0000 0.12600  0.87540  0.65530  Biso   1.000  C
  C91      1.0000 0.62600  0.12460  0.84470  Biso   1.000  C
  C92      1.0000 0.87400  0.87540  0.84470  Biso   1.000  C
  C93      1.0000 0.62600  0.87540  0.34470  Biso   1.000  C
  C94      1.0000 0.87400  0.12460  0.34470  Biso   1.000  C
  C95      1.0000 0.37400  0.87540  0.15530  Biso   1.000  C
  C96      1.0000 0.12600  0.12460  0.15530  Biso   1.000  C
  H65      1.0000 0.39480  0.05350  0.62500  Biso   1.000  H
  H66      1.0000 0.10520  0.94650  0.62500  Biso   1.000  H
  H67      1.0000 0.60520  0.05350  0.87500  Biso   1.000  H
  H68      1.0000 0.89480  0.94650  0.87500  Biso   1.000  H
  H69      1.0000 0.60520  0.94650  0.37500  Biso   1.000  H
  H70      1.0000 0.89480  0.05350  0.37500  Biso   1.000  H
  H71      1.0000 0.39480  0.94650  0.12500  Biso   1.000  H
  H72      1.0000 0.10520  0.05350  0.12500  Biso   1.000  H
  C97      1.0000 0.30365  0.81290  0.84710  Biso   1.000  C
  C98      1.0000 0.19635  0.18710  0.84710  Biso   1.000  C
  C99      1.0000 0.69635  0.81290  0.65290  Biso   1.000  C
  C100     1.0000 0.80365  0.18710  0.65290  Biso   1.000  C
  C101     1.0000 0.69635  0.18710  0.15290  Biso   1.000  C
  C102     1.0000 0.80365  0.81290  0.15290  Biso   1.000  C
  C103     1.0000 0.30365  0.18710  0.34710  Biso   1.000  C
  C104     1.0000 0.19635  0.81290  0.34710  Biso   1.000  C
  O9       1.0000 0.30430  0.70480  0.58430  Biso   1.000  O
  O10      1.0000 0.19570  0.29520  0.58430  Biso   1.000  O
  O11      1.0000 0.69570  0.70480  0.91570  Biso   1.000  O
  O12      1.0000 0.80430  0.29520  0.91570  Biso   1.000  O
  O13      1.0000 0.69570  0.29520  0.41570  Biso   1.000  O
  O14      1.0000 0.80430  0.70480  0.41570  Biso   1.000  O
  O15      1.0000 0.30430  0.29520  0.08430  Biso   1.000  O
  O16      1.0000 0.19570  0.70480  0.08430  Biso   1.000  O
  H73      1.0000 0.31330  0.81170  0.59680  Biso   1.000  H
  H74      1.0000 0.18670  0.18830  0.59680  Biso   1.000  H
  H75      1.0000 0.68670  0.81170  0.90320  Biso   1.000  H
  H76      1.0000 0.81330  0.18830  0.90320  Biso   1.000  H
  H77      1.0000 0.68670  0.18830  0.40320  Biso   1.000  H
  H78      1.0000 0.81330  0.81170  0.40320  Biso   1.000  H
  H79      1.0000 0.31330  0.18830  0.09680  Biso   1.000  H
  H80      1.0000 0.18670  0.81170  0.09680  Biso   1.000  H
  H81      1.0000 0.26590  0.69980  0.57940  Biso   1.000  H
  H82      1.0000 0.23410  0.30020  0.57940  Biso   1.000  H
  H83      1.0000 0.73410  0.69980  0.92060  Biso   1.000  H
  H84      1.0000 0.76590  0.30020  0.92060  Biso   1.000  H
  H85      1.0000 0.73410  0.30020  0.42060  Biso   1.000  H
  H86      1.0000 0.76590  0.69980  0.42060  Biso   1.000  H
  H87      1.0000 0.26590  0.30020  0.07940  Biso   1.000  H
  H88      1.0000 0.23410  0.69980  0.07940  Biso   1.000  H
  O17      1.0000 0.22640  0.80600  0.50030  Biso   1.000  O
  O18      1.0000 0.27360  0.19400  0.50030  Biso   1.000  O
  O19      1.0000 0.77360  0.80600  0.99970  Biso   1.000  O
  O20      1.0000 0.72640  0.19400  0.99970  Biso   1.000  O
  O21      1.0000 0.77360  0.19400  0.49970  Biso   1.000  O
  O22      1.0000 0.72640  0.80600  0.49970  Biso   1.000  O
  O23      1.0000 0.22640  0.19400  0.00030  Biso   1.000  O
  O24      1.0000 0.27360  0.80600  0.00030  Biso   1.000  O
  H89      1.0000 0.21160  0.90210  0.51690  Biso   1.000  H
  H90      1.0000 0.28840  0.09790  0.51690  Biso   1.000  H
  H91      1.0000 0.78840  0.90210  0.98310  Biso   1.000  H
  H92      1.0000 0.71160  0.09790  0.98310  Biso   1.000  H
  H93      1.0000 0.78840  0.09790  0.48310  Biso   1.000  H
  H94      1.0000 0.71160  0.90210  0.48310  Biso   1.000  H
  H95      1.0000 0.21160  0.09790  0.01690  Biso   1.000  H
  H96      1.0000 0.28840  0.90210  0.01690  Biso   1.000  H
  H97      1.0000 0.22130  0.71850  0.52710  Biso   1.000  H
  H98      1.0000 0.27870  0.28150  0.52710  Biso   1.000  H
  H99      1.0000 0.77870  0.71850  0.97290  Biso   1.000  H
  H100     1.0000 0.72130  0.28150  0.97290  Biso   1.000  H
  H101     1.0000 0.77870  0.28150  0.47290  Biso   1.000  H
  H102     1.0000 0.72130  0.71850  0.47290  Biso   1.000  H
  H103     1.0000 0.22130  0.28150  0.02710  Biso   1.000  H
  H104     1.0000 0.27870  0.71850  0.02710  Biso   1.000  H
  O25      1.0000 0.27550  0.71600  0.54700  Biso   1.000  O
  O26      1.0000 0.22450  0.28400  0.54700  Biso   1.000  O
  O27      1.0000 0.72450  0.71600  0.95300  Biso   1.000  O
  O28      1.0000 0.77550  0.28400  0.95300  Biso   1.000  O
  O29      1.0000 0.72450  0.28400  0.45300  Biso   1.000  O
  O30      1.0000 0.77550  0.71600  0.45300  Biso   1.000  O
  O31      1.0000 0.27550  0.28400  0.04700  Biso   1.000  O
  O32      1.0000 0.22450  0.71600  0.04700  Biso   1.000  O
  H105     1.0000 0.25450  0.80440  0.56160  Biso   1.000  H
  H106     1.0000 0.24550  0.19560  0.56160  Biso   1.000  H
  H107     1.0000 0.74550  0.80440  0.93840  Biso   1.000  H
  H108     1.0000 0.75450  0.19560  0.93840  Biso   1.000  H
  H109     1.0000 0.74550  0.19560  0.43840  Biso   1.000  H
  H110     1.0000 0.75450  0.80440  0.43840  Biso   1.000  H
  H111     1.0000 0.25450  0.19560  0.06160  Biso   1.000  H
  H112     1.0000 0.24550  0.80440  0.06160  Biso   1.000  H
  H113     1.0000 0.25340  0.65100  0.52220  Biso   1.000  H
  H114     1.0000 0.24660  0.34900  0.52220  Biso   1.000  H
  H115     1.0000 0.74660  0.65100  0.97780  Biso   1.000  H
  H116     1.0000 0.75340  0.34900  0.97780  Biso   1.000  H
  H117     1.0000 0.74660  0.34900  0.47780  Biso   1.000  H
  H118     1.0000 0.75340  0.65100  0.47780  Biso   1.000  H
  H119     1.0000 0.25340  0.34900  0.02220  Biso   1.000  H
  H120     1.0000 0.24660  0.65100  0.02220  Biso   1.000  H
