data_image0
_cell_length_a       13.668
_cell_length_b       8.401
_cell_length_c       12.406
_cell_angle_alpha    90
_cell_angle_beta     96.961
_cell_angle_gamma    90

_symmetry_space_group_name_H-M    "P 1"
_symmetry_int_tables_number       1

loop_
  _symmetry_equiv_pos_as_xyz
  'x, y, z'

loop_
  _atom_site_label
  _atom_site_occupancy
  _atom_site_fract_x
  _atom_site_fract_y
  _atom_site_fract_z
  _atom_site_thermal_displace_type
  _atom_site_B_iso_or_equiv
  _atom_site_type_symbol
  Cu1      1.0000 0.06248  0.06087  0.32592  Biso   1.000  Cu
  Cu2      1.0000 0.56248  0.56087  0.32592  Biso   1.000  Cu
  Cu3      1.0000 0.93752  0.06087  0.17408  Biso   1.000  Cu
  Cu4      1.0000 0.43752  0.56087  0.17408  Biso   1.000  Cu
  Cu5      1.0000 0.93752  0.93913  0.67408  Biso   1.000  Cu
  Cu6      1.0000 0.43752  0.43913  0.67408  Biso   1.000  Cu
  Cu7      1.0000 0.06248  0.93913  0.82592  Biso   1.000  Cu
  Cu8      1.0000 0.56248  0.43913  0.82592  Biso   1.000  Cu
  N1       1.0000 0.18290  0.99090  0.42030  Biso   1.000  N
  N2       1.0000 0.68290  0.49090  0.42030  Biso   1.000  N
  N3       1.0000 0.81710  0.99090  0.07970  Biso   1.000  N
  N4       1.0000 0.31710  0.49090  0.07970  Biso   1.000  N
  N5       1.0000 0.81710  0.00910  0.57970  Biso   1.000  N
  N6       1.0000 0.31710  0.50910  0.57970  Biso   1.000  N
  N7       1.0000 0.18290  0.00910  0.92030  Biso   1.000  N
  N8       1.0000 0.68290  0.50910  0.92030  Biso   1.000  N
  O1       1.0000 0.36840  0.71490  0.27020  Biso   1.000  O
  O2       1.0000 0.86840  0.21490  0.27020  Biso   1.000  O
  O3       1.0000 0.63160  0.71490  0.22980  Biso   1.000  O
  O4       1.0000 0.13160  0.21490  0.22980  Biso   1.000  O
  O5       1.0000 0.63160  0.28510  0.72980  Biso   1.000  O
  O6       1.0000 0.13160  0.78510  0.72980  Biso   1.000  O
  O7       1.0000 0.36840  0.28510  0.77020  Biso   1.000  O
  O8       1.0000 0.86840  0.78510  0.77020  Biso   1.000  O
  O9       1.0000 0.48490  0.71200  0.41310  Biso   1.000  O
  O10      1.0000 0.98490  0.21200  0.41310  Biso   1.000  O
  O11      1.0000 0.51510  0.71200  0.08690  Biso   1.000  O
  O12      1.0000 0.01510  0.21200  0.08690  Biso   1.000  O
  O13      1.0000 0.51510  0.28800  0.58690  Biso   1.000  O
  O14      1.0000 0.01510  0.78800  0.58690  Biso   1.000  O
  O15      1.0000 0.48490  0.28800  0.91310  Biso   1.000  O
  O16      1.0000 0.98490  0.78800  0.91310  Biso   1.000  O
  O17      1.0000 0.00000  0.75260  0.25000  Biso   1.000  O
  O18      1.0000 0.50000  0.25260  0.25000  Biso   1.000  O
  O19      1.0000 0.00000  0.24740  0.75000  Biso   1.000  O
  O20      1.0000 0.50000  0.74740  0.75000  Biso   1.000  O
  C1       1.0000 0.40380  0.75470  0.36400  Biso   1.000  C
  C2       1.0000 0.90380  0.25470  0.36400  Biso   1.000  C
  C3       1.0000 0.59620  0.75470  0.13600  Biso   1.000  C
  C4       1.0000 0.09620  0.25470  0.13600  Biso   1.000  C
  C5       1.0000 0.59620  0.24530  0.63600  Biso   1.000  C
  C6       1.0000 0.09620  0.74530  0.63600  Biso   1.000  C
  C7       1.0000 0.40380  0.24530  0.86400  Biso   1.000  C
  C8       1.0000 0.90380  0.74530  0.86400  Biso   1.000  C
  C9       1.0000 0.24630  0.89860  0.37510  Biso   1.000  C
  C10      1.0000 0.74630  0.39860  0.37510  Biso   1.000  C
  C11      1.0000 0.75370  0.89860  0.12490  Biso   1.000  C
  C12      1.0000 0.25370  0.39860  0.12490  Biso   1.000  C
  C13      1.0000 0.75370  0.10140  0.62490  Biso   1.000  C
  C14      1.0000 0.25370  0.60140  0.62490  Biso   1.000  C
  C15      1.0000 0.24630  0.10140  0.87510  Biso   1.000  C
  C16      1.0000 0.74630  0.60140  0.87510  Biso   1.000  C
  H1       1.0000 0.22580  0.85580  0.30690  Biso   1.000  H
  H2       1.0000 0.72580  0.35580  0.30690  Biso   1.000  H
  H3       1.0000 0.77420  0.85580  0.19310  Biso   1.000  H
  H4       1.0000 0.27420  0.35580  0.19310  Biso   1.000  H
  H5       1.0000 0.77420  0.14420  0.69310  Biso   1.000  H
  H6       1.0000 0.27420  0.64420  0.69310  Biso   1.000  H
  H7       1.0000 0.22580  0.14420  0.80690  Biso   1.000  H
  H8       1.0000 0.72580  0.64420  0.80690  Biso   1.000  H
  C17      1.0000 0.34030  0.86230  0.42280  Biso   1.000  C
  C18      1.0000 0.84030  0.36230  0.42280  Biso   1.000  C
  C19      1.0000 0.65970  0.86230  0.07720  Biso   1.000  C
  C20      1.0000 0.15970  0.36230  0.07720  Biso   1.000  C
  C21      1.0000 0.65970  0.13770  0.57720  Biso   1.000  C
  C22      1.0000 0.15970  0.63770  0.57720  Biso   1.000  C
  C23      1.0000 0.34030  0.13770  0.92280  Biso   1.000  C
  C24      1.0000 0.84030  0.63770  0.92280  Biso   1.000  C
  C25      1.0000 0.37000  0.92910  0.52360  Biso   1.000  C
  C26      1.0000 0.87000  0.42910  0.52360  Biso   1.000  C
  C27      1.0000 0.63000  0.92910  0.97640  Biso   1.000  C
  C28      1.0000 0.13000  0.42910  0.97640  Biso   1.000  C
  C29      1.0000 0.63000  0.07090  0.47640  Biso   1.000  C
  C30      1.0000 0.13000  0.57090  0.47640  Biso   1.000  C
  C31      1.0000 0.37000  0.07090  0.02360  Biso   1.000  C
  C32      1.0000 0.87000  0.57090  0.02360  Biso   1.000  C
  H9       1.0000 0.43250  0.90800  0.55910  Biso   1.000  H
  H10      1.0000 0.93250  0.40800  0.55910  Biso   1.000  H
  H11      1.0000 0.56750  0.90800  0.94090  Biso   1.000  H
  H12      1.0000 0.06750  0.40800  0.94090  Biso   1.000  H
  H13      1.0000 0.56750  0.09200  0.44090  Biso   1.000  H
  H14      1.0000 0.06750  0.59200  0.44090  Biso   1.000  H
  H15      1.0000 0.43250  0.09200  0.05910  Biso   1.000  H
  H16      1.0000 0.93250  0.59200  0.05910  Biso   1.000  H
  C33      1.0000 0.30680  0.02610  0.57050  Biso   1.000  C
  C34      1.0000 0.80680  0.52610  0.57050  Biso   1.000  C
  C35      1.0000 0.69320  0.02610  0.92950  Biso   1.000  C
  C36      1.0000 0.19320  0.52610  0.92950  Biso   1.000  C
  C37      1.0000 0.69320  0.97390  0.42950  Biso   1.000  C
  C38      1.0000 0.19320  0.47390  0.42950  Biso   1.000  C
  C39      1.0000 0.30680  0.97390  0.07050  Biso   1.000  C
  C40      1.0000 0.80680  0.47390  0.07050  Biso   1.000  C
  H17      1.0000 0.32610  0.07360  0.63740  Biso   1.000  H
  H18      1.0000 0.82610  0.57360  0.63740  Biso   1.000  H
  H19      1.0000 0.67390  0.07360  0.86260  Biso   1.000  H
  H20      1.0000 0.17390  0.57360  0.86260  Biso   1.000  H
  H21      1.0000 0.67390  0.92640  0.36260  Biso   1.000  H
  H22      1.0000 0.17390  0.42640  0.36260  Biso   1.000  H
  H23      1.0000 0.32610  0.92640  0.13740  Biso   1.000  H
  H24      1.0000 0.82610  0.42640  0.13740  Biso   1.000  H
  C41      1.0000 0.21360  0.05220  0.51660  Biso   1.000  C
  C42      1.0000 0.71360  0.55220  0.51660  Biso   1.000  C
  C43      1.0000 0.78640  0.05220  0.98340  Biso   1.000  C
  C44      1.0000 0.28640  0.55220  0.98340  Biso   1.000  C
  C45      1.0000 0.78640  0.94780  0.48340  Biso   1.000  C
  C46      1.0000 0.28640  0.44780  0.48340  Biso   1.000  C
  C47      1.0000 0.21360  0.94780  0.01660  Biso   1.000  C
  C48      1.0000 0.71360  0.44780  0.01660  Biso   1.000  C
  H25      1.0000 0.17040  0.11610  0.54980  Biso   1.000  H
  H26      1.0000 0.67040  0.61610  0.54980  Biso   1.000  H
  H27      1.0000 0.82960  0.11610  0.95020  Biso   1.000  H
  H28      1.0000 0.32960  0.61610  0.95020  Biso   1.000  H
  H29      1.0000 0.82960  0.88390  0.45020  Biso   1.000  H
  H30      1.0000 0.32960  0.38390  0.45020  Biso   1.000  H
  H31      1.0000 0.17040  0.88390  0.04980  Biso   1.000  H
  H32      1.0000 0.67040  0.38390  0.04980  Biso   1.000  H
  C49      1.0000 0.00000  0.88570  0.25000  Biso   1.000  C
  C50      1.0000 0.50000  0.38570  0.25000  Biso   1.000  C
  C51      1.0000 0.00000  0.11430  0.75000  Biso   1.000  C
  C52      1.0000 0.50000  0.61430  0.75000  Biso   1.000  C
