data_image0
_cell_length_a       13.728
_cell_length_b       7.05
_cell_length_c       13.559
_cell_angle_alpha    90
_cell_angle_beta     90
_cell_angle_gamma    90

_symmetry_space_group_name_H-M    "P 1"
_symmetry_int_tables_number       1

loop_
  _symmetry_equiv_pos_as_xyz
  'x, y, z'

loop_
  _atom_site_label
  _atom_site_occupancy
  _atom_site_fract_x
  _atom_site_fract_y
  _atom_site_fract_z
  _atom_site_thermal_displace_type
  _atom_site_B_iso_or_equiv
  _atom_site_type_symbol
  Cu1      1.0000 0.06068  0.12678  0.68611  Biso   1.000  Cu
  Cu2      1.0000 0.43932  0.37322  0.18611  Biso   1.000  Cu
  Cu3      1.0000 0.93932  0.12678  0.81389  Biso   1.000  Cu
  Cu4      1.0000 0.56068  0.37322  0.31389  Biso   1.000  Cu
  Cu5      1.0000 0.93932  0.87322  0.31389  Biso   1.000  Cu
  Cu6      1.0000 0.56068  0.62678  0.81389  Biso   1.000  Cu
  Cu7      1.0000 0.06068  0.87322  0.18611  Biso   1.000  Cu
  Cu8      1.0000 0.43932  0.62678  0.68611  Biso   1.000  Cu
  N1       1.0000 0.15960  0.07630  0.58110  Biso   1.000  N
  N2       1.0000 0.34040  0.42370  0.08110  Biso   1.000  N
  N3       1.0000 0.84040  0.07630  0.91890  Biso   1.000  N
  N4       1.0000 0.65960  0.42370  0.41890  Biso   1.000  N
  N5       1.0000 0.84040  0.92370  0.41890  Biso   1.000  N
  N6       1.0000 0.65960  0.57630  0.91890  Biso   1.000  N
  N7       1.0000 0.15960  0.92370  0.08110  Biso   1.000  N
  N8       1.0000 0.34040  0.57630  0.58110  Biso   1.000  N
  O1       1.0000 0.46750  0.20790  0.39710  Biso   1.000  O
  O2       1.0000 0.03250  0.29210  0.89710  Biso   1.000  O
  O3       1.0000 0.53250  0.20790  0.10290  Biso   1.000  O
  O4       1.0000 0.96750  0.29210  0.60290  Biso   1.000  O
  O5       1.0000 0.53250  0.79210  0.60290  Biso   1.000  O
  O6       1.0000 0.96750  0.70790  0.10290  Biso   1.000  O
  O7       1.0000 0.46750  0.79210  0.89710  Biso   1.000  O
  O8       1.0000 0.03250  0.70790  0.39710  Biso   1.000  O
  O9       1.0000 0.35350  0.21470  0.27890  Biso   1.000  O
  O10      1.0000 0.14650  0.28530  0.77890  Biso   1.000  O
  O11      1.0000 0.64650  0.21470  0.22110  Biso   1.000  O
  O12      1.0000 0.85350  0.28530  0.72110  Biso   1.000  O
  O13      1.0000 0.64650  0.78530  0.72110  Biso   1.000  O
  O14      1.0000 0.85350  0.71470  0.22110  Biso   1.000  O
  O15      1.0000 0.35350  0.78530  0.77890  Biso   1.000  O
  O16      1.0000 0.14650  0.71470  0.27890  Biso   1.000  O
  O17      1.0000 0.00000  0.75480  0.75000  Biso   1.000  O
  O18      1.0000 0.50000  0.74520  0.25000  Biso   1.000  O
  O19      1.0000 0.00000  0.24520  0.25000  Biso   1.000  O
  O20      1.0000 0.50000  0.25480  0.75000  Biso   1.000  O
  C1       1.0000 0.25450  0.05550  0.60340  Biso   1.000  C
  C2       1.0000 0.24550  0.44450  0.10340  Biso   1.000  C
  C3       1.0000 0.74550  0.05550  0.89660  Biso   1.000  C
  C4       1.0000 0.75450  0.44450  0.39660  Biso   1.000  C
  C5       1.0000 0.74550  0.94450  0.39660  Biso   1.000  C
  C6       1.0000 0.75450  0.55550  0.89660  Biso   1.000  C
  C7       1.0000 0.25450  0.94450  0.10340  Biso   1.000  C
  C8       1.0000 0.24550  0.55550  0.60340  Biso   1.000  C
  H1       1.0000 0.27120  0.02160  0.66760  Biso   1.000  H
  H2       1.0000 0.22880  0.47840  0.16760  Biso   1.000  H
  H3       1.0000 0.72880  0.02160  0.83240  Biso   1.000  H
  H4       1.0000 0.77120  0.47840  0.33240  Biso   1.000  H
  H5       1.0000 0.72880  0.97840  0.33240  Biso   1.000  H
  H6       1.0000 0.77120  0.52160  0.83240  Biso   1.000  H
  H7       1.0000 0.27120  0.97840  0.16760  Biso   1.000  H
  H8       1.0000 0.22880  0.52160  0.66760  Biso   1.000  H
  C9       1.0000 0.32810  0.08190  0.53590  Biso   1.000  C
  C10      1.0000 0.17190  0.41810  0.03590  Biso   1.000  C
  C11      1.0000 0.67190  0.08190  0.96410  Biso   1.000  C
  C12      1.0000 0.82810  0.41810  0.46410  Biso   1.000  C
  C13      1.0000 0.67190  0.91810  0.46410  Biso   1.000  C
  C14      1.0000 0.82810  0.58190  0.96410  Biso   1.000  C
  C15      1.0000 0.32810  0.91810  0.03590  Biso   1.000  C
  C16      1.0000 0.17190  0.58190  0.53590  Biso   1.000  C
  H9       1.0000 0.39290  0.06750  0.55460  Biso   1.000  H
  H10      1.0000 0.10710  0.43250  0.05460  Biso   1.000  H
  H11      1.0000 0.60710  0.06750  0.94540  Biso   1.000  H
  H12      1.0000 0.89290  0.43250  0.44540  Biso   1.000  H
  H13      1.0000 0.60710  0.93250  0.44540  Biso   1.000  H
  H14      1.0000 0.89290  0.56750  0.94540  Biso   1.000  H
  H15      1.0000 0.39290  0.93250  0.05460  Biso   1.000  H
  H16      1.0000 0.10710  0.56750  0.55460  Biso   1.000  H
  C17      1.0000 0.30470  0.13020  0.43970  Biso   1.000  C
  C18      1.0000 0.19530  0.36980  0.93970  Biso   1.000  C
  C19      1.0000 0.69530  0.13020  0.06030  Biso   1.000  C
  C20      1.0000 0.80470  0.36980  0.56030  Biso   1.000  C
  C21      1.0000 0.69530  0.86980  0.56030  Biso   1.000  C
  C22      1.0000 0.80470  0.63020  0.06030  Biso   1.000  C
  C23      1.0000 0.30470  0.86980  0.93970  Biso   1.000  C
  C24      1.0000 0.19530  0.63020  0.43970  Biso   1.000  C
  C25      1.0000 0.20750  0.14240  0.41490  Biso   1.000  C
  C26      1.0000 0.29250  0.35760  0.91490  Biso   1.000  C
  C27      1.0000 0.79250  0.14240  0.08510  Biso   1.000  C
  C28      1.0000 0.70750  0.35760  0.58510  Biso   1.000  C
  C29      1.0000 0.79250  0.85760  0.58510  Biso   1.000  C
  C30      1.0000 0.70750  0.64240  0.08510  Biso   1.000  C
  C31      1.0000 0.20750  0.85760  0.91490  Biso   1.000  C
  C32      1.0000 0.29250  0.64240  0.41490  Biso   1.000  C
  H17      1.0000 0.18920  0.16830  0.35020  Biso   1.000  H
  H18      1.0000 0.31080  0.33170  0.85020  Biso   1.000  H
  H19      1.0000 0.81080  0.16830  0.14980  Biso   1.000  H
  H20      1.0000 0.68920  0.33170  0.64980  Biso   1.000  H
  H21      1.0000 0.81080  0.83170  0.64980  Biso   1.000  H
  H22      1.0000 0.68920  0.66830  0.14980  Biso   1.000  H
  H23      1.0000 0.18920  0.83170  0.85020  Biso   1.000  H
  H24      1.0000 0.31080  0.66830  0.35020  Biso   1.000  H
  C33      1.0000 0.13760  0.11590  0.48690  Biso   1.000  C
  C34      1.0000 0.36240  0.38410  0.98690  Biso   1.000  C
  C35      1.0000 0.86240  0.11590  0.01310  Biso   1.000  C
  C36      1.0000 0.63760  0.38410  0.51310  Biso   1.000  C
  C37      1.0000 0.86240  0.88410  0.51310  Biso   1.000  C
  C38      1.0000 0.63760  0.61590  0.01310  Biso   1.000  C
  C39      1.0000 0.13760  0.88410  0.98690  Biso   1.000  C
  C40      1.0000 0.36240  0.61590  0.48690  Biso   1.000  C
  H25      1.0000 0.07240  0.12600  0.46920  Biso   1.000  H
  H26      1.0000 0.42760  0.37400  0.96920  Biso   1.000  H
  H27      1.0000 0.92760  0.12600  0.03080  Biso   1.000  H
  H28      1.0000 0.57240  0.37400  0.53080  Biso   1.000  H
  H29      1.0000 0.92760  0.87400  0.53080  Biso   1.000  H
  H30      1.0000 0.57240  0.62600  0.03080  Biso   1.000  H
  H31      1.0000 0.07240  0.87400  0.96920  Biso   1.000  H
  H32      1.0000 0.42760  0.62600  0.46920  Biso   1.000  H
  C41      1.0000 0.38220  0.18510  0.36560  Biso   1.000  C
  C42      1.0000 0.11780  0.31490  0.86560  Biso   1.000  C
  C43      1.0000 0.61780  0.18510  0.13440  Biso   1.000  C
  C44      1.0000 0.88220  0.31490  0.63440  Biso   1.000  C
  C45      1.0000 0.61780  0.81490  0.63440  Biso   1.000  C
  C46      1.0000 0.88220  0.68510  0.13440  Biso   1.000  C
  C47      1.0000 0.38220  0.81490  0.86560  Biso   1.000  C
  C48      1.0000 0.11780  0.68510  0.36560  Biso   1.000  C
  C49      1.0000 0.00000  0.91520  0.75000  Biso   1.000  C
  C50      1.0000 0.50000  0.58480  0.25000  Biso   1.000  C
  C51      1.0000 0.00000  0.08480  0.25000  Biso   1.000  C
  C52      1.0000 0.50000  0.41520  0.75000  Biso   1.000  C
