data_image0
_cell_length_a       17.7137
_cell_length_b       15.8059
_cell_length_c       7.0875
_cell_angle_alpha    90
_cell_angle_beta     112.018
_cell_angle_gamma    90

_symmetry_space_group_name_H-M    "P 1"
_symmetry_int_tables_number       1

loop_
  _symmetry_equiv_pos_as_xyz
  'x, y, z'

loop_
  _atom_site_label
  _atom_site_occupancy
  _atom_site_fract_x
  _atom_site_fract_y
  _atom_site_fract_z
  _atom_site_thermal_displace_type
  _atom_site_B_iso_or_equiv
  _atom_site_type_symbol
  Br1      1.0000 0.58482  0.07420  0.57611  Biso   1.000  Br
  Br2      1.0000 0.41518  0.07420  0.92389  Biso   1.000  Br
  Br3      1.0000 0.08482  0.57420  0.57611  Biso   1.000  Br
  Br4      1.0000 0.91518  0.57420  0.92389  Biso   1.000  Br
  Br5      1.0000 0.41518  0.92580  0.42389  Biso   1.000  Br
  Br6      1.0000 0.58482  0.92580  0.07611  Biso   1.000  Br
  Br7      1.0000 0.91518  0.42580  0.42389  Biso   1.000  Br
  Br8      1.0000 0.08482  0.42580  0.07611  Biso   1.000  Br
  Cu1      1.0000 0.50000  0.18919  0.75000  Biso   1.000  Cu
  Cu2      1.0000 0.00000  0.68919  0.75000  Biso   1.000  Cu
  Cu3      1.0000 0.50000  0.81081  0.25000  Biso   1.000  Cu
  Cu4      1.0000 0.00000  0.31081  0.25000  Biso   1.000  Cu
  Cu5      1.0000 0.50000  0.99433  0.75000  Biso   1.000  Cu
  Cu6      1.0000 0.00000  0.49433  0.75000  Biso   1.000  Cu
  Cu7      1.0000 0.50000  0.00567  0.25000  Biso   1.000  Cu
  Cu8      1.0000 0.00000  0.50567  0.25000  Biso   1.000  Cu
  O1       1.0000 0.00000  0.94780  0.75000  Biso   1.000  O
  O2       1.0000 0.50000  0.44780  0.75000  Biso   1.000  O
  O3       1.0000 0.00000  0.05220  0.25000  Biso   1.000  O
  O4       1.0000 0.50000  0.55220  0.25000  Biso   1.000  O
  N1       1.0000 0.59561  0.21320  0.98320  Biso   1.000  N
  N2       1.0000 0.40439  0.21320  0.51680  Biso   1.000  N
  N3       1.0000 0.09561  0.71320  0.98320  Biso   1.000  N
  N4       1.0000 0.90439  0.71320  0.51680  Biso   1.000  N
  N5       1.0000 0.40439  0.78680  0.01680  Biso   1.000  N
  N6       1.0000 0.59561  0.78680  0.48320  Biso   1.000  N
  N7       1.0000 0.90439  0.28680  0.01680  Biso   1.000  N
  N8       1.0000 0.09561  0.28680  0.48320  Biso   1.000  N
  N9       1.0000 0.71571  0.19410  0.22400  Biso   1.000  N
  N10      1.0000 0.28429  0.19410  0.27600  Biso   1.000  N
  N11      1.0000 0.21571  0.69410  0.22400  Biso   1.000  N
  N12      1.0000 0.78429  0.69410  0.27600  Biso   1.000  N
  N13      1.0000 0.28429  0.80590  0.77600  Biso   1.000  N
  N14      1.0000 0.71571  0.80590  0.72400  Biso   1.000  N
  N15      1.0000 0.78429  0.30590  0.77600  Biso   1.000  N
  N16      1.0000 0.21571  0.30590  0.72400  Biso   1.000  N
  C1       1.0000 0.64630  0.15710  0.09890  Biso   1.000  C
  C2       1.0000 0.35370  0.15710  0.40110  Biso   1.000  C
  C3       1.0000 0.14630  0.65710  0.09890  Biso   1.000  C
  C4       1.0000 0.85370  0.65710  0.40110  Biso   1.000  C
  C5       1.0000 0.35370  0.84290  0.90110  Biso   1.000  C
  C6       1.0000 0.64630  0.84290  0.59890  Biso   1.000  C
  C7       1.0000 0.85370  0.34290  0.90110  Biso   1.000  C
  C8       1.0000 0.14630  0.34290  0.59890  Biso   1.000  C
  H1       1.0000 0.63590  0.09940  0.09550  Biso   1.000  H
  H2       1.0000 0.36410  0.09940  0.40450  Biso   1.000  H
  H3       1.0000 0.13590  0.59940  0.09550  Biso   1.000  H
  H4       1.0000 0.86410  0.59940  0.40450  Biso   1.000  H
  H5       1.0000 0.36410  0.90060  0.90450  Biso   1.000  H
  H6       1.0000 0.63590  0.90060  0.59550  Biso   1.000  H
  H7       1.0000 0.86410  0.40060  0.90450  Biso   1.000  H
  H8       1.0000 0.13590  0.40060  0.59550  Biso   1.000  H
  C9       1.0000 0.63350  0.29050  0.03670  Biso   1.000  C
  C10      1.0000 0.36650  0.29050  0.46330  Biso   1.000  C
  C11      1.0000 0.13350  0.79050  0.03670  Biso   1.000  C
  C12      1.0000 0.86650  0.79050  0.46330  Biso   1.000  C
  C13      1.0000 0.36650  0.70950  0.96330  Biso   1.000  C
  C14      1.0000 0.63350  0.70950  0.53670  Biso   1.000  C
  C15      1.0000 0.86650  0.20950  0.96330  Biso   1.000  C
  C16      1.0000 0.13350  0.20950  0.53670  Biso   1.000  C
  H9       1.0000 0.61130  0.34210  0.98000  Biso   1.000  H
  H10      1.0000 0.38870  0.34210  0.52000  Biso   1.000  H
  H11      1.0000 0.11130  0.84210  0.98000  Biso   1.000  H
  H12      1.0000 0.88870  0.84210  0.52000  Biso   1.000  H
  H13      1.0000 0.38870  0.65790  0.02000  Biso   1.000  H
  H14      1.0000 0.61130  0.65790  0.48000  Biso   1.000  H
  H15      1.0000 0.88870  0.15790  0.02000  Biso   1.000  H
  H16      1.0000 0.11130  0.15790  0.48000  Biso   1.000  H
  C17      1.0000 0.70740  0.27980  0.18350  Biso   1.000  C
  C18      1.0000 0.29260  0.27980  0.31650  Biso   1.000  C
  C19      1.0000 0.20740  0.77980  0.18350  Biso   1.000  C
  C20      1.0000 0.79260  0.77980  0.31650  Biso   1.000  C
  C21      1.0000 0.29260  0.72020  0.81650  Biso   1.000  C
  C22      1.0000 0.70740  0.72020  0.68350  Biso   1.000  C
  C23      1.0000 0.79260  0.22020  0.81650  Biso   1.000  C
  C24      1.0000 0.20740  0.22020  0.68350  Biso   1.000  C
  H17      1.0000 0.74540  0.32180  0.24560  Biso   1.000  H
  H18      1.0000 0.25460  0.32180  0.25440  Biso   1.000  H
  H19      1.0000 0.24540  0.82180  0.24560  Biso   1.000  H
  H20      1.0000 0.75460  0.82180  0.25440  Biso   1.000  H
  H21      1.0000 0.25460  0.67820  0.75440  Biso   1.000  H
  H22      1.0000 0.74540  0.67820  0.74560  Biso   1.000  H
  H23      1.0000 0.75460  0.17820  0.75440  Biso   1.000  H
  H24      1.0000 0.24540  0.17820  0.74560  Biso   1.000  H
  C25      1.0000 0.78640  0.15270  0.36280  Biso   1.000  C
  C26      1.0000 0.21360  0.15270  0.13720  Biso   1.000  C
  C27      1.0000 0.28640  0.65270  0.36280  Biso   1.000  C
  C28      1.0000 0.71360  0.65270  0.13720  Biso   1.000  C
  C29      1.0000 0.21360  0.84730  0.63720  Biso   1.000  C
  C30      1.0000 0.78640  0.84730  0.86280  Biso   1.000  C
  C31      1.0000 0.71360  0.34730  0.63720  Biso   1.000  C
  C32      1.0000 0.28640  0.34730  0.86280  Biso   1.000  C
  C33      1.0000 0.77980  0.07290  0.43620  Biso   1.000  C
  C34      1.0000 0.22020  0.07290  0.06380  Biso   1.000  C
  C35      1.0000 0.27980  0.57290  0.43620  Biso   1.000  C
  C36      1.0000 0.72020  0.57290  0.06380  Biso   1.000  C
  C37      1.0000 0.22020  0.92710  0.56380  Biso   1.000  C
  C38      1.0000 0.77980  0.92710  0.93620  Biso   1.000  C
  C39      1.0000 0.72020  0.42710  0.56380  Biso   1.000  C
  C40      1.0000 0.27980  0.42710  0.93620  Biso   1.000  C
  H25      1.0000 0.72940  0.04670  0.40110  Biso   1.000  H
  H26      1.0000 0.27060  0.04670  0.09890  Biso   1.000  H
  H27      1.0000 0.22940  0.54670  0.40110  Biso   1.000  H
  H28      1.0000 0.77060  0.54670  0.09890  Biso   1.000  H
  H29      1.0000 0.27060  0.95330  0.59890  Biso   1.000  H
  H30      1.0000 0.72940  0.95330  0.90110  Biso   1.000  H
  H31      1.0000 0.77060  0.45330  0.59890  Biso   1.000  H
  H32      1.0000 0.22940  0.45330  0.90110  Biso   1.000  H
  C41      1.0000 0.85010  0.03300  0.56290  Biso   1.000  C
  C42      1.0000 0.14990  0.03300  0.93710  Biso   1.000  C
  C43      1.0000 0.35010  0.53300  0.56290  Biso   1.000  C
  C44      1.0000 0.64990  0.53300  0.93710  Biso   1.000  C
  C45      1.0000 0.14990  0.96700  0.43710  Biso   1.000  C
  C46      1.0000 0.85010  0.96700  0.06290  Biso   1.000  C
  C47      1.0000 0.64990  0.46700  0.43710  Biso   1.000  C
  C48      1.0000 0.35010  0.46700  0.06290  Biso   1.000  C
  H33      1.0000 0.84670  0.97910  0.61140  Biso   1.000  H
  H34      1.0000 0.15330  0.97910  0.88860  Biso   1.000  H
  H35      1.0000 0.34670  0.47910  0.61140  Biso   1.000  H
  H36      1.0000 0.65330  0.47910  0.88860  Biso   1.000  H
  H37      1.0000 0.15330  0.02090  0.38860  Biso   1.000  H
  H38      1.0000 0.84670  0.02090  0.11140  Biso   1.000  H
  H39      1.0000 0.65330  0.52090  0.38860  Biso   1.000  H
  H40      1.0000 0.34670  0.52090  0.11140  Biso   1.000  H
  C49      1.0000 0.92620  0.07210  0.61970  Biso   1.000  C
  C50      1.0000 0.07380  0.07210  0.88030  Biso   1.000  C
  C51      1.0000 0.42620  0.57210  0.61970  Biso   1.000  C
  C52      1.0000 0.57380  0.57210  0.88030  Biso   1.000  C
  C53      1.0000 0.07380  0.92790  0.38030  Biso   1.000  C
  C54      1.0000 0.92620  0.92790  0.11970  Biso   1.000  C
  C55      1.0000 0.57380  0.42790  0.38030  Biso   1.000  C
  C56      1.0000 0.42620  0.42790  0.11970  Biso   1.000  C
  C57      1.0000 0.92980  0.15220  0.54510  Biso   1.000  C
  C58      1.0000 0.07020  0.15220  0.95490  Biso   1.000  C
  C59      1.0000 0.42980  0.65220  0.54510  Biso   1.000  C
  C60      1.0000 0.57020  0.65220  0.95490  Biso   1.000  C
  C61      1.0000 0.07020  0.84780  0.45490  Biso   1.000  C
  C62      1.0000 0.92980  0.84780  0.04510  Biso   1.000  C
  C63      1.0000 0.57020  0.34780  0.45490  Biso   1.000  C
  C64      1.0000 0.42980  0.34780  0.04510  Biso   1.000  C
  H41      1.0000 0.97980  0.17950  0.58220  Biso   1.000  H
  H42      1.0000 0.02020  0.17950  0.91780  Biso   1.000  H
  H43      1.0000 0.47980  0.67950  0.58220  Biso   1.000  H
  H44      1.0000 0.52020  0.67950  0.91780  Biso   1.000  H
  H45      1.0000 0.02020  0.82050  0.41780  Biso   1.000  H
  H46      1.0000 0.97980  0.82050  0.08220  Biso   1.000  H
  H47      1.0000 0.52020  0.32050  0.41780  Biso   1.000  H
  H48      1.0000 0.47980  0.32050  0.08220  Biso   1.000  H
  C65      1.0000 0.86030  0.19240  0.41630  Biso   1.000  C
  C66      1.0000 0.13970  0.19240  0.08370  Biso   1.000  C
  C67      1.0000 0.36030  0.69240  0.41630  Biso   1.000  C
  C68      1.0000 0.63970  0.69240  0.08370  Biso   1.000  C
  C69      1.0000 0.13970  0.80760  0.58370  Biso   1.000  C
  C70      1.0000 0.86030  0.80760  0.91630  Biso   1.000  C
  C71      1.0000 0.63970  0.30760  0.58370  Biso   1.000  C
  C72      1.0000 0.36030  0.30760  0.91630  Biso   1.000  C
  H49      1.0000 0.86360  0.24610  0.36620  Biso   1.000  H
  H50      1.0000 0.13640  0.24610  0.13380  Biso   1.000  H
  H51      1.0000 0.36360  0.74610  0.36620  Biso   1.000  H
  H52      1.0000 0.63640  0.74610  0.13380  Biso   1.000  H
  H53      1.0000 0.13640  0.75390  0.63380  Biso   1.000  H
  H54      1.0000 0.86360  0.75390  0.86620  Biso   1.000  H
  H55      1.0000 0.63640  0.25390  0.63380  Biso   1.000  H
  H56      1.0000 0.36360  0.25390  0.86620  Biso   1.000  H
  C73      1.0000 0.00000  0.02510  0.75000  Biso   1.000  C
  C74      1.0000 0.50000  0.52510  0.75000  Biso   1.000  C
  C75      1.0000 0.00000  0.97490  0.25000  Biso   1.000  C
  C76      1.0000 0.50000  0.47490  0.25000  Biso   1.000  C
