data_image0
_cell_length_a       13.826
_cell_length_b       9.938
_cell_length_c       20.555
_cell_angle_alpha    90
_cell_angle_beta     102.58
_cell_angle_gamma    90

_symmetry_space_group_name_H-M    "P 1"
_symmetry_int_tables_number       1

loop_
  _symmetry_equiv_pos_as_xyz
  'x, y, z'

loop_
  _atom_site_label
  _atom_site_occupancy
  _atom_site_fract_x
  _atom_site_fract_y
  _atom_site_fract_z
  _atom_site_thermal_displace_type
  _atom_site_B_iso_or_equiv
  _atom_site_type_symbol
  Cu1      1.0000 0.31002  0.01621  0.10999  Biso   1.000  Cu
  Cu2      1.0000 0.18998  0.51621  0.39001  Biso   1.000  Cu
  Cu3      1.0000 0.68998  0.98379  0.89001  Biso   1.000  Cu
  Cu4      1.0000 0.81002  0.48379  0.60999  Biso   1.000  Cu
  N1       1.0000 0.33790  0.90530  0.02920  Biso   1.000  N
  N2       1.0000 0.16210  0.40530  0.47080  Biso   1.000  N
  N3       1.0000 0.66210  0.09470  0.97080  Biso   1.000  N
  N4       1.0000 0.83790  0.59470  0.52920  Biso   1.000  N
  N5       1.0000 0.16530  0.96370  0.09880  Biso   1.000  N
  N6       1.0000 0.33470  0.46370  0.40120  Biso   1.000  N
  N7       1.0000 0.83470  0.03630  0.90120  Biso   1.000  N
  N8       1.0000 0.66530  0.53630  0.59880  Biso   1.000  N
  N9       1.0000 0.07110  0.49020  0.31200  Biso   1.000  N
  N10      1.0000 0.42890  0.99020  0.18800  Biso   1.000  N
  N11      1.0000 0.92890  0.50980  0.68800  Biso   1.000  N
  N12      1.0000 0.57110  0.00980  0.81200  Biso   1.000  N
  N13      1.0000 0.17340  0.71980  0.40680  Biso   1.000  N
  N14      1.0000 0.32660  0.21980  0.09320  Biso   1.000  N
  N15      1.0000 0.82660  0.28020  0.59320  Biso   1.000  N
  N16      1.0000 0.67340  0.78020  0.90680  Biso   1.000  N
  O1       1.0000 0.00140  0.24480  0.15120  Biso   1.000  O
  O2       1.0000 0.49860  0.74480  0.34880  Biso   1.000  O
  O3       1.0000 0.99860  0.75520  0.84880  Biso   1.000  O
  O4       1.0000 0.50140  0.25520  0.65120  Biso   1.000  O
  C1       1.0000 0.43080  0.86380  0.02930  Biso   1.000  C
  C2       1.0000 0.06920  0.36380  0.47070  Biso   1.000  C
  C3       1.0000 0.56920  0.13620  0.97070  Biso   1.000  C
  C4       1.0000 0.93080  0.63620  0.52930  Biso   1.000  C
  C5       1.0000 0.45340  0.77640  0.98220  Biso   1.000  C
  C6       1.0000 0.04660  0.27640  0.51780  Biso   1.000  C
  C7       1.0000 0.54660  0.22360  0.01780  Biso   1.000  C
  C8       1.0000 0.95340  0.72360  0.48220  Biso   1.000  C
  C9       1.0000 0.37620  0.72730  0.93310  Biso   1.000  C
  C10      1.0000 0.12380  0.22730  0.56690  Biso   1.000  C
  C11      1.0000 0.62380  0.27270  0.06690  Biso   1.000  C
  C12      1.0000 0.87620  0.77270  0.43310  Biso   1.000  C
  C13      1.0000 0.28100  0.76880  0.93310  Biso   1.000  C
  C14      1.0000 0.21900  0.26880  0.56690  Biso   1.000  C
  C15      1.0000 0.71900  0.23120  0.06690  Biso   1.000  C
  C16      1.0000 0.78100  0.73120  0.43310  Biso   1.000  C
  C17      1.0000 0.26370  0.86010  0.98010  Biso   1.000  C
  C18      1.0000 0.23630  0.36010  0.51990  Biso   1.000  C
  C19      1.0000 0.73630  0.13990  0.01990  Biso   1.000  C
  C20      1.0000 0.76370  0.63990  0.48010  Biso   1.000  C
  C21      1.0000 0.16110  0.91090  0.97990  Biso   1.000  C
  C22      1.0000 0.33890  0.41090  0.52010  Biso   1.000  C
  C23      1.0000 0.83890  0.08910  0.02010  Biso   1.000  C
  C24      1.0000 0.66110  0.58910  0.47990  Biso   1.000  C
  C25      1.0000 0.12370  0.87440  0.04170  Biso   1.000  C
  C26      1.0000 0.37630  0.37440  0.45830  Biso   1.000  C
  C27      1.0000 0.87630  0.12560  0.95830  Biso   1.000  C
  C28      1.0000 0.62370  0.62560  0.54170  Biso   1.000  C
  C29      1.0000 0.10350  0.01010  0.13090  Biso   1.000  C
  C30      1.0000 0.39650  0.51010  0.36910  Biso   1.000  C
  C31      1.0000 0.89650  0.98990  0.86910  Biso   1.000  C
  C32      1.0000 0.60350  0.48990  0.63090  Biso   1.000  C
  C33      1.0000 0.13270  0.08960  0.19260  Biso   1.000  C
  C34      1.0000 0.36730  0.58960  0.30740  Biso   1.000  C
  C35      1.0000 0.86730  0.91040  0.80740  Biso   1.000  C
  C36      1.0000 0.63270  0.41040  0.69260  Biso   1.000  C
  C37      1.0000 0.21220  0.04900  0.24380  Biso   1.000  C
  C38      1.0000 0.28780  0.54900  0.25620  Biso   1.000  C
  C39      1.0000 0.78780  0.95100  0.75620  Biso   1.000  C
  C40      1.0000 0.71220  0.45100  0.74380  Biso   1.000  C
  C41      1.0000 0.23520  0.11910  0.30340  Biso   1.000  C
  C42      1.0000 0.26480  0.61910  0.19660  Biso   1.000  C
  C43      1.0000 0.76480  0.88090  0.69660  Biso   1.000  C
  C44      1.0000 0.73520  0.38090  0.80340  Biso   1.000  C
  C45      1.0000 0.18100  0.23140  0.31220  Biso   1.000  C
  C46      1.0000 0.31900  0.73140  0.18780  Biso   1.000  C
  C47      1.0000 0.81900  0.76860  0.68780  Biso   1.000  C
  C48      1.0000 0.68100  0.26860  0.81220  Biso   1.000  C
  C49      1.0000 0.10110  0.27690  0.26140  Biso   1.000  C
  C50      1.0000 0.39890  0.77690  0.23860  Biso   1.000  C
  C51      1.0000 0.89890  0.72310  0.73860  Biso   1.000  C
  C52      1.0000 0.60110  0.22310  0.76140  Biso   1.000  C
  C53      1.0000 0.07890  0.20370  0.20200  Biso   1.000  C
  C54      1.0000 0.42110  0.70370  0.29800  Biso   1.000  C
  C55      1.0000 0.92110  0.79630  0.79800  Biso   1.000  C
  C56      1.0000 0.57890  0.29630  0.70200  Biso   1.000  C
  C57      1.0000 0.04520  0.39900  0.26730  Biso   1.000  C
  C58      1.0000 0.45480  0.89900  0.23270  Biso   1.000  C
  C59      1.0000 0.95480  0.60100  0.73270  Biso   1.000  C
  C60      1.0000 0.54520  0.10100  0.76730  Biso   1.000  C
  C61      1.0000 0.00360  0.60650  0.30600  Biso   1.000  C
  C62      1.0000 0.49640  0.10650  0.19400  Biso   1.000  C
  C63      1.0000 0.99640  0.39350  0.69400  Biso   1.000  C
  C64      1.0000 0.50360  0.89350  0.80600  Biso   1.000  C
  C65      1.0000 0.05710  0.73840  0.29900  Biso   1.000  C
  C66      1.0000 0.44290  0.23840  0.20100  Biso   1.000  C
  C67      1.0000 0.94290  0.26160  0.70100  Biso   1.000  C
  C68      1.0000 0.55710  0.76160  0.79900  Biso   1.000  C
  C69      1.0000 0.11140  0.79880  0.36320  Biso   1.000  C
  C70      1.0000 0.38860  0.29880  0.13680  Biso   1.000  C
  C71      1.0000 0.88860  0.20120  0.63680  Biso   1.000  C
  C72      1.0000 0.61140  0.70120  0.86320  Biso   1.000  C
  C73      1.0000 0.09600  0.93220  0.37790  Biso   1.000  C
  C74      1.0000 0.40400  0.43220  0.12210  Biso   1.000  C
  C75      1.0000 0.90400  0.06780  0.62210  Biso   1.000  C
  C76      1.0000 0.59600  0.56780  0.87790  Biso   1.000  C
  C77      1.0000 0.14680  0.98760  0.43740  Biso   1.000  C
  C78      1.0000 0.35320  0.48760  0.06260  Biso   1.000  C
  C79      1.0000 0.85320  0.01240  0.56260  Biso   1.000  C
  C80      1.0000 0.64680  0.51240  0.93740  Biso   1.000  C
  C81      1.0000 0.21140  0.90860  0.48100  Biso   1.000  C
  C82      1.0000 0.28860  0.40860  0.01900  Biso   1.000  C
  C83      1.0000 0.78860  0.09140  0.51900  Biso   1.000  C
  C84      1.0000 0.71140  0.59140  0.98100  Biso   1.000  C
  C85      1.0000 0.22320  0.77530  0.46450  Biso   1.000  C
  C86      1.0000 0.27680  0.27530  0.03550  Biso   1.000  C
  C87      1.0000 0.77680  0.22470  0.53550  Biso   1.000  C
  C88      1.0000 0.72320  0.72470  0.96450  Biso   1.000  C
  C89      1.0000 0.03480  0.32900  0.10270  Biso   1.000  C
  C90      1.0000 0.46520  0.82900  0.39730  Biso   1.000  C
  C91      1.0000 0.96520  0.67100  0.89730  Biso   1.000  C
  C92      1.0000 0.53480  0.17100  0.60270  Biso   1.000  C
  H1       1.0000 0.48300  0.89600  0.06300  Biso   1.000  H
  H2       1.0000 0.01700  0.39600  0.43700  Biso   1.000  H
  H3       1.0000 0.51700  0.10400  0.93700  Biso   1.000  H
  H4       1.0000 0.98300  0.60400  0.56300  Biso   1.000  H
  H5       1.0000 0.52000  0.75100  0.98400  Biso   1.000  H
  H6       1.0000 0.98000  0.25100  0.51600  Biso   1.000  H
  H7       1.0000 0.48000  0.24900  0.01600  Biso   1.000  H
  H8       1.0000 0.02000  0.74900  0.48400  Biso   1.000  H
  H9       1.0000 0.38900  0.66700  0.90000  Biso   1.000  H
  H10      1.0000 0.11100  0.16700  0.60000  Biso   1.000  H
  H11      1.0000 0.61100  0.33300  0.10000  Biso   1.000  H
  H12      1.0000 0.88900  0.83300  0.40000  Biso   1.000  H
  H13      1.0000 0.22700  0.73400  0.90100  Biso   1.000  H
  H14      1.0000 0.27300  0.23400  0.59900  Biso   1.000  H
  H15      1.0000 0.77300  0.26600  0.09900  Biso   1.000  H
  H16      1.0000 0.72700  0.76600  0.40100  Biso   1.000  H
  H17      1.0000 0.11700  0.87400  0.94200  Biso   1.000  H
  H18      1.0000 0.38300  0.37400  0.55800  Biso   1.000  H
  H19      1.0000 0.88300  0.12600  0.05800  Biso   1.000  H
  H20      1.0000 0.61700  0.62600  0.44200  Biso   1.000  H
  H21      1.0000 0.16200  0.00600  0.97600  Biso   1.000  H
  H22      1.0000 0.33800  0.50600  0.52400  Biso   1.000  H
  H23      1.0000 0.83800  0.99400  0.02400  Biso   1.000  H
  H24      1.0000 0.66200  0.49400  0.47600  Biso   1.000  H
  H25      1.0000 0.14200  0.78400  0.05400  Biso   1.000  H
  H26      1.0000 0.35800  0.28400  0.44600  Biso   1.000  H
  H27      1.0000 0.85800  0.21600  0.94600  Biso   1.000  H
  H28      1.0000 0.64200  0.71600  0.55400  Biso   1.000  H
  H29      1.0000 0.05300  0.88200  0.03200  Biso   1.000  H
  H30      1.0000 0.44700  0.38200  0.46800  Biso   1.000  H
  H31      1.0000 0.94700  0.11800  0.96800  Biso   1.000  H
  H32      1.0000 0.55300  0.61800  0.53200  Biso   1.000  H
  H33      1.0000 0.03500  0.99300  0.11400  Biso   1.000  H
  H34      1.0000 0.46500  0.49300  0.38600  Biso   1.000  H
  H35      1.0000 0.96500  0.00700  0.88600  Biso   1.000  H
  H36      1.0000 0.53500  0.50700  0.61400  Biso   1.000  H
  H37      1.0000 0.25000  0.97300  0.23800  Biso   1.000  H
  H38      1.0000 0.25000  0.47300  0.26200  Biso   1.000  H
  H39      1.0000 0.75000  0.02700  0.76200  Biso   1.000  H
  H40      1.0000 0.75000  0.52700  0.73800  Biso   1.000  H
  H41      1.0000 0.28800  0.09000  0.33800  Biso   1.000  H
  H42      1.0000 0.21200  0.59000  0.16200  Biso   1.000  H
  H43      1.0000 0.71200  0.91000  0.66200  Biso   1.000  H
  H44      1.0000 0.78800  0.41000  0.83800  Biso   1.000  H
  H45      1.0000 0.19800  0.27900  0.35300  Biso   1.000  H
  H46      1.0000 0.30200  0.77900  0.14700  Biso   1.000  H
  H47      1.0000 0.80200  0.72100  0.64700  Biso   1.000  H
  H48      1.0000 0.69800  0.22100  0.85300  Biso   1.000  H
  H49      1.0000 0.98500  0.41200  0.23500  Biso   1.000  H
  H50      1.0000 0.51500  0.91200  0.26500  Biso   1.000  H
  H51      1.0000 0.01500  0.58800  0.76500  Biso   1.000  H
  H52      1.0000 0.48500  0.08800  0.73500  Biso   1.000  H
  H53      1.0000 0.97700  0.61100  0.34500  Biso   1.000  H
  H54      1.0000 0.52300  0.11100  0.15500  Biso   1.000  H
  H55      1.0000 0.02300  0.38900  0.65500  Biso   1.000  H
  H56      1.0000 0.47700  0.88900  0.84500  Biso   1.000  H
  H57      1.0000 0.95200  0.59500  0.26800  Biso   1.000  H
  H58      1.0000 0.54800  0.09500  0.23200  Biso   1.000  H
  H59      1.0000 0.04800  0.40500  0.73200  Biso   1.000  H
  H60      1.0000 0.45200  0.90500  0.76800  Biso   1.000  H
  H61      1.0000 0.00900  0.80200  0.27700  Biso   1.000  H
  H62      1.0000 0.49100  0.30200  0.22300  Biso   1.000  H
  H63      1.0000 0.99100  0.19800  0.72300  Biso   1.000  H
  H64      1.0000 0.50900  0.69800  0.77700  Biso   1.000  H
  H65      1.0000 0.10300  0.72200  0.27200  Biso   1.000  H
  H66      1.0000 0.39700  0.22200  0.22800  Biso   1.000  H
  H67      1.0000 0.89700  0.27800  0.72800  Biso   1.000  H
  H68      1.0000 0.60300  0.77800  0.77200  Biso   1.000  H
  H69      1.0000 0.05100  0.98600  0.34700  Biso   1.000  H
  H70      1.0000 0.44900  0.48600  0.15300  Biso   1.000  H
  H71      1.0000 0.94900  0.01400  0.65300  Biso   1.000  H
  H72      1.0000 0.55100  0.51400  0.84700  Biso   1.000  H
  H73      1.0000 0.13700  0.07900  0.44800  Biso   1.000  H
  H74      1.0000 0.36300  0.57900  0.05200  Biso   1.000  H
  H75      1.0000 0.86300  0.92100  0.55200  Biso   1.000  H
  H76      1.0000 0.63700  0.42100  0.94800  Biso   1.000  H
  H77      1.0000 0.24700  0.94500  0.52200  Biso   1.000  H
  H78      1.0000 0.25300  0.44500  0.97800  Biso   1.000  H
  H79      1.0000 0.75300  0.05500  0.47800  Biso   1.000  H
  H80      1.0000 0.74700  0.55500  0.02200  Biso   1.000  H
  H81      1.0000 0.26800  0.72100  0.49500  Biso   1.000  H
  H82      1.0000 0.23200  0.22100  0.00500  Biso   1.000  H
  H83      1.0000 0.73200  0.27900  0.50500  Biso   1.000  H
  H84      1.0000 0.76800  0.77900  0.99500  Biso   1.000  H
  H85      1.0000 0.98000  0.35500  0.06900  Biso   1.000  H
  H86      1.0000 0.52000  0.85500  0.43100  Biso   1.000  H
  H87      1.0000 0.02000  0.64500  0.93100  Biso   1.000  H
  H88      1.0000 0.48000  0.14500  0.56900  Biso   1.000  H
  H89      1.0000 0.06600  0.40700  0.12400  Biso   1.000  H
  H90      1.0000 0.43400  0.90700  0.37600  Biso   1.000  H
  H91      1.0000 0.93400  0.59300  0.87600  Biso   1.000  H
  H92      1.0000 0.56600  0.09300  0.62400  Biso   1.000  H
  H93      1.0000 0.08100  0.28000  0.08300  Biso   1.000  H
  H94      1.0000 0.41900  0.78000  0.41700  Biso   1.000  H
  H95      1.0000 0.91900  0.72000  0.91700  Biso   1.000  H
  H96      1.0000 0.58100  0.22000  0.58300  Biso   1.000  H
  H97      1.0000 0.72210  0.22330  0.33250  Biso   1.000  H
  H98      1.0000 0.77790  0.72330  0.16750  Biso   1.000  H
  H99      1.0000 0.27790  0.77670  0.66750  Biso   1.000  H
  H100     1.0000 0.22210  0.27670  0.83250  Biso   1.000  H
  C93      1.0000 0.78010  0.26380  0.32350  Biso   1.000  C
  C94      1.0000 0.71990  0.76380  0.17650  Biso   1.000  C
  C95      1.0000 0.21990  0.73620  0.67650  Biso   1.000  C
  C96      1.0000 0.28010  0.23620  0.82350  Biso   1.000  C
  Cl1      1.0000 0.80870  0.41540  0.36760  Biso   1.000  Cl
  Cl2      1.0000 0.69130  0.91540  0.13240  Biso   1.000  Cl
  Cl3      1.0000 0.19130  0.58460  0.63240  Biso   1.000  Cl
  Cl4      1.0000 0.30870  0.08460  0.86760  Biso   1.000  Cl
  Cl5      1.0000 0.88380  0.15670  0.35000  Biso   1.000  Cl
  Cl6      1.0000 0.61620  0.65670  0.15000  Biso   1.000  Cl
  Cl7      1.0000 0.11620  0.84330  0.65000  Biso   1.000  Cl
  Cl8      1.0000 0.38380  0.34330  0.85000  Biso   1.000  Cl
  Cl9      1.0000 0.75460  0.29090  0.23980  Biso   1.000  Cl
  Cl10     1.0000 0.74540  0.79090  0.26020  Biso   1.000  Cl
  Cl11     1.0000 0.24540  0.70910  0.76020  Biso   1.000  Cl
  Cl12     1.0000 0.25460  0.20910  0.73980  Biso   1.000  Cl
  B1       1.0000 0.05810  0.32660  0.88890  Biso   1.000  B
  B2       1.0000 0.44190  0.82660  0.61110  Biso   1.000  B
  B3       1.0000 0.94190  0.67340  0.11110  Biso   1.000  B
  B4       1.0000 0.55810  0.17340  0.38890  Biso   1.000  B
  F1       1.0000 0.09350  0.20050  0.88440  Biso   1.000  F
  F2       1.0000 0.40650  0.70050  0.61560  Biso   1.000  F
  F3       1.0000 0.90650  0.79950  0.11560  Biso   1.000  F
  F4       1.0000 0.59350  0.29950  0.38440  Biso   1.000  F
  F5       1.0000 0.96210  0.33810  0.85240  Biso   1.000  F
  F6       1.0000 0.53790  0.83810  0.64760  Biso   1.000  F
  F7       1.0000 0.03790  0.66190  0.14760  Biso   1.000  F
  F8       1.0000 0.46210  0.16190  0.35240  Biso   1.000  F
  F9       1.0000 0.11950  0.41840  0.86650  Biso   1.000  F
  F10      1.0000 0.38050  0.91840  0.63350  Biso   1.000  F
  F11      1.0000 0.88050  0.58160  0.13350  Biso   1.000  F
  F12      1.0000 0.61950  0.08160  0.36650  Biso   1.000  F
  F13      1.0000 0.05750  0.35770  0.95480  Biso   1.000  F
  F14      1.0000 0.44250  0.85770  0.54520  Biso   1.000  F
  F15      1.0000 0.94250  0.64230  0.04520  Biso   1.000  F
  F16      1.0000 0.55750  0.14230  0.45480  Biso   1.000  F
