data_image0
_cell_length_a       10.7647
_cell_length_b       10.784
_cell_length_c       18.0702
_cell_angle_alpha    90
_cell_angle_beta     92.782
_cell_angle_gamma    90

_symmetry_space_group_name_H-M    "P 1"
_symmetry_int_tables_number       1

loop_
  _symmetry_equiv_pos_as_xyz
  'x, y, z'

loop_
  _atom_site_label
  _atom_site_occupancy
  _atom_site_fract_x
  _atom_site_fract_y
  _atom_site_fract_z
  _atom_site_thermal_displace_type
  _atom_site_B_iso_or_equiv
  _atom_site_type_symbol
  Cu1      1.0000 0.24471  0.42189  0.26221  Biso   1.000  Cu
  Cu2      1.0000 0.75529  0.92189  0.23779  Biso   1.000  Cu
  Cu3      1.0000 0.75529  0.57811  0.73779  Biso   1.000  Cu
  Cu4      1.0000 0.24471  0.07811  0.76221  Biso   1.000  Cu
  Cu5      1.0000 0.02238  0.44736  0.09956  Biso   1.000  Cu
  Cu6      1.0000 0.97762  0.94736  0.40044  Biso   1.000  Cu
  Cu7      1.0000 0.97762  0.55264  0.90044  Biso   1.000  Cu
  Cu8      1.0000 0.02238  0.05264  0.59956  Biso   1.000  Cu
  N1       1.0000 0.08450  0.59430  0.17800  Biso   1.000  N
  N2       1.0000 0.91550  0.09430  0.32200  Biso   1.000  N
  N3       1.0000 0.91550  0.40570  0.82200  Biso   1.000  N
  N4       1.0000 0.08450  0.90570  0.67800  Biso   1.000  N
  N5       1.0000 0.19150  0.58230  0.22530  Biso   1.000  N
  N6       1.0000 0.80850  0.08230  0.27470  Biso   1.000  N
  N7       1.0000 0.80850  0.41770  0.77470  Biso   1.000  N
  N8       1.0000 0.19150  0.91770  0.72530  Biso   1.000  N
  N9       1.0000 0.15250  0.77890  0.20870  Biso   1.000  N
  N10      1.0000 0.84750  0.27890  0.29130  Biso   1.000  N
  N11      1.0000 0.84750  0.22110  0.79130  Biso   1.000  N
  N12      1.0000 0.15250  0.72110  0.70870  Biso   1.000  N
  N13      1.0000 0.17010  0.90540  0.21580  Biso   1.000  N
  N14      1.0000 0.82990  0.40540  0.28420  Biso   1.000  N
  N15      1.0000 0.82990  0.09460  0.78420  Biso   1.000  N
  N16      1.0000 0.17010  0.59460  0.71580  Biso   1.000  N
  N17      1.0000 0.10090  0.96010  0.16910  Biso   1.000  N
  N18      1.0000 0.89910  0.46010  0.33090  Biso   1.000  N
  N19      1.0000 0.89910  0.03990  0.83090  Biso   1.000  N
  N20      1.0000 0.10090  0.53990  0.66910  Biso   1.000  N
  N21      1.0000 0.11800  0.08790  0.17650  Biso   1.000  N
  N22      1.0000 0.88200  0.58790  0.32350  Biso   1.000  N
  N23      1.0000 0.88200  0.91210  0.82350  Biso   1.000  N
  N24      1.0000 0.11800  0.41210  0.67650  Biso   1.000  N
  N25      1.0000 0.17520  0.27460  0.20700  Biso   1.000  N
  N26      1.0000 0.82480  0.77460  0.29300  Biso   1.000  N
  N27      1.0000 0.82480  0.72540  0.79300  Biso   1.000  N
  N28      1.0000 0.17520  0.22540  0.70700  Biso   1.000  N
  N29      1.0000 0.07490  0.28230  0.15310  Biso   1.000  N
  N30      1.0000 0.92510  0.78230  0.34690  Biso   1.000  N
  N31      1.0000 0.92510  0.71770  0.84690  Biso   1.000  N
  N32      1.0000 0.07490  0.21770  0.65310  Biso   1.000  N
  N33      1.0000 0.16010  0.48370  0.02590  Biso   1.000  N
  N34      1.0000 0.83990  0.98370  0.47410  Biso   1.000  N
  N35      1.0000 0.83990  0.51630  0.97410  Biso   1.000  N
  N36      1.0000 0.16010  0.01630  0.52590  Biso   1.000  N
  N37      1.0000 0.14580  0.52190  0.95160  Biso   1.000  N
  N38      1.0000 0.85420  0.02190  0.54840  Biso   1.000  N
  N39      1.0000 0.85420  0.47810  0.04840  Biso   1.000  N
  N40      1.0000 0.14580  0.97810  0.45160  Biso   1.000  N
  N41      1.0000 0.47060  0.51680  0.97150  Biso   1.000  N
  N42      1.0000 0.52940  0.01680  0.52850  Biso   1.000  N
  N43      1.0000 0.52940  0.48320  0.02850  Biso   1.000  N
  N44      1.0000 0.47060  0.98320  0.47150  Biso   1.000  N
  N45      1.0000 0.34240  0.51220  0.98220  Biso   1.000  N
  N46      1.0000 0.65760  0.01220  0.51780  Biso   1.000  N
  N47      1.0000 0.65760  0.48780  0.01780  Biso   1.000  N
  N48      1.0000 0.34240  0.98780  0.48220  Biso   1.000  N
  C1       1.0000 0.06370  0.71250  0.16870  Biso   1.000  C
  C2       1.0000 0.93630  0.21250  0.33130  Biso   1.000  C
  C3       1.0000 0.93630  0.28750  0.83130  Biso   1.000  C
  C4       1.0000 0.06370  0.78750  0.66870  Biso   1.000  C
  H1       1.0000 0.99880  0.74660  0.13960  Biso   1.000  H
  H2       1.0000 0.00120  0.24660  0.36040  Biso   1.000  H
  H3       1.0000 0.00120  0.25340  0.86040  Biso   1.000  H
  H4       1.0000 0.99880  0.75340  0.63960  Biso   1.000  H
  C5       1.0000 0.22850  0.69260  0.24220  Biso   1.000  C
  C6       1.0000 0.77150  0.19260  0.25780  Biso   1.000  C
  C7       1.0000 0.77150  0.30740  0.75780  Biso   1.000  C
  C8       1.0000 0.22850  0.80740  0.74220  Biso   1.000  C
  H5       1.0000 0.29760  0.71090  0.27320  Biso   1.000  H
  H6       1.0000 0.70240  0.21090  0.22680  Biso   1.000  H
  H7       1.0000 0.70240  0.28910  0.72680  Biso   1.000  H
  H8       1.0000 0.29760  0.78910  0.77320  Biso   1.000  H
  C9       1.0000 0.25570  0.53650  0.92680  Biso   1.000  C
  C10      1.0000 0.74430  0.03650  0.57320  Biso   1.000  C
  C11      1.0000 0.74430  0.46350  0.07320  Biso   1.000  C
  C12      1.0000 0.25570  0.96350  0.42680  Biso   1.000  C
  H9       1.0000 0.27270  0.55990  0.87880  Biso   1.000  H
  H10      1.0000 0.72730  0.05990  0.62120  Biso   1.000  H
  H11      1.0000 0.72730  0.44010  0.12120  Biso   1.000  H
  H12      1.0000 0.27270  0.94010  0.37880  Biso   1.000  H
  C13      1.0000 0.27890  0.47780  0.04220  Biso   1.000  C
  C14      1.0000 0.72110  0.97780  0.45780  Biso   1.000  C
  C15      1.0000 0.72110  0.52220  0.95780  Biso   1.000  C
  C16      1.0000 0.27890  0.02220  0.54220  Biso   1.000  C
  H13      1.0000 0.31500  0.45380  0.08770  Biso   1.000  H
  H14      1.0000 0.68500  0.95380  0.41230  Biso   1.000  H
  H15      1.0000 0.68500  0.54620  0.91230  Biso   1.000  H
  H16      1.0000 0.31500  0.04620  0.58770  Biso   1.000  H
  C17      1.0000 0.19720  0.15850  0.21810  Biso   1.000  C
  C18      1.0000 0.80280  0.65850  0.28190  Biso   1.000  C
  C19      1.0000 0.80280  0.84150  0.78190  Biso   1.000  C
  C20      1.0000 0.19720  0.34150  0.71810  Biso   1.000  C
  H17      1.0000 0.25950  0.12760  0.25060  Biso   1.000  H
  H18      1.0000 0.74050  0.62760  0.24940  Biso   1.000  H
  H19      1.0000 0.74050  0.87240  0.74940  Biso   1.000  H
  H20      1.0000 0.25950  0.37240  0.75060  Biso   1.000  H
  C21      1.0000 0.04480  0.16970  0.13640  Biso   1.000  C
  C22      1.0000 0.95520  0.66970  0.36360  Biso   1.000  C
  C23      1.0000 0.95520  0.83030  0.86360  Biso   1.000  C
  C24      1.0000 0.04480  0.33030  0.63640  Biso   1.000  C
  H21      1.0000 0.98190  0.14730  0.10190  Biso   1.000  H
  H22      1.0000 0.01810  0.64730  0.39810  Biso   1.000  H
  H23      1.0000 0.01810  0.85270  0.89810  Biso   1.000  H
  H24      1.0000 0.98190  0.35270  0.60190  Biso   1.000  H
  Mo1      1.0000 0.45830  0.40032  0.57402  Biso   1.000  Mo
  Mo2      1.0000 0.54170  0.90032  0.92598  Biso   1.000  Mo
  Mo3      1.0000 0.54170  0.59968  0.42598  Biso   1.000  Mo
  Mo4      1.0000 0.45830  0.09968  0.07402  Biso   1.000  Mo
  Mo5      1.0000 0.27553  0.64224  0.49481  Biso   1.000  Mo
  Mo6      1.0000 0.72447  0.14224  0.00519  Biso   1.000  Mo
  Mo7      1.0000 0.72447  0.35776  0.50519  Biso   1.000  Mo
  Mo8      1.0000 0.27553  0.85776  0.99481  Biso   1.000  Mo
  Mo9      1.0000 0.20364  0.35820  0.45468  Biso   1.000  Mo
  Mo10     1.0000 0.79636  0.85820  0.04532  Biso   1.000  Mo
  Mo11     1.0000 0.79636  0.64180  0.54532  Biso   1.000  Mo
  Mo12     1.0000 0.20364  0.14180  0.95468  Biso   1.000  Mo
  Mo13     1.0000 0.47516  0.31290  0.38789  Biso   1.000  Mo
  Mo14     1.0000 0.52484  0.81290  0.11211  Biso   1.000  Mo
  Mo15     1.0000 0.52484  0.68710  0.61211  Biso   1.000  Mo
  Mo16     1.0000 0.47516  0.18710  0.88789  Biso   1.000  Mo
  O1       1.0000 0.39400  0.47920  0.45570  Biso   1.000  O
  O2       1.0000 0.60600  0.97920  0.04430  Biso   1.000  O
  O3       1.0000 0.60600  0.52080  0.54430  Biso   1.000  O
  O4       1.0000 0.39400  0.02080  0.95570  Biso   1.000  O
  O5       1.0000 0.55690  0.18650  0.36370  Biso   1.000  O
  O6       1.0000 0.44310  0.68650  0.13630  Biso   1.000  O
  O7       1.0000 0.44310  0.81350  0.63630  Biso   1.000  O
  O8       1.0000 0.55690  0.31350  0.86370  Biso   1.000  O
  O9       1.0000 0.16260  0.40690  0.36570  Biso   1.000  O
  O10      1.0000 0.83740  0.90690  0.13430  Biso   1.000  O
  O11      1.0000 0.83740  0.59310  0.63430  Biso   1.000  O
  O12      1.0000 0.16260  0.09310  0.86570  Biso   1.000  O
  O13      1.0000 0.41200  0.37090  0.30520  Biso   1.000  O
  O14      1.0000 0.58800  0.87090  0.19480  Biso   1.000  O
  O15      1.0000 0.58800  0.62910  0.69480  Biso   1.000  O
  O16      1.0000 0.41200  0.12910  0.80520  Biso   1.000  O
  O17      1.0000 0.33090  0.24340  0.42460  Biso   1.000  O
  O18      1.0000 0.66910  0.74340  0.07540  Biso   1.000  O
  O19      1.0000 0.66910  0.75660  0.57540  Biso   1.000  O
  O20      1.0000 0.33090  0.25660  0.92460  Biso   1.000  O
  O21      1.0000 0.08660  0.26320  0.47670  Biso   1.000  O
  O22      1.0000 0.91340  0.76320  0.02330  Biso   1.000  O
  O23      1.0000 0.91340  0.73680  0.52330  Biso   1.000  O
  O24      1.0000 0.08660  0.23680  0.97670  Biso   1.000  O
  O25      1.0000 0.54840  0.29530  0.50640  Biso   1.000  O
  O26      1.0000 0.45160  0.79530  0.99360  Biso   1.000  O
  O27      1.0000 0.45160  0.70470  0.49360  Biso   1.000  O
  O28      1.0000 0.54840  0.20470  0.00640  Biso   1.000  O
  O29      1.0000 0.31360  0.32380  0.56090  Biso   1.000  O
  O30      1.0000 0.68640  0.82380  0.93910  Biso   1.000  O
  O31      1.0000 0.68640  0.67620  0.43910  Biso   1.000  O
  O32      1.0000 0.31360  0.17620  0.06090  Biso   1.000  O
  O33      1.0000 0.51600  0.35110  0.65720  Biso   1.000  O
  O34      1.0000 0.48400  0.85110  0.84280  Biso   1.000  O
  O35      1.0000 0.48400  0.64890  0.34280  Biso   1.000  O
  O36      1.0000 0.51600  0.14890  0.15720  Biso   1.000  O
  O37      1.0000 0.38930  0.56120  0.59870  Biso   1.000  O
  O38      1.0000 0.61070  0.06120  0.90130  Biso   1.000  O
  O39      1.0000 0.61070  0.43880  0.40130  Biso   1.000  O
  O40      1.0000 0.38930  0.93880  0.09870  Biso   1.000  O
  O41      1.0000 0.16780  0.50510  0.50830  Biso   1.000  O
  O42      1.0000 0.83220  0.00510  0.99170  Biso   1.000  O
  O43      1.0000 0.83220  0.49490  0.49170  Biso   1.000  O
  O44      1.0000 0.16780  0.99490  0.00830  Biso   1.000  O
  O45      1.0000 0.21670  0.74840  0.55200  Biso   1.000  O
  O46      1.0000 0.78330  0.24840  0.94800  Biso   1.000  O
  O47      1.0000 0.78330  0.25160  0.44800  Biso   1.000  O
  O48      1.0000 0.21670  0.75160  0.05200  Biso   1.000  O
  O49      1.0000 0.23060  0.68980  0.40790  Biso   1.000  O
  O50      1.0000 0.76940  0.18980  0.09210  Biso   1.000  O
  O51      1.0000 0.76940  0.31020  0.59210  Biso   1.000  O
  O52      1.0000 0.23060  0.81020  0.90790  Biso   1.000  O
  O53      1.0000 0.58100  0.48740  0.20540  Biso   1.000  O
  O54      1.0000 0.41900  0.98740  0.29460  Biso   1.000  O
  O55      1.0000 0.41900  0.51260  0.79460  Biso   1.000  O
  O56      1.0000 0.58100  0.01260  0.70540  Biso   1.000  O
  H25      1.0000 0.54870  0.55690  0.19330  Biso   1.000  H
  H26      1.0000 0.45130  0.05690  0.30670  Biso   1.000  H
  H27      1.0000 0.45130  0.44310  0.80670  Biso   1.000  H
  H28      1.0000 0.54870  0.94310  0.69330  Biso   1.000  H
  H29      1.0000 0.53130  0.45100  0.23340  Biso   1.000  H
  H30      1.0000 0.46870  0.95100  0.26660  Biso   1.000  H
  H31      1.0000 0.46870  0.54900  0.76660  Biso   1.000  H
  H32      1.0000 0.53130  0.04900  0.73340  Biso   1.000  H
