data_image0
_cell_length_a       36.997
_cell_length_b       7.0551
_cell_length_c       6.2045
_cell_angle_alpha    90
_cell_angle_beta     97.75
_cell_angle_gamma    90

_symmetry_space_group_name_H-M    "P 1"
_symmetry_int_tables_number       1

loop_
  _symmetry_equiv_pos_as_xyz
  'x, y, z'

loop_
  _atom_site_label
  _atom_site_occupancy
  _atom_site_fract_x
  _atom_site_fract_y
  _atom_site_fract_z
  _atom_site_thermal_displace_type
  _atom_site_B_iso_or_equiv
  _atom_site_type_symbol
  Nd1      1.0000 0.21959  0.00000  0.52149  Biso   1.000  Nd
  Nd2      1.0000 0.71959  0.50000  0.52149  Biso   1.000  Nd
  Nd3      1.0000 0.78041  0.00000  0.47851  Biso   1.000  Nd
  Nd4      1.0000 0.28041  0.50000  0.47851  Biso   1.000  Nd
  Cu1      1.0000 0.00000  0.00000  0.00000  Biso   1.000  Cu
  Cu2      1.0000 0.50000  0.50000  0.00000  Biso   1.000  Cu
  O1       1.0000 0.17930  0.00000  0.80790  Biso   1.000  O
  O2       1.0000 0.67930  0.50000  0.80790  Biso   1.000  O
  O3       1.0000 0.82070  0.00000  0.19210  Biso   1.000  O
  O4       1.0000 0.32070  0.50000  0.19210  Biso   1.000  O
  O5       1.0000 0.15250  0.05790  0.48570  Biso   1.000  O
  O6       1.0000 0.65250  0.55790  0.48570  Biso   1.000  O
  O7       1.0000 0.84750  0.05790  0.51430  Biso   1.000  O
  O8       1.0000 0.34750  0.55790  0.51430  Biso   1.000  O
  O9       1.0000 0.84750  0.94210  0.51430  Biso   1.000  O
  O10      1.0000 0.34750  0.44210  0.51430  Biso   1.000  O
  O11      1.0000 0.15250  0.94210  0.48570  Biso   1.000  O
  O12      1.0000 0.65250  0.44210  0.48570  Biso   1.000  O
  O13      1.0000 0.26750  0.00000  0.84110  Biso   1.000  O
  O14      1.0000 0.76750  0.50000  0.84110  Biso   1.000  O
  O15      1.0000 0.73250  0.00000  0.15890  Biso   1.000  O
  O16      1.0000 0.23250  0.50000  0.15890  Biso   1.000  O
  O17      1.0000 0.30001  0.30730  0.79120  Biso   1.000  O
  O18      1.0000 0.80001  0.80730  0.79120  Biso   1.000  O
  O19      1.0000 0.69999  0.30730  0.20880  Biso   1.000  O
  O20      1.0000 0.19999  0.80730  0.20880  Biso   1.000  O
  O21      1.0000 0.69999  0.69270  0.20880  Biso   1.000  O
  O22      1.0000 0.19999  0.19270  0.20880  Biso   1.000  O
  O23      1.0000 0.30001  0.69270  0.79120  Biso   1.000  O
  O24      1.0000 0.80001  0.19270  0.79120  Biso   1.000  O
  O25      1.0000 0.27595  0.15320  0.37710  Biso   1.000  O
  O26      1.0000 0.77595  0.65320  0.37710  Biso   1.000  O
  O27      1.0000 0.72405  0.15320  0.62290  Biso   1.000  O
  O28      1.0000 0.22405  0.65320  0.62290  Biso   1.000  O
  O29      1.0000 0.72405  0.84680  0.62290  Biso   1.000  O
  O30      1.0000 0.22405  0.34680  0.62290  Biso   1.000  O
  O31      1.0000 0.27595  0.84680  0.37710  Biso   1.000  O
  O32      1.0000 0.77595  0.34680  0.37710  Biso   1.000  O
  N1       1.0000 0.04642  0.00000  0.89870  Biso   1.000  N
  N2       1.0000 0.54642  0.50000  0.89870  Biso   1.000  N
  N3       1.0000 0.95358  0.00000  0.10130  Biso   1.000  N
  N4       1.0000 0.45358  0.50000  0.10130  Biso   1.000  N
  C1       1.0000 0.05020  0.06750  0.69130  Biso   1.000  C
  C2       1.0000 0.55020  0.56750  0.69130  Biso   1.000  C
  C3       1.0000 0.94980  0.06750  0.30870  Biso   1.000  C
  C4       1.0000 0.44980  0.56750  0.30870  Biso   1.000  C
  C5       1.0000 0.94980  0.93250  0.30870  Biso   1.000  C
  C6       1.0000 0.44980  0.43250  0.30870  Biso   1.000  C
  C7       1.0000 0.05020  0.93250  0.69130  Biso   1.000  C
  C8       1.0000 0.55020  0.43250  0.69130  Biso   1.000  C
  H1       1.0000 0.02910  0.11130  0.59570  Biso   1.000  H
  H2       1.0000 0.52910  0.61130  0.59570  Biso   1.000  H
  H3       1.0000 0.97090  0.11130  0.40430  Biso   1.000  H
  H4       1.0000 0.47090  0.61130  0.40430  Biso   1.000  H
  H5       1.0000 0.97090  0.88870  0.40430  Biso   1.000  H
  H6       1.0000 0.47090  0.38870  0.40430  Biso   1.000  H
  H7       1.0000 0.02910  0.88870  0.59570  Biso   1.000  H
  H8       1.0000 0.52910  0.38870  0.59570  Biso   1.000  H
  C9       1.0000 0.08420  0.07130  0.62370  Biso   1.000  C
  C10      1.0000 0.58420  0.57130  0.62370  Biso   1.000  C
  C11      1.0000 0.91580  0.07130  0.37630  Biso   1.000  C
  C12      1.0000 0.41580  0.57130  0.37630  Biso   1.000  C
  C13      1.0000 0.91580  0.92870  0.37630  Biso   1.000  C
  C14      1.0000 0.41580  0.42870  0.37630  Biso   1.000  C
  C15      1.0000 0.08420  0.92870  0.62370  Biso   1.000  C
  C16      1.0000 0.58420  0.42870  0.62370  Biso   1.000  C
  H9       1.0000 0.08690  0.11360  0.47880  Biso   1.000  H
  H10      1.0000 0.58690  0.61360  0.47880  Biso   1.000  H
  H11      1.0000 0.91310  0.11360  0.52120  Biso   1.000  H
  H12      1.0000 0.41310  0.61360  0.52120  Biso   1.000  H
  H13      1.0000 0.91310  0.88640  0.52120  Biso   1.000  H
  H14      1.0000 0.41310  0.38640  0.52120  Biso   1.000  H
  H15      1.0000 0.08690  0.88640  0.47880  Biso   1.000  H
  H16      1.0000 0.58690  0.38640  0.47880  Biso   1.000  H
  C17      1.0000 0.11452  0.01440  0.76350  Biso   1.000  C
  C18      1.0000 0.61452  0.51440  0.76350  Biso   1.000  C
  C19      1.0000 0.88548  0.01440  0.23650  Biso   1.000  C
  C20      1.0000 0.38548  0.51440  0.23650  Biso   1.000  C
  C21      1.0000 0.88548  0.98560  0.23650  Biso   1.000  C
  C22      1.0000 0.38548  0.48560  0.23650  Biso   1.000  C
  C23      1.0000 0.11452  0.98560  0.76350  Biso   1.000  C
  C24      1.0000 0.61452  0.48560  0.76350  Biso   1.000  C
  C25      1.0000 0.11080  0.95130  0.97020  Biso   1.000  C
  C26      1.0000 0.61080  0.45130  0.97020  Biso   1.000  C
  C27      1.0000 0.88920  0.95130  0.02980  Biso   1.000  C
  C28      1.0000 0.38920  0.45130  0.02980  Biso   1.000  C
  C29      1.0000 0.88920  0.04870  0.02980  Biso   1.000  C
  C30      1.0000 0.38920  0.54870  0.02980  Biso   1.000  C
  C31      1.0000 0.11080  0.04870  0.97020  Biso   1.000  C
  C32      1.0000 0.61080  0.54870  0.97020  Biso   1.000  C
  H17      1.0000 0.13180  0.90810  0.06650  Biso   1.000  H
  H18      1.0000 0.63180  0.40810  0.06650  Biso   1.000  H
  H19      1.0000 0.86820  0.90810  0.93350  Biso   1.000  H
  H20      1.0000 0.36820  0.40810  0.93350  Biso   1.000  H
  H21      1.0000 0.86820  0.09190  0.93350  Biso   1.000  H
  H22      1.0000 0.36820  0.59190  0.93350  Biso   1.000  H
  H23      1.0000 0.13180  0.09190  0.06650  Biso   1.000  H
  H24      1.0000 0.63180  0.59190  0.06650  Biso   1.000  H
  C33      1.0000 0.07670  0.95010  0.03840  Biso   1.000  C
  C34      1.0000 0.57670  0.45010  0.03840  Biso   1.000  C
  C35      1.0000 0.92330  0.95010  0.96160  Biso   1.000  C
  C36      1.0000 0.42330  0.45010  0.96160  Biso   1.000  C
  C37      1.0000 0.92330  0.04990  0.96160  Biso   1.000  C
  C38      1.0000 0.42330  0.54990  0.96160  Biso   1.000  C
  C39      1.0000 0.07670  0.04990  0.03840  Biso   1.000  C
  C40      1.0000 0.57670  0.54990  0.03840  Biso   1.000  C
  H25      1.0000 0.07430  0.91390  0.18570  Biso   1.000  H
  H26      1.0000 0.57430  0.41390  0.18570  Biso   1.000  H
  H27      1.0000 0.92570  0.91390  0.81430  Biso   1.000  H
  H28      1.0000 0.42570  0.41390  0.81430  Biso   1.000  H
  H29      1.0000 0.92570  0.08610  0.81430  Biso   1.000  H
  H30      1.0000 0.42570  0.58610  0.81430  Biso   1.000  H
  H31      1.0000 0.07430  0.08610  0.18570  Biso   1.000  H
  H32      1.0000 0.57430  0.58610  0.18570  Biso   1.000  H
  C41      1.0000 0.15080  0.00000  0.67800  Biso   1.000  C
  C42      1.0000 0.65080  0.50000  0.67800  Biso   1.000  C
  C43      1.0000 0.84920  0.00000  0.32200  Biso   1.000  C
  C44      1.0000 0.34920  0.50000  0.32200  Biso   1.000  C
  C45      1.0000 0.32548  0.00000  0.23810  Biso   1.000  C
  C46      1.0000 0.82548  0.50000  0.23810  Biso   1.000  C
  C47      1.0000 0.67452  0.00000  0.76190  Biso   1.000  C
  C48      1.0000 0.17452  0.50000  0.76190  Biso   1.000  C
  C49      1.0000 0.32740  0.08670  0.03280  Biso   1.000  C
  C50      1.0000 0.82740  0.58670  0.03280  Biso   1.000  C
  C51      1.0000 0.67260  0.08670  0.96720  Biso   1.000  C
  C52      1.0000 0.17260  0.58670  0.96720  Biso   1.000  C
  C53      1.0000 0.67260  0.91330  0.96720  Biso   1.000  C
  C54      1.0000 0.17260  0.41330  0.96720  Biso   1.000  C
  C55      1.0000 0.32740  0.91330  0.03280  Biso   1.000  C
  C56      1.0000 0.82740  0.41330  0.03280  Biso   1.000  C
  C57      1.0000 0.36080  0.09720  0.95400  Biso   1.000  C
  C58      1.0000 0.86080  0.59720  0.95400  Biso   1.000  C
  C59      1.0000 0.63920  0.09720  0.04600  Biso   1.000  C
  C60      1.0000 0.13920  0.59720  0.04600  Biso   1.000  C
  C61      1.0000 0.63920  0.90280  0.04600  Biso   1.000  C
  C62      1.0000 0.13920  0.40280  0.04600  Biso   1.000  C
  C63      1.0000 0.36080  0.90280  0.95400  Biso   1.000  C
  C64      1.0000 0.86080  0.40280  0.95400  Biso   1.000  C
  H33      1.0000 0.36210  0.14890  0.81180  Biso   1.000  H
  H34      1.0000 0.86210  0.64890  0.81180  Biso   1.000  H
  H35      1.0000 0.63790  0.14890  0.18820  Biso   1.000  H
  H36      1.0000 0.13790  0.64890  0.18820  Biso   1.000  H
  H37      1.0000 0.63790  0.85110  0.18820  Biso   1.000  H
  H38      1.0000 0.13790  0.35110  0.18820  Biso   1.000  H
  H39      1.0000 0.36210  0.85110  0.81180  Biso   1.000  H
  H40      1.0000 0.86210  0.35110  0.81180  Biso   1.000  H
  C65      1.0000 0.39230  0.03290  0.08060  Biso   1.000  C
  C66      1.0000 0.89230  0.53290  0.08060  Biso   1.000  C
  C67      1.0000 0.60770  0.03290  0.91940  Biso   1.000  C
  C68      1.0000 0.10770  0.53290  0.91940  Biso   1.000  C
  C69      1.0000 0.60770  0.96710  0.91940  Biso   1.000  C
  C70      1.0000 0.10770  0.46710  0.91940  Biso   1.000  C
  C71      1.0000 0.39230  0.96710  0.08060  Biso   1.000  C
  C72      1.0000 0.89230  0.46710  0.08060  Biso   1.000  C
  H41      1.0000 0.41530  0.03730  0.02500  Biso   1.000  H
  H42      1.0000 0.91530  0.53730  0.02500  Biso   1.000  H
  H43      1.0000 0.58470  0.03730  0.97500  Biso   1.000  H
  H44      1.0000 0.08470  0.53730  0.97500  Biso   1.000  H
  H45      1.0000 0.58470  0.96270  0.97500  Biso   1.000  H
  H46      1.0000 0.08470  0.46270  0.97500  Biso   1.000  H
  H47      1.0000 0.41530  0.96270  0.02500  Biso   1.000  H
  H48      1.0000 0.91530  0.46270  0.02500  Biso   1.000  H
  C73      1.0000 0.39036  0.96240  0.28710  Biso   1.000  C
  C74      1.0000 0.89036  0.46240  0.28710  Biso   1.000  C
  C75      1.0000 0.60964  0.96240  0.71290  Biso   1.000  C
  C76      1.0000 0.10964  0.46240  0.71290  Biso   1.000  C
  C77      1.0000 0.60964  0.03760  0.71290  Biso   1.000  C
  C78      1.0000 0.10964  0.53760  0.71290  Biso   1.000  C
  C79      1.0000 0.39036  0.03760  0.28710  Biso   1.000  C
  C80      1.0000 0.89036  0.53760  0.28710  Biso   1.000  C
  H49      1.0000 0.41230  0.92320  0.37720  Biso   1.000  H
  H50      1.0000 0.91230  0.42320  0.37720  Biso   1.000  H
  H51      1.0000 0.58770  0.92320  0.62280  Biso   1.000  H
  H52      1.0000 0.08770  0.42320  0.62280  Biso   1.000  H
  H53      1.0000 0.58770  0.07680  0.62280  Biso   1.000  H
  H54      1.0000 0.08770  0.57680  0.62280  Biso   1.000  H
  H55      1.0000 0.41230  0.07680  0.37720  Biso   1.000  H
  H56      1.0000 0.91230  0.57680  0.37720  Biso   1.000  H
  C81      1.0000 0.35700  0.94810  0.36500  Biso   1.000  C
  C82      1.0000 0.85700  0.44810  0.36500  Biso   1.000  C
  C83      1.0000 0.64300  0.94810  0.63500  Biso   1.000  C
  C84      1.0000 0.14300  0.44810  0.63500  Biso   1.000  C
  C85      1.0000 0.64300  0.05190  0.63500  Biso   1.000  C
  C86      1.0000 0.14300  0.55190  0.63500  Biso   1.000  C
  C87      1.0000 0.35700  0.05190  0.36500  Biso   1.000  C
  C88      1.0000 0.85700  0.55190  0.36500  Biso   1.000  C
  H57      1.0000 0.35600  0.90110  0.50970  Biso   1.000  H
  H58      1.0000 0.85600  0.40110  0.50970  Biso   1.000  H
  H59      1.0000 0.64400  0.90110  0.49030  Biso   1.000  H
  H60      1.0000 0.14400  0.40110  0.49030  Biso   1.000  H
  H61      1.0000 0.64400  0.09890  0.49030  Biso   1.000  H
  H62      1.0000 0.14400  0.59890  0.49030  Biso   1.000  H
  H63      1.0000 0.35600  0.09890  0.50970  Biso   1.000  H
  H64      1.0000 0.85600  0.59890  0.50970  Biso   1.000  H
  C89      1.0000 0.29030  0.00000  0.33180  Biso   1.000  C
  C90      1.0000 0.79030  0.50000  0.33180  Biso   1.000  C
  C91      1.0000 0.70970  0.00000  0.66820  Biso   1.000  C
  C92      1.0000 0.20970  0.50000  0.66820  Biso   1.000  C
  C93      1.0000 0.29370  0.14700  0.87500  Biso   1.000  C
  C94      1.0000 0.79370  0.64700  0.87500  Biso   1.000  C
  C95      1.0000 0.70630  0.14700  0.12500  Biso   1.000  C
  C96      1.0000 0.20630  0.64700  0.12500  Biso   1.000  C
  C97      1.0000 0.70630  0.85300  0.12500  Biso   1.000  C
  C98      1.0000 0.20630  0.35300  0.12500  Biso   1.000  C
  C99      1.0000 0.29370  0.85300  0.87500  Biso   1.000  C
  C100     1.0000 0.79370  0.35300  0.87500  Biso   1.000  C
  Cl1      1.0000 0.01380  0.50000  0.22940  Biso   1.000  Cl
  Cl2      1.0000 0.51380  0.00000  0.22940  Biso   1.000  Cl
  Cl3      1.0000 0.98620  0.50000  0.77060  Biso   1.000  Cl
  Cl4      1.0000 0.48620  0.00000  0.77060  Biso   1.000  Cl
  O33      1.0000 0.00000  0.50000  0.00000  Biso   1.000  O
  O34      1.0000 0.50000  0.00000  0.00000  Biso   1.000  O
  O35      1.0000 0.03140  0.32800  0.29300  Biso   1.000  O
  O36      1.0000 0.53140  0.82800  0.29300  Biso   1.000  O
  O37      1.0000 0.96860  0.32800  0.70700  Biso   1.000  O
  O38      1.0000 0.46860  0.82800  0.70700  Biso   1.000  O
  O39      1.0000 0.96860  0.67200  0.70700  Biso   1.000  O
  O40      1.0000 0.46860  0.17200  0.70700  Biso   1.000  O
  O41      1.0000 0.03140  0.67200  0.29300  Biso   1.000  O
  O42      1.0000 0.53140  0.17200  0.29300  Biso   1.000  O
  O43      1.0000 0.98170  0.50000  0.33300  Biso   1.000  O
  O44      1.0000 0.48170  0.00000  0.33300  Biso   1.000  O
  O45      1.0000 0.01830  0.50000  0.66700  Biso   1.000  O
  O46      1.0000 0.51830  0.00000  0.66700  Biso   1.000  O
