data_image0
_cell_length_a       36.86
_cell_length_b       6.99
_cell_length_c       6.21
_cell_angle_alpha    90
_cell_angle_beta     97.02
_cell_angle_gamma    90

_symmetry_space_group_name_H-M    "P 1"
_symmetry_int_tables_number       1

loop_
  _symmetry_equiv_pos_as_xyz
  'x, y, z'

loop_
  _atom_site_label
  _atom_site_occupancy
  _atom_site_fract_x
  _atom_site_fract_y
  _atom_site_fract_z
  _atom_site_thermal_displace_type
  _atom_site_B_iso_or_equiv
  _atom_site_type_symbol
  Eu1      1.0000 0.22001  0.68912  0.52238  Biso   1.000  Eu
  Eu2      1.0000 0.77999  0.68912  0.47762  Biso   1.000  Eu
  Eu3      1.0000 0.72001  0.18912  0.52238  Biso   1.000  Eu
  Eu4      1.0000 0.27999  0.18912  0.47762  Biso   1.000  Eu
  Cu1      1.0000 0.00000  0.68980  0.00000  Biso   1.000  Cu
  Cu2      1.0000 0.50000  0.18980  0.00000  Biso   1.000  Cu
  O1       1.0000 0.15366  0.74470  0.48880  Biso   1.000  O
  O2       1.0000 0.84634  0.74470  0.51120  Biso   1.000  O
  O3       1.0000 0.65366  0.24470  0.48880  Biso   1.000  O
  O4       1.0000 0.34634  0.24470  0.51120  Biso   1.000  O
  O5       1.0000 0.18099  0.66920  0.81010  Biso   1.000  O
  O6       1.0000 0.81901  0.66920  0.18990  Biso   1.000  O
  O7       1.0000 0.68099  0.16920  0.81010  Biso   1.000  O
  O8       1.0000 0.31901  0.16920  0.18990  Biso   1.000  O
  O9       1.0000 0.27263  0.53140  0.34980  Biso   1.000  O
  O10      1.0000 0.72737  0.53140  0.65020  Biso   1.000  O
  O11      1.0000 0.77263  0.03140  0.34980  Biso   1.000  O
  O12      1.0000 0.22737  0.03140  0.65020  Biso   1.000  O
  O13      1.0000 0.27893  0.83980  0.40900  Biso   1.000  O
  O14      1.0000 0.72107  0.83980  0.59100  Biso   1.000  O
  O15      1.0000 0.77893  0.33980  0.40900  Biso   1.000  O
  O16      1.0000 0.22107  0.33980  0.59100  Biso   1.000  O
  O17      1.0000 0.26658  0.66770  0.83640  Biso   1.000  O
  O18      1.0000 0.73342  0.66770  0.16360  Biso   1.000  O
  O19      1.0000 0.76658  0.16770  0.83640  Biso   1.000  O
  O20      1.0000 0.23342  0.16770  0.16360  Biso   1.000  O
  O21      1.0000 0.29520  0.39140  0.77700  Biso   1.000  O
  O22      1.0000 0.70480  0.39140  0.22300  Biso   1.000  O
  O23      1.0000 0.79520  0.89140  0.77700  Biso   1.000  O
  O24      1.0000 0.20480  0.89140  0.22300  Biso   1.000  O
  N1       1.0000 0.04671  0.69000  0.90330  Biso   1.000  N
  N2       1.0000 0.95329  0.69000  0.09670  Biso   1.000  N
  N3       1.0000 0.54671  0.19000  0.90330  Biso   1.000  N
  N4       1.0000 0.45329  0.19000  0.09670  Biso   1.000  N
  C1       1.0000 0.15208  0.69700  0.68550  Biso   1.000  C
  C2       1.0000 0.84792  0.69700  0.31450  Biso   1.000  C
  C3       1.0000 0.65208  0.19700  0.68550  Biso   1.000  C
  C4       1.0000 0.34792  0.19700  0.31450  Biso   1.000  C
  C5       1.0000 0.11530  0.69600  0.76740  Biso   1.000  C
  C6       1.0000 0.88470  0.69600  0.23260  Biso   1.000  C
  C7       1.0000 0.61530  0.19600  0.76740  Biso   1.000  C
  C8       1.0000 0.38470  0.19600  0.23260  Biso   1.000  C
  C9       1.0000 0.11095  0.64220  0.97240  Biso   1.000  C
  C10      1.0000 0.88905  0.64220  0.02760  Biso   1.000  C
  C11      1.0000 0.61095  0.14220  0.97240  Biso   1.000  C
  C12      1.0000 0.38905  0.14220  0.02760  Biso   1.000  C
  H1       1.0000 0.13110  0.60760  0.06960  Biso   1.000  H
  H2       1.0000 0.86890  0.60760  0.93040  Biso   1.000  H
  H3       1.0000 0.63110  0.10760  0.06960  Biso   1.000  H
  H4       1.0000 0.36890  0.10760  0.93040  Biso   1.000  H
  C13      1.0000 0.07650  0.63920  0.03530  Biso   1.000  C
  C14      1.0000 0.92350  0.63920  0.96470  Biso   1.000  C
  C15      1.0000 0.57650  0.13920  0.03530  Biso   1.000  C
  C16      1.0000 0.42350  0.13920  0.96470  Biso   1.000  C
  H5       1.0000 0.07380  0.60000  0.17550  Biso   1.000  H
  H6       1.0000 0.92620  0.60000  0.82450  Biso   1.000  H
  H7       1.0000 0.57380  0.10000  0.17550  Biso   1.000  H
  H8       1.0000 0.42620  0.10000  0.82450  Biso   1.000  H
  C17      1.0000 0.05139  0.75690  0.70660  Biso   1.000  C
  C18      1.0000 0.94861  0.75690  0.29340  Biso   1.000  C
  C19      1.0000 0.55139  0.25690  0.70660  Biso   1.000  C
  C20      1.0000 0.44861  0.25690  0.29340  Biso   1.000  C
  H9       1.0000 0.03110  0.80160  0.61660  Biso   1.000  H
  H10      1.0000 0.96890  0.80160  0.38340  Biso   1.000  H
  H11      1.0000 0.53110  0.30160  0.61660  Biso   1.000  H
  H12      1.0000 0.46890  0.30160  0.38340  Biso   1.000  H
  C21      1.0000 0.08513  0.76200  0.63290  Biso   1.000  C
  C22      1.0000 0.91487  0.76200  0.36710  Biso   1.000  C
  C23      1.0000 0.58513  0.26200  0.63290  Biso   1.000  C
  C24      1.0000 0.41487  0.26200  0.36710  Biso   1.000  C
  H13      1.0000 0.08760  0.80860  0.49520  Biso   1.000  H
  H14      1.0000 0.91240  0.80860  0.50480  Biso   1.000  H
  H15      1.0000 0.58760  0.30860  0.49520  Biso   1.000  H
  H16      1.0000 0.41240  0.30860  0.50480  Biso   1.000  H
  C25      1.0000 0.36005  0.59390  0.94510  Biso   1.000  C
  C26      1.0000 0.63995  0.59390  0.05490  Biso   1.000  C
  C27      1.0000 0.86005  0.09390  0.94510  Biso   1.000  C
  C28      1.0000 0.13995  0.09390  0.05490  Biso   1.000  C
  H17      1.0000 0.36160  0.54240  0.80840  Biso   1.000  H
  H18      1.0000 0.63840  0.54240  0.19160  Biso   1.000  H
  H19      1.0000 0.86160  0.04240  0.80840  Biso   1.000  H
  H20      1.0000 0.13840  0.04240  0.19160  Biso   1.000  H
  C29      1.0000 0.39160  0.66000  0.07240  Biso   1.000  C
  C30      1.0000 0.60840  0.66000  0.92760  Biso   1.000  C
  C31      1.0000 0.89160  0.16000  0.07240  Biso   1.000  C
  C32      1.0000 0.10840  0.16000  0.92760  Biso   1.000  C
  H21      1.0000 0.41400  0.65550  0.01780  Biso   1.000  H
  H22      1.0000 0.58600  0.65550  0.98220  Biso   1.000  H
  H23      1.0000 0.91400  0.15550  0.01780  Biso   1.000  H
  H24      1.0000 0.08600  0.15550  0.98220  Biso   1.000  H
  C33      1.0000 0.38975  0.72980  0.27610  Biso   1.000  C
  C34      1.0000 0.61025  0.72980  0.72390  Biso   1.000  C
  C35      1.0000 0.88975  0.22980  0.27610  Biso   1.000  C
  C36      1.0000 0.11025  0.22980  0.72390  Biso   1.000  C
  H25      1.0000 0.41100  0.76750  0.36240  Biso   1.000  H
  H26      1.0000 0.58900  0.76750  0.63760  Biso   1.000  H
  H27      1.0000 0.91100  0.26750  0.36240  Biso   1.000  H
  H28      1.0000 0.08900  0.26750  0.63760  Biso   1.000  H
  C37      1.0000 0.35635  0.74460  0.35320  Biso   1.000  C
  C38      1.0000 0.64365  0.74460  0.64680  Biso   1.000  C
  C39      1.0000 0.85635  0.24460  0.35320  Biso   1.000  C
  C40      1.0000 0.14365  0.24460  0.64680  Biso   1.000  C
  H29      1.0000 0.35520  0.79600  0.49030  Biso   1.000  H
  H30      1.0000 0.64480  0.79600  0.50970  Biso   1.000  H
  H31      1.0000 0.85520  0.29600  0.49030  Biso   1.000  H
  H32      1.0000 0.14480  0.29600  0.50970  Biso   1.000  H
  C41      1.0000 0.32464  0.68500  0.23050  Biso   1.000  C
  C42      1.0000 0.67536  0.68500  0.76950  Biso   1.000  C
  C43      1.0000 0.82464  0.18500  0.23050  Biso   1.000  C
  C44      1.0000 0.17536  0.18500  0.76950  Biso   1.000  C
  C45      1.0000 0.32608  0.60610  0.02450  Biso   1.000  C
  C46      1.0000 0.67392  0.60610  0.97550  Biso   1.000  C
  C47      1.0000 0.82608  0.10610  0.02450  Biso   1.000  C
  C48      1.0000 0.17392  0.10610  0.97550  Biso   1.000  C
  C49      1.0000 0.28985  0.67800  0.33360  Biso   1.000  C
  C50      1.0000 0.71015  0.67800  0.66640  Biso   1.000  C
  C51      1.0000 0.78985  0.17800  0.33360  Biso   1.000  C
  C52      1.0000 0.21015  0.17800  0.66640  Biso   1.000  C
  C53      1.0000 0.29303  0.54610  0.86830  Biso   1.000  C
  C54      1.0000 0.70697  0.54610  0.13170  Biso   1.000  C
  C55      1.0000 0.79303  0.04610  0.86830  Biso   1.000  C
  C56      1.0000 0.20697  0.04610  0.13170  Biso   1.000  C
  O25      1.0000 0.19680  0.50900  0.20700  Biso   1.000  O
  O26      1.0000 0.80320  0.50900  0.79300  Biso   1.000  O
  O27      1.0000 0.69680  0.00900  0.20700  Biso   1.000  O
  O28      1.0000 0.30320  0.00900  0.79300  Biso   1.000  O
  Cl1      1.0000 0.98473  0.22560  0.74830  Biso   1.000  Cl
  Cl2      1.0000 0.01527  0.22560  0.25170  Biso   1.000  Cl
  Cl3      1.0000 0.48473  0.72560  0.74830  Biso   1.000  Cl
  Cl4      1.0000 0.51527  0.72560  0.25170  Biso   1.000  Cl
  O29      1.0000 0.01550  0.22900  0.65300  Biso   1.000  O
  O30      1.0000 0.98450  0.22900  0.34700  Biso   1.000  O
  O31      1.0000 0.51550  0.72900  0.65300  Biso   1.000  O
  O32      1.0000 0.48450  0.72900  0.34700  Biso   1.000  O
  O33      1.0000 0.97400  0.39300  0.67000  Biso   1.000  O
  O34      1.0000 0.02600  0.39300  0.33000  Biso   1.000  O
  O35      1.0000 0.47400  0.89300  0.67000  Biso   1.000  O
  O36      1.0000 0.52600  0.89300  0.33000  Biso   1.000  O
  O37      1.0000 0.96420  0.04400  0.71800  Biso   1.000  O
  O38      1.0000 0.03580  0.04400  0.28200  Biso   1.000  O
  O39      1.0000 0.46420  0.54400  0.71800  Biso   1.000  O
  O40      1.0000 0.53580  0.54400  0.28200  Biso   1.000  O
  O41      1.0000 0.00000  0.23800  0.00000  Biso   1.000  O
  O42      1.0000 0.50000  0.73800  0.00000  Biso   1.000  O
