data_image0
_cell_length_a       36.815
_cell_length_b       6.9805
_cell_length_c       6.2024
_cell_angle_alpha    90
_cell_angle_beta     97.42
_cell_angle_gamma    90

_symmetry_space_group_name_H-M    "P 1"
_symmetry_int_tables_number       1

loop_
  _symmetry_equiv_pos_as_xyz
  'x, y, z'

loop_
  _atom_site_label
  _atom_site_occupancy
  _atom_site_fract_x
  _atom_site_fract_y
  _atom_site_fract_z
  _atom_site_thermal_displace_type
  _atom_site_B_iso_or_equiv
  _atom_site_type_symbol
  Eu1      1.0000 0.27998  0.50000  0.47900  Biso   1.000  Eu
  Eu2      1.0000 0.77998  0.00000  0.47900  Biso   1.000  Eu
  Eu3      1.0000 0.72002  0.50000  0.52100  Biso   1.000  Eu
  Eu4      1.0000 0.22002  0.00000  0.52100  Biso   1.000  Eu
  Cu1      1.0000 0.50000  0.50000  0.00000  Biso   1.000  Cu
  Cu2      1.0000 0.00000  0.00000  0.00000  Biso   1.000  Cu
  O1       1.0000 0.31920  0.50000  0.19270  Biso   1.000  O
  O2       1.0000 0.81920  0.00000  0.19270  Biso   1.000  O
  O3       1.0000 0.68080  0.50000  0.80730  Biso   1.000  O
  O4       1.0000 0.18080  0.00000  0.80730  Biso   1.000  O
  O5       1.0000 0.34620  0.44660  0.51530  Biso   1.000  O
  O6       1.0000 0.84620  0.94660  0.51530  Biso   1.000  O
  O7       1.0000 0.65380  0.44660  0.48470  Biso   1.000  O
  O8       1.0000 0.15380  0.94660  0.48470  Biso   1.000  O
  O9       1.0000 0.65380  0.55340  0.48470  Biso   1.000  O
  O10      1.0000 0.15380  0.05340  0.48470  Biso   1.000  O
  O11      1.0000 0.34620  0.55340  0.51530  Biso   1.000  O
  O12      1.0000 0.84620  0.05340  0.51530  Biso   1.000  O
  O13      1.0000 0.23280  0.50000  0.16270  Biso   1.000  O
  O14      1.0000 0.73280  0.00000  0.16270  Biso   1.000  O
  O15      1.0000 0.76720  0.50000  0.83730  Biso   1.000  O
  O16      1.0000 0.26720  0.00000  0.83730  Biso   1.000  O
  O17      1.0000 0.20069  0.19060  0.21290  Biso   1.000  O
  O18      1.0000 0.70069  0.69060  0.21290  Biso   1.000  O
  O19      1.0000 0.79931  0.19060  0.78710  Biso   1.000  O
  O20      1.0000 0.29931  0.69060  0.78710  Biso   1.000  O
  O21      1.0000 0.79931  0.80940  0.78710  Biso   1.000  O
  O22      1.0000 0.29931  0.30940  0.78710  Biso   1.000  O
  O23      1.0000 0.20069  0.80940  0.21290  Biso   1.000  O
  O24      1.0000 0.70069  0.30940  0.21290  Biso   1.000  O
  O25      1.0000 0.22415  0.34500  0.62230  Biso   1.000  O
  O26      1.0000 0.72415  0.84500  0.62230  Biso   1.000  O
  O27      1.0000 0.77585  0.34500  0.37770  Biso   1.000  O
  O28      1.0000 0.27585  0.84500  0.37770  Biso   1.000  O
  O29      1.0000 0.77585  0.65500  0.37770  Biso   1.000  O
  O30      1.0000 0.27585  0.15500  0.37770  Biso   1.000  O
  O31      1.0000 0.22415  0.65500  0.62230  Biso   1.000  O
  O32      1.0000 0.72415  0.15500  0.62230  Biso   1.000  O
  N1       1.0000 0.45313  0.48300  0.09500  Biso   1.000  N
  N2       1.0000 0.95313  0.98300  0.09500  Biso   1.000  N
  N3       1.0000 0.54687  0.48300  0.90500  Biso   1.000  N
  N4       1.0000 0.04687  0.98300  0.90500  Biso   1.000  N
  N5       1.0000 0.54687  0.51700  0.90500  Biso   1.000  N
  N6       1.0000 0.04687  0.01700  0.90500  Biso   1.000  N
  N7       1.0000 0.45313  0.51700  0.09500  Biso   1.000  N
  N8       1.0000 0.95313  0.01700  0.09500  Biso   1.000  N
  C1       1.0000 0.44920  0.42500  0.30370  Biso   1.000  C
  C2       1.0000 0.94920  0.92500  0.30370  Biso   1.000  C
  C3       1.0000 0.55080  0.42500  0.69630  Biso   1.000  C
  C4       1.0000 0.05080  0.92500  0.69630  Biso   1.000  C
  C5       1.0000 0.55080  0.57500  0.69630  Biso   1.000  C
  C6       1.0000 0.05080  0.07500  0.69630  Biso   1.000  C
  C7       1.0000 0.44920  0.57500  0.30370  Biso   1.000  C
  C8       1.0000 0.94920  0.07500  0.30370  Biso   1.000  C
  H1       1.0000 0.47050  0.38390  0.40130  Biso   1.000  H
  H2       1.0000 0.97050  0.88390  0.40130  Biso   1.000  H
  H3       1.0000 0.52950  0.38390  0.59870  Biso   1.000  H
  H4       1.0000 0.02950  0.88390  0.59870  Biso   1.000  H
  H5       1.0000 0.52950  0.61610  0.59870  Biso   1.000  H
  H6       1.0000 0.02950  0.11610  0.59870  Biso   1.000  H
  H7       1.0000 0.47050  0.61610  0.40130  Biso   1.000  H
  H8       1.0000 0.97050  0.11610  0.40130  Biso   1.000  H
  C9       1.0000 0.41500  0.42400  0.37300  Biso   1.000  C
  C10      1.0000 0.91500  0.92400  0.37300  Biso   1.000  C
  C11      1.0000 0.58500  0.42400  0.62700  Biso   1.000  C
  C12      1.0000 0.08500  0.92400  0.62700  Biso   1.000  C
  C13      1.0000 0.58500  0.57600  0.62700  Biso   1.000  C
  C14      1.0000 0.08500  0.07600  0.62700  Biso   1.000  C
  C15      1.0000 0.41500  0.57600  0.37300  Biso   1.000  C
  C16      1.0000 0.91500  0.07600  0.37300  Biso   1.000  C
  H9       1.0000 0.41170  0.37230  0.51370  Biso   1.000  H
  H10      1.0000 0.91170  0.87230  0.51370  Biso   1.000  H
  H11      1.0000 0.58830  0.37230  0.48630  Biso   1.000  H
  H12      1.0000 0.08830  0.87230  0.48630  Biso   1.000  H
  H13      1.0000 0.58830  0.62770  0.48630  Biso   1.000  H
  H14      1.0000 0.08830  0.12770  0.48630  Biso   1.000  H
  H15      1.0000 0.41170  0.62770  0.51370  Biso   1.000  H
  H16      1.0000 0.91170  0.12770  0.51370  Biso   1.000  H
  C17      1.0000 0.38468  0.50100  0.23410  Biso   1.000  C
  C18      1.0000 0.88468  0.00100  0.23410  Biso   1.000  C
  C19      1.0000 0.61532  0.50100  0.76590  Biso   1.000  C
  C20      1.0000 0.11532  0.00100  0.76590  Biso   1.000  C
  C21      1.0000 0.61532  0.49900  0.76590  Biso   1.000  C
  C22      1.0000 0.11532  0.99900  0.76590  Biso   1.000  C
  C23      1.0000 0.38468  0.49900  0.23410  Biso   1.000  C
  C24      1.0000 0.88468  0.99900  0.23410  Biso   1.000  C
  C25      1.0000 0.38860  0.54460  0.02560  Biso   1.000  C
  C26      1.0000 0.88860  0.04460  0.02560  Biso   1.000  C
  C27      1.0000 0.61140  0.54460  0.97440  Biso   1.000  C
  C28      1.0000 0.11140  0.04460  0.97440  Biso   1.000  C
  C29      1.0000 0.61140  0.45540  0.97440  Biso   1.000  C
  C30      1.0000 0.11140  0.95540  0.97440  Biso   1.000  C
  C31      1.0000 0.38860  0.45540  0.02560  Biso   1.000  C
  C32      1.0000 0.88860  0.95540  0.02560  Biso   1.000  C
  H17      1.0000 0.36710  0.57120  0.92290  Biso   1.000  H
  H18      1.0000 0.86710  0.07120  0.92290  Biso   1.000  H
  H19      1.0000 0.63290  0.57120  0.07710  Biso   1.000  H
  H20      1.0000 0.13290  0.07120  0.07710  Biso   1.000  H
  H21      1.0000 0.63290  0.42880  0.07710  Biso   1.000  H
  H22      1.0000 0.13290  0.92880  0.07710  Biso   1.000  H
  H23      1.0000 0.36710  0.42880  0.92290  Biso   1.000  H
  H24      1.0000 0.86710  0.92880  0.92290  Biso   1.000  H
  C33      1.0000 0.42290  0.55100  0.95770  Biso   1.000  C
  C34      1.0000 0.92290  0.05100  0.95770  Biso   1.000  C
  C35      1.0000 0.57710  0.55100  0.04230  Biso   1.000  C
  C36      1.0000 0.07710  0.05100  0.04230  Biso   1.000  C
  C37      1.0000 0.57710  0.44900  0.04230  Biso   1.000  C
  C38      1.0000 0.07710  0.94900  0.04230  Biso   1.000  C
  C39      1.0000 0.42290  0.44900  0.95770  Biso   1.000  C
  C40      1.0000 0.92290  0.94900  0.95770  Biso   1.000  C
  H25      1.0000 0.42590  0.60220  0.81620  Biso   1.000  H
  H26      1.0000 0.92590  0.10220  0.81620  Biso   1.000  H
  H27      1.0000 0.57410  0.60220  0.18380  Biso   1.000  H
  H28      1.0000 0.07410  0.10220  0.18380  Biso   1.000  H
  H29      1.0000 0.57410  0.39780  0.18380  Biso   1.000  H
  H30      1.0000 0.07410  0.89780  0.18380  Biso   1.000  H
  H31      1.0000 0.42590  0.39780  0.81620  Biso   1.000  H
  H32      1.0000 0.92590  0.89780  0.81620  Biso   1.000  H
  C41      1.0000 0.34780  0.50000  0.31800  Biso   1.000  C
  C42      1.0000 0.84780  0.00000  0.31800  Biso   1.000  C
  C43      1.0000 0.65220  0.50000  0.68200  Biso   1.000  C
  C44      1.0000 0.15220  0.00000  0.68200  Biso   1.000  C
  C45      1.0000 0.17539  0.50000  0.76390  Biso   1.000  C
  C46      1.0000 0.67539  0.00000  0.76390  Biso   1.000  C
  C47      1.0000 0.82461  0.50000  0.23610  Biso   1.000  C
  C48      1.0000 0.32461  0.00000  0.23610  Biso   1.000  C
  C49      1.0000 0.17364  0.41480  0.97310  Biso   1.000  C
  C50      1.0000 0.67364  0.91480  0.97310  Biso   1.000  C
  C51      1.0000 0.82636  0.41480  0.02690  Biso   1.000  C
  C52      1.0000 0.32636  0.91480  0.02690  Biso   1.000  C
  C53      1.0000 0.82636  0.58520  0.02690  Biso   1.000  C
  C54      1.0000 0.32636  0.08520  0.02690  Biso   1.000  C
  C55      1.0000 0.17364  0.58520  0.97310  Biso   1.000  C
  C56      1.0000 0.67364  0.08520  0.97310  Biso   1.000  C
  C57      1.0000 0.13990  0.40520  0.05440  Biso   1.000  C
  C58      1.0000 0.63990  0.90520  0.05440  Biso   1.000  C
  C59      1.0000 0.86010  0.40520  0.94560  Biso   1.000  C
  C60      1.0000 0.36010  0.90520  0.94560  Biso   1.000  C
  C61      1.0000 0.86010  0.59480  0.94560  Biso   1.000  C
  C62      1.0000 0.36010  0.09480  0.94560  Biso   1.000  C
  C63      1.0000 0.13990  0.59480  0.05440  Biso   1.000  C
  C64      1.0000 0.63990  0.09480  0.05440  Biso   1.000  C
  H33      1.0000 0.13870  0.35580  0.19800  Biso   1.000  H
  H34      1.0000 0.63870  0.85580  0.19800  Biso   1.000  H
  H35      1.0000 0.86130  0.35580  0.80200  Biso   1.000  H
  H36      1.0000 0.36130  0.85580  0.80200  Biso   1.000  H
  H37      1.0000 0.86130  0.64420  0.80200  Biso   1.000  H
  H38      1.0000 0.36130  0.14420  0.80200  Biso   1.000  H
  H39      1.0000 0.13870  0.64420  0.19800  Biso   1.000  H
  H40      1.0000 0.63870  0.14420  0.19800  Biso   1.000  H
  C65      1.0000 0.10799  0.46770  0.92670  Biso   1.000  C
  C66      1.0000 0.60799  0.96770  0.92670  Biso   1.000  C
  C67      1.0000 0.89201  0.46770  0.07330  Biso   1.000  C
  C68      1.0000 0.39201  0.96770  0.07330  Biso   1.000  C
  C69      1.0000 0.89201  0.53230  0.07330  Biso   1.000  C
  C70      1.0000 0.39201  0.03230  0.07330  Biso   1.000  C
  C71      1.0000 0.10799  0.53230  0.92670  Biso   1.000  C
  C72      1.0000 0.60799  0.03230  0.92670  Biso   1.000  C
  H41      1.0000 0.08490  0.46160  0.98270  Biso   1.000  H
  H42      1.0000 0.58490  0.96160  0.98270  Biso   1.000  H
  H43      1.0000 0.91510  0.46160  0.01730  Biso   1.000  H
  H44      1.0000 0.41510  0.96160  0.01730  Biso   1.000  H
  H45      1.0000 0.91510  0.53840  0.01730  Biso   1.000  H
  H46      1.0000 0.41510  0.03840  0.01730  Biso   1.000  H
  H47      1.0000 0.08490  0.53840  0.98270  Biso   1.000  H
  H48      1.0000 0.58490  0.03840  0.98270  Biso   1.000  H
  C73      1.0000 0.10974  0.53910  0.71740  Biso   1.000  C
  C74      1.0000 0.60974  0.03910  0.71740  Biso   1.000  C
  C75      1.0000 0.89026  0.53910  0.28260  Biso   1.000  C
  C76      1.0000 0.39026  0.03910  0.28260  Biso   1.000  C
  C77      1.0000 0.89026  0.46090  0.28260  Biso   1.000  C
  C78      1.0000 0.39026  0.96090  0.28260  Biso   1.000  C
  C79      1.0000 0.10974  0.46090  0.71740  Biso   1.000  C
  C80      1.0000 0.60974  0.96090  0.71740  Biso   1.000  C
  H49      1.0000 0.08770  0.57760  0.62810  Biso   1.000  H
  H50      1.0000 0.58770  0.07760  0.62810  Biso   1.000  H
  H51      1.0000 0.91230  0.57760  0.37190  Biso   1.000  H
  H52      1.0000 0.41230  0.07760  0.37190  Biso   1.000  H
  H53      1.0000 0.91230  0.42240  0.37190  Biso   1.000  H
  H54      1.0000 0.41230  0.92240  0.37190  Biso   1.000  H
  H55      1.0000 0.08770  0.42240  0.62810  Biso   1.000  H
  H56      1.0000 0.58770  0.92240  0.62810  Biso   1.000  H
  C81      1.0000 0.14350  0.55460  0.63740  Biso   1.000  C
  C82      1.0000 0.64350  0.05460  0.63740  Biso   1.000  C
  C83      1.0000 0.85650  0.55460  0.36260  Biso   1.000  C
  C84      1.0000 0.35650  0.05460  0.36260  Biso   1.000  C
  C85      1.0000 0.85650  0.44540  0.36260  Biso   1.000  C
  C86      1.0000 0.35650  0.94540  0.36260  Biso   1.000  C
  C87      1.0000 0.14350  0.44540  0.63740  Biso   1.000  C
  C88      1.0000 0.64350  0.94540  0.63740  Biso   1.000  C
  H57      1.0000 0.14440  0.60370  0.49350  Biso   1.000  H
  H58      1.0000 0.64440  0.10370  0.49350  Biso   1.000  H
  H59      1.0000 0.85560  0.60370  0.50650  Biso   1.000  H
  H60      1.0000 0.35560  0.10370  0.50650  Biso   1.000  H
  H61      1.0000 0.85560  0.39630  0.50650  Biso   1.000  H
  H62      1.0000 0.35560  0.89630  0.50650  Biso   1.000  H
  H63      1.0000 0.14440  0.39630  0.49350  Biso   1.000  H
  H64      1.0000 0.64440  0.89630  0.49350  Biso   1.000  H
  C89      1.0000 0.20990  0.50000  0.66790  Biso   1.000  C
  C90      1.0000 0.70990  0.00000  0.66790  Biso   1.000  C
  C91      1.0000 0.79010  0.50000  0.33210  Biso   1.000  C
  C92      1.0000 0.29010  0.00000  0.33210  Biso   1.000  C
  C93      1.0000 0.20650  0.35900  0.12900  Biso   1.000  C
  C94      1.0000 0.70650  0.85900  0.12900  Biso   1.000  C
  C95      1.0000 0.79350  0.35900  0.87100  Biso   1.000  C
  C96      1.0000 0.29350  0.85900  0.87100  Biso   1.000  C
  C97      1.0000 0.79350  0.64100  0.87100  Biso   1.000  C
  C98      1.0000 0.29350  0.14100  0.87100  Biso   1.000  C
  C99      1.0000 0.20650  0.64100  0.12900  Biso   1.000  C
  C100     1.0000 0.70650  0.14100  0.12900  Biso   1.000  C
  Cl1      1.0000 0.51390  0.00000  0.23090  Biso   1.000  Cl
  Cl2      1.0000 0.01390  0.50000  0.23090  Biso   1.000  Cl
  Cl3      1.0000 0.48610  0.00000  0.76910  Biso   1.000  Cl
  Cl4      1.0000 0.98610  0.50000  0.76910  Biso   1.000  Cl
  O33      1.0000 0.50000  0.00000  0.00000  Biso   1.000  O
  O34      1.0000 0.00000  0.50000  0.00000  Biso   1.000  O
  O35      1.0000 0.48150  0.00000  0.34000  Biso   1.000  O
  O36      1.0000 0.98150  0.50000  0.34000  Biso   1.000  O
  O37      1.0000 0.51850  0.00000  0.66000  Biso   1.000  O
  O38      1.0000 0.01850  0.50000  0.66000  Biso   1.000  O
  O39      1.0000 0.53230  0.82800  0.28600  Biso   1.000  O
  O40      1.0000 0.03230  0.32800  0.28600  Biso   1.000  O
  O41      1.0000 0.46770  0.82800  0.71400  Biso   1.000  O
  O42      1.0000 0.96770  0.32800  0.71400  Biso   1.000  O
  O43      1.0000 0.46770  0.17200  0.71400  Biso   1.000  O
  O44      1.0000 0.96770  0.67200  0.71400  Biso   1.000  O
  O45      1.0000 0.53230  0.17200  0.28600  Biso   1.000  O
  O46      1.0000 0.03230  0.67200  0.28600  Biso   1.000  O
