data_image0
_cell_length_a       36.936
_cell_length_b       7.0081
_cell_length_c       6.2127
_cell_angle_alpha    90
_cell_angle_beta     97.246
_cell_angle_gamma    90

_symmetry_space_group_name_H-M    "P 1"
_symmetry_int_tables_number       1

loop_
  _symmetry_equiv_pos_as_xyz
  'x, y, z'

loop_
  _atom_site_label
  _atom_site_occupancy
  _atom_site_fract_x
  _atom_site_fract_y
  _atom_site_fract_z
  _atom_site_thermal_displace_type
  _atom_site_B_iso_or_equiv
  _atom_site_type_symbol
  Sm1      1.0000 0.21990  0.68939  0.52263  Biso   1.000  Sm
  Sm2      1.0000 0.78010  0.68939  0.47737  Biso   1.000  Sm
  Sm3      1.0000 0.71990  0.18939  0.52263  Biso   1.000  Sm
  Sm4      1.0000 0.28010  0.18939  0.47737  Biso   1.000  Sm
  Cu1      1.0000 0.00000  0.69160  0.00000  Biso   1.000  Cu
  Cu2      1.0000 0.50000  0.19160  0.00000  Biso   1.000  Cu
  O1       1.0000 0.15337  0.74530  0.48990  Biso   1.000  O
  O2       1.0000 0.84663  0.74530  0.51010  Biso   1.000  O
  O3       1.0000 0.65337  0.24530  0.48990  Biso   1.000  O
  O4       1.0000 0.34663  0.24530  0.51010  Biso   1.000  O
  O5       1.0000 0.18038  0.66890  0.80970  Biso   1.000  O
  O6       1.0000 0.81962  0.66890  0.19030  Biso   1.000  O
  O7       1.0000 0.68038  0.16890  0.80970  Biso   1.000  O
  O8       1.0000 0.31962  0.16890  0.19030  Biso   1.000  O
  O9       1.0000 0.27283  0.53030  0.34840  Biso   1.000  O
  O10      1.0000 0.72717  0.53030  0.65160  Biso   1.000  O
  O11      1.0000 0.77283  0.03030  0.34840  Biso   1.000  O
  O12      1.0000 0.22717  0.03030  0.65160  Biso   1.000  O
  O13      1.0000 0.27910  0.83830  0.41010  Biso   1.000  O
  O14      1.0000 0.72090  0.83830  0.58990  Biso   1.000  O
  O15      1.0000 0.77910  0.33830  0.41010  Biso   1.000  O
  O16      1.0000 0.22090  0.33830  0.58990  Biso   1.000  O
  O17      1.0000 0.26661  0.66580  0.83780  Biso   1.000  O
  O18      1.0000 0.73339  0.66580  0.16220  Biso   1.000  O
  O19      1.0000 0.76661  0.16580  0.83780  Biso   1.000  O
  O20      1.0000 0.23339  0.16580  0.16220  Biso   1.000  O
  O21      1.0000 0.29610  0.39100  0.77490  Biso   1.000  O
  O22      1.0000 0.70390  0.39100  0.22510  Biso   1.000  O
  O23      1.0000 0.79610  0.89100  0.77490  Biso   1.000  O
  O24      1.0000 0.20390  0.89100  0.22510  Biso   1.000  O
  N1       1.0000 0.04657  0.68500  0.90400  Biso   1.000  N
  N2       1.0000 0.95343  0.68500  0.09600  Biso   1.000  N
  N3       1.0000 0.54657  0.18500  0.90400  Biso   1.000  N
  N4       1.0000 0.45343  0.18500  0.09600  Biso   1.000  N
  C1       1.0000 0.15174  0.70000  0.68340  Biso   1.000  C
  C2       1.0000 0.84826  0.70000  0.31660  Biso   1.000  C
  C3       1.0000 0.65174  0.20000  0.68340  Biso   1.000  C
  C4       1.0000 0.34826  0.20000  0.31660  Biso   1.000  C
  C5       1.0000 0.11495  0.69500  0.76650  Biso   1.000  C
  C6       1.0000 0.88505  0.69500  0.23350  Biso   1.000  C
  C7       1.0000 0.61495  0.19500  0.76650  Biso   1.000  C
  C8       1.0000 0.38505  0.19500  0.23350  Biso   1.000  C
  C9       1.0000 0.11081  0.64190  0.97330  Biso   1.000  C
  C10      1.0000 0.88919  0.64190  0.02670  Biso   1.000  C
  C11      1.0000 0.61081  0.14190  0.97330  Biso   1.000  C
  C12      1.0000 0.38919  0.14190  0.02670  Biso   1.000  C
  H1       1.0000 0.13110  0.60880  0.07040  Biso   1.000  H
  H2       1.0000 0.86890  0.60880  0.92960  Biso   1.000  H
  H3       1.0000 0.63110  0.10880  0.07040  Biso   1.000  H
  H4       1.0000 0.36890  0.10880  0.92960  Biso   1.000  H
  C13      1.0000 0.07650  0.63800  0.03770  Biso   1.000  C
  C14      1.0000 0.92350  0.63800  0.96230  Biso   1.000  C
  C15      1.0000 0.57650  0.13800  0.03770  Biso   1.000  C
  C16      1.0000 0.42350  0.13800  0.96230  Biso   1.000  C
  H5       1.0000 0.07410  0.60130  0.17900  Biso   1.000  H
  H6       1.0000 0.92590  0.60130  0.82100  Biso   1.000  H
  H7       1.0000 0.57410  0.10130  0.17900  Biso   1.000  H
  H8       1.0000 0.42590  0.10130  0.82100  Biso   1.000  H
  C17      1.0000 0.05080  0.75690  0.70700  Biso   1.000  C
  C18      1.0000 0.94920  0.75690  0.29300  Biso   1.000  C
  C19      1.0000 0.55080  0.25690  0.70700  Biso   1.000  C
  C20      1.0000 0.44920  0.25690  0.29300  Biso   1.000  C
  H9       1.0000 0.03050  0.80340  0.61910  Biso   1.000  H
  H10      1.0000 0.96950  0.80340  0.38090  Biso   1.000  H
  H11      1.0000 0.53050  0.30340  0.61910  Biso   1.000  H
  H12      1.0000 0.46950  0.30340  0.38090  Biso   1.000  H
  C21      1.0000 0.08490  0.76320  0.63100  Biso   1.000  C
  C22      1.0000 0.91510  0.76320  0.36900  Biso   1.000  C
  C23      1.0000 0.58490  0.26320  0.63100  Biso   1.000  C
  C24      1.0000 0.41510  0.26320  0.36900  Biso   1.000  C
  H13      1.0000 0.08740  0.81170  0.49440  Biso   1.000  H
  H14      1.0000 0.91260  0.81170  0.50560  Biso   1.000  H
  H15      1.0000 0.58740  0.31170  0.49440  Biso   1.000  H
  H16      1.0000 0.41260  0.31170  0.50560  Biso   1.000  H
  C25      1.0000 0.35990  0.59470  0.94740  Biso   1.000  C
  C26      1.0000 0.64010  0.59470  0.05260  Biso   1.000  C
  C27      1.0000 0.85990  0.09470  0.94740  Biso   1.000  C
  C28      1.0000 0.14010  0.09470  0.05260  Biso   1.000  C
  H17      1.0000 0.36130  0.54380  0.81040  Biso   1.000  H
  H18      1.0000 0.63870  0.54380  0.18960  Biso   1.000  H
  H19      1.0000 0.86130  0.04380  0.81040  Biso   1.000  H
  H20      1.0000 0.13870  0.04380  0.18960  Biso   1.000  H
  C29      1.0000 0.39151  0.65700  0.07120  Biso   1.000  C
  C30      1.0000 0.60849  0.65700  0.92880  Biso   1.000  C
  C31      1.0000 0.89151  0.15700  0.07120  Biso   1.000  C
  C32      1.0000 0.10849  0.15700  0.92880  Biso   1.000  C
  H21      1.0000 0.41380  0.65040  0.01700  Biso   1.000  H
  H22      1.0000 0.58620  0.65040  0.98300  Biso   1.000  H
  H23      1.0000 0.91380  0.15040  0.01700  Biso   1.000  H
  H24      1.0000 0.08620  0.15040  0.98300  Biso   1.000  H
  C33      1.0000 0.38947  0.72880  0.27500  Biso   1.000  C
  C34      1.0000 0.61053  0.72880  0.72500  Biso   1.000  C
  C35      1.0000 0.88947  0.22880  0.27500  Biso   1.000  C
  C36      1.0000 0.11053  0.22880  0.72500  Biso   1.000  C
  H25      1.0000 0.41070  0.76790  0.36060  Biso   1.000  H
  H26      1.0000 0.58930  0.76790  0.63940  Biso   1.000  H
  H27      1.0000 0.91070  0.26790  0.36060  Biso   1.000  H
  H28      1.0000 0.08930  0.26790  0.63940  Biso   1.000  H
  C37      1.0000 0.35636  0.74360  0.35390  Biso   1.000  C
  C38      1.0000 0.64364  0.74360  0.64610  Biso   1.000  C
  C39      1.0000 0.85636  0.24360  0.35390  Biso   1.000  C
  C40      1.0000 0.14364  0.24360  0.64610  Biso   1.000  C
  H29      1.0000 0.35540  0.79390  0.49170  Biso   1.000  H
  H30      1.0000 0.64460  0.79390  0.50830  Biso   1.000  H
  H31      1.0000 0.85540  0.29390  0.49170  Biso   1.000  H
  H32      1.0000 0.14460  0.29390  0.50830  Biso   1.000  H
  C41      1.0000 0.32464  0.68500  0.23150  Biso   1.000  C
  C42      1.0000 0.67536  0.68500  0.76850  Biso   1.000  C
  C43      1.0000 0.82464  0.18500  0.23150  Biso   1.000  C
  C44      1.0000 0.17536  0.18500  0.76850  Biso   1.000  C
  C45      1.0000 0.32635  0.60620  0.02270  Biso   1.000  C
  C46      1.0000 0.67365  0.60620  0.97730  Biso   1.000  C
  C47      1.0000 0.82635  0.10620  0.02270  Biso   1.000  C
  C48      1.0000 0.17365  0.10620  0.97730  Biso   1.000  C
  C49      1.0000 0.28983  0.67600  0.33260  Biso   1.000  C
  C50      1.0000 0.71017  0.67600  0.66740  Biso   1.000  C
  C51      1.0000 0.78983  0.17600  0.33260  Biso   1.000  C
  C52      1.0000 0.21017  0.17600  0.66740  Biso   1.000  C
  C53      1.0000 0.29324  0.54690  0.87030  Biso   1.000  C
  C54      1.0000 0.70676  0.54690  0.12970  Biso   1.000  C
  C55      1.0000 0.79324  0.04690  0.87030  Biso   1.000  C
  C56      1.0000 0.20676  0.04690  0.12970  Biso   1.000  C
  O25      1.0000 0.19710  0.50810  0.20300  Biso   1.000  O
  O26      1.0000 0.80290  0.50810  0.79700  Biso   1.000  O
  O27      1.0000 0.69710  0.00810  0.20300  Biso   1.000  O
  O28      1.0000 0.30290  0.00810  0.79700  Biso   1.000  O
  Cl1      1.0000 0.98430  0.22600  0.74830  Biso   1.000  Cl
  Cl2      1.0000 0.01570  0.22600  0.25170  Biso   1.000  Cl
  Cl3      1.0000 0.48430  0.72600  0.74830  Biso   1.000  Cl
  Cl4      1.0000 0.51570  0.72600  0.25170  Biso   1.000  Cl
  O29      1.0000 0.00700  0.26500  0.60600  Biso   1.000  O
  O30      1.0000 0.99300  0.26500  0.39400  Biso   1.000  O
  O31      1.0000 0.50700  0.76500  0.60600  Biso   1.000  O
  O32      1.0000 0.49300  0.76500  0.39400  Biso   1.000  O
  O33      1.0000 0.97420  0.38700  0.65800  Biso   1.000  O
  O34      1.0000 0.02580  0.38700  0.34200  Biso   1.000  O
  O35      1.0000 0.47420  0.88700  0.65800  Biso   1.000  O
  O36      1.0000 0.52580  0.88700  0.34200  Biso   1.000  O
  O37      1.0000 0.96580  0.03900  0.73500  Biso   1.000  O
  O38      1.0000 0.03420  0.03900  0.26500  Biso   1.000  O
  O39      1.0000 0.46580  0.53900  0.73500  Biso   1.000  O
  O40      1.0000 0.53420  0.53900  0.26500  Biso   1.000  O
  O41      1.0000 0.00000  0.22400  0.00000  Biso   1.000  O
  O42      1.0000 0.50000  0.72400  0.00000  Biso   1.000  O
