data_image0
_cell_length_a       7.3821
_cell_length_b       9.1119
_cell_length_c       13.6634
_cell_angle_alpha    71.833
_cell_angle_beta     88.291
_cell_angle_gamma    66.349

_symmetry_space_group_name_H-M    "P 1"
_symmetry_int_tables_number       1

loop_
  _symmetry_equiv_pos_as_xyz
  'x, y, z'

loop_
  _atom_site_label
  _atom_site_occupancy
  _atom_site_fract_x
  _atom_site_fract_y
  _atom_site_fract_z
  _atom_site_thermal_displace_type
  _atom_site_B_iso_or_equiv
  _atom_site_type_symbol
  Cu1      1.0000 0.65135  0.07299  0.68138  Biso   1.000  Cu
  Cu2      1.0000 0.34865  0.92701  0.31862  Biso   1.000  Cu
  Cu3      1.0000 0.64083  0.86260  0.49933  Biso   1.000  Cu
  Cu4      1.0000 0.35917  0.13740  0.50067  Biso   1.000  Cu
  Cl1      1.0000 0.38066  0.30723  0.60651  Biso   1.000  Cl
  Cl2      1.0000 0.61934  0.69277  0.39349  Biso   1.000  Cl
  Cl3      1.0000 0.60968  0.87325  0.82317  Biso   1.000  Cl
  Cl4      1.0000 0.39032  0.12675  0.17683  Biso   1.000  Cl
  S1       1.0000 0.89544  0.50887  0.68538  Biso   1.000  S
  S2       1.0000 0.10456  0.49113  0.31462  Biso   1.000  S
  O1       1.0000 0.08220  0.19203  0.99896  Biso   1.000  O
  O2       1.0000 0.91780  0.80797  0.00104  Biso   1.000  O
  H1       1.0000 0.16000  0.17600  0.06000  Biso   1.000  H
  H2       1.0000 0.84000  0.82400  0.94000  Biso   1.000  H
  N1       1.0000 0.94320  0.98991  0.66619  Biso   1.000  N
  N2       1.0000 0.05680  0.01009  0.33381  Biso   1.000  N
  N3       1.0000 0.22890  0.00056  0.58468  Biso   1.000  N
  N4       1.0000 0.77110  0.99944  0.41532  Biso   1.000  N
  N5       1.0000 0.53310  0.76641  0.62183  Biso   1.000  N
  N6       1.0000 0.46690  0.23359  0.37817  Biso   1.000  N
  N7       1.0000 0.57950  0.51115  0.76006  Biso   1.000  N
  N8       1.0000 0.42050  0.48885  0.23994  Biso   1.000  N
  C1       1.0000 0.03430  0.07030  0.59816  Biso   1.000  C
  C2       1.0000 0.96570  0.92970  0.40184  Biso   1.000  C
  C3       1.0000 0.34060  0.83660  0.64109  Biso   1.000  C
  C4       1.0000 0.65940  0.16340  0.35891  Biso   1.000  C
  C5       1.0000 0.25450  0.74600  0.71558  Biso   1.000  C
  C6       1.0000 0.74550  0.25400  0.28442  Biso   1.000  C
  C7       1.0000 0.05860  0.82790  0.72605  Biso   1.000  C
  C8       1.0000 0.94140  0.17210  0.27395  Biso   1.000  C
  H3       1.0000 0.99980  0.76920  0.77750  Biso   1.000  H
  H4       1.0000 0.00020  0.23080  0.22250  Biso   1.000  H
  C9       1.0000 0.91610  0.24870  0.53142  Biso   1.000  C
  C10      1.0000 0.08390  0.75130  0.46858  Biso   1.000  C
  H5       1.0000 0.77770  0.28500  0.54730  Biso   1.000  H
  H6       1.0000 0.22230  0.71500  0.45270  Biso   1.000  H
  H7       1.0000 0.92070  0.25600  0.45840  Biso   1.000  H
  H8       1.0000 0.07930  0.74400  0.54160  Biso   1.000  H
  H9       1.0000 0.97210  0.32260  0.54470  Biso   1.000  H
  H10      1.0000 0.02790  0.67740  0.45530  Biso   1.000  H
  C11      1.0000 0.64370  0.60960  0.68731  Biso   1.000  C
  C12      1.0000 0.35630  0.39040  0.31269  Biso   1.000  C
  C13      1.0000 0.36890  0.56180  0.77550  Biso   1.000  C
  C14      1.0000 0.63110  0.43820  0.22450  Biso   1.000  C
  H11      1.0000 0.31700  0.49000  0.74820  Biso   1.000  H
  H12      1.0000 0.68300  0.51000  0.25180  Biso   1.000  H
  H13      1.0000 0.36200  0.54900  0.84300  Biso   1.000  H
  H14      1.0000 0.63800  0.45100  0.15700  Biso   1.000  H
  C15      1.0000 0.90670  0.32740  0.78443  Biso   1.000  C
  C16      1.0000 0.09330  0.67260  0.21557  Biso   1.000  C
  C17      1.0000 0.72550  0.35140  0.81574  Biso   1.000  C
  C18      1.0000 0.27450  0.64860  0.18426  Biso   1.000  C
  C19      1.0000 0.66910  0.23160  0.89810  Biso   1.000  C
  C20      1.0000 0.33090  0.76840  0.10190  Biso   1.000  C
  H15      1.0000 0.78870  0.12950  0.93270  Biso   1.000  H
  H16      1.0000 0.21130  0.87050  0.06730  Biso   1.000  H
  H17      1.0000 0.57760  0.20050  0.86710  Biso   1.000  H
  H18      1.0000 0.42240  0.79950  0.13290  Biso   1.000  H
  H19      1.0000 0.60370  0.28570  0.94890  Biso   1.000  H
  H20      1.0000 0.39630  0.71430  0.05110  Biso   1.000  H
  C21      1.0000 0.10070  0.17550  0.82696  Biso   1.000  C
  C22      1.0000 0.89930  0.82450  0.17304  Biso   1.000  C
  H21      1.0000 0.18910  0.16650  0.77120  Biso   1.000  H
  H22      1.0000 0.81090  0.83350  0.22880  Biso   1.000  H
  H23      1.0000 0.07540  0.07170  0.85020  Biso   1.000  H
  H24      1.0000 0.92460  0.92830  0.14980  Biso   1.000  H
  C23      1.0000 0.20430  0.18570  0.91659  Biso   1.000  C
  C24      1.0000 0.79570  0.81430  0.08341  Biso   1.000  C
  H25      1.0000 0.33280  0.08530  0.94080  Biso   1.000  H
  H26      1.0000 0.66720  0.91470  0.05920  Biso   1.000  H
  H27      1.0000 0.23170  0.28830  0.89380  Biso   1.000  H
  H28      1.0000 0.76830  0.71170  0.10620  Biso   1.000  H
  O3       1.0000 0.76040  0.49620  0.99902  Biso   1.000  O
  O4       1.0000 0.23960  0.50380  0.00098  Biso   1.000  O
  H29      1.0000 0.75300  0.57100  0.94160  Biso   1.000  H
  H30      1.0000 0.24700  0.42900  0.05840  Biso   1.000  H
  H31      1.0000 0.86000  0.41300  0.99300  Biso   1.000  H
  H32      1.0000 0.14000  0.58700  0.00700  Biso   1.000  H
