data_image0
_cell_length_a       22.7496
_cell_length_b       22.7496
_cell_length_c       22.7496
_cell_angle_alpha    90
_cell_angle_beta     90
_cell_angle_gamma    90

_symmetry_space_group_name_H-M    "P 1"
_symmetry_int_tables_number       1

loop_
  _symmetry_equiv_pos_as_xyz
  'x, y, z'

loop_
  _atom_site_label
  _atom_site_occupancy
  _atom_site_fract_x
  _atom_site_fract_y
  _atom_site_fract_z
  _atom_site_thermal_displace_type
  _atom_site_B_iso_or_equiv
  _atom_site_type_symbol
  I1       1.0000 0.80960  0.80960  0.80960  Biso   1.000  I
  I2       1.0000 0.19040  0.19040  0.80960  Biso   1.000  I
  I3       1.0000 0.19040  0.19040  0.19040  Biso   1.000  I
  I4       1.0000 0.19040  0.80960  0.80960  Biso   1.000  I
  I5       1.0000 0.19040  0.80960  0.19040  Biso   1.000  I
  I6       1.0000 0.80960  0.19040  0.19040  Biso   1.000  I
  I7       1.0000 0.80960  0.19040  0.80960  Biso   1.000  I
  I8       1.0000 0.80960  0.80960  0.19040  Biso   1.000  I
  Cu1      1.0000 0.74870  0.74870  0.74870  Biso   1.000  Cu
  Cu2      1.0000 0.25130  0.25130  0.74870  Biso   1.000  Cu
  Cu3      1.0000 0.25130  0.25130  0.25130  Biso   1.000  Cu
  Cu4      1.0000 0.25130  0.74870  0.74870  Biso   1.000  Cu
  Cu5      1.0000 0.25130  0.74870  0.25130  Biso   1.000  Cu
  Cu6      1.0000 0.74870  0.25130  0.25130  Biso   1.000  Cu
  Cu7      1.0000 0.74870  0.25130  0.74870  Biso   1.000  Cu
  Cu8      1.0000 0.74870  0.74870  0.25130  Biso   1.000  Cu
  N1       1.0000 0.68860  0.77350  0.68860  Biso   1.000  N
  N2       1.0000 0.31140  0.22650  0.68860  Biso   1.000  N
  N3       1.0000 0.31140  0.31140  0.22650  Biso   1.000  N
  N4       1.0000 0.31140  0.68860  0.77350  Biso   1.000  N
  N5       1.0000 0.31140  0.77350  0.31140  Biso   1.000  N
  N6       1.0000 0.22650  0.31140  0.31140  Biso   1.000  N
  N7       1.0000 0.22650  0.31140  0.68860  Biso   1.000  N
  N8       1.0000 0.22650  0.68860  0.31140  Biso   1.000  N
  N9       1.0000 0.22650  0.68860  0.68860  Biso   1.000  N
  N10      1.0000 0.31140  0.31140  0.77350  Biso   1.000  N
  N11      1.0000 0.31140  0.22650  0.31140  Biso   1.000  N
  N12      1.0000 0.31140  0.77350  0.68860  Biso   1.000  N
  N13      1.0000 0.31140  0.68860  0.22650  Biso   1.000  N
  N14      1.0000 0.68860  0.31140  0.22650  Biso   1.000  N
  N15      1.0000 0.68860  0.22650  0.68860  Biso   1.000  N
  N16      1.0000 0.68860  0.77350  0.31140  Biso   1.000  N
  N17      1.0000 0.68860  0.68860  0.77350  Biso   1.000  N
  N18      1.0000 0.77350  0.31140  0.68860  Biso   1.000  N
  N19      1.0000 0.77350  0.31140  0.31140  Biso   1.000  N
  N20      1.0000 0.77350  0.68860  0.68860  Biso   1.000  N
  N21      1.0000 0.77350  0.68860  0.31140  Biso   1.000  N
  N22      1.0000 0.68860  0.22650  0.31140  Biso   1.000  N
  N23      1.0000 0.68860  0.31140  0.77350  Biso   1.000  N
  N24      1.0000 0.68860  0.68860  0.22650  Biso   1.000  N
  C1       1.0000 0.66920  0.82840  0.66920  Biso   1.000  C
  C2       1.0000 0.33080  0.17160  0.66920  Biso   1.000  C
  C3       1.0000 0.33080  0.33080  0.17160  Biso   1.000  C
  C4       1.0000 0.33080  0.66920  0.82840  Biso   1.000  C
  C5       1.0000 0.33080  0.82840  0.33080  Biso   1.000  C
  C6       1.0000 0.17160  0.33080  0.33080  Biso   1.000  C
  C7       1.0000 0.17160  0.33080  0.66920  Biso   1.000  C
  C8       1.0000 0.17160  0.66920  0.33080  Biso   1.000  C
  C9       1.0000 0.17160  0.66920  0.66920  Biso   1.000  C
  C10      1.0000 0.33080  0.33080  0.82840  Biso   1.000  C
  C11      1.0000 0.33080  0.17160  0.33080  Biso   1.000  C
  C12      1.0000 0.33080  0.82840  0.66920  Biso   1.000  C
  C13      1.0000 0.33080  0.66920  0.17160  Biso   1.000  C
  C14      1.0000 0.66920  0.33080  0.17160  Biso   1.000  C
  C15      1.0000 0.66920  0.17160  0.66920  Biso   1.000  C
  C16      1.0000 0.66920  0.82840  0.33080  Biso   1.000  C
  C17      1.0000 0.66920  0.66920  0.82840  Biso   1.000  C
  C18      1.0000 0.82840  0.33080  0.66920  Biso   1.000  C
  C19      1.0000 0.82840  0.33080  0.33080  Biso   1.000  C
  C20      1.0000 0.82840  0.66920  0.66920  Biso   1.000  C
  C21      1.0000 0.82840  0.66920  0.33080  Biso   1.000  C
  C22      1.0000 0.66920  0.17160  0.33080  Biso   1.000  C
  C23      1.0000 0.66920  0.33080  0.82840  Biso   1.000  C
  C24      1.0000 0.66920  0.66920  0.17160  Biso   1.000  C
  N25      1.0000 0.65760  0.73060  0.65760  Biso   1.000  N
  N26      1.0000 0.34240  0.26940  0.65760  Biso   1.000  N
  N27      1.0000 0.34240  0.34240  0.26940  Biso   1.000  N
  N28      1.0000 0.34240  0.65760  0.73060  Biso   1.000  N
  N29      1.0000 0.34240  0.73060  0.34240  Biso   1.000  N
  N30      1.0000 0.26940  0.34240  0.34240  Biso   1.000  N
  N31      1.0000 0.26940  0.34240  0.65760  Biso   1.000  N
  N32      1.0000 0.26940  0.65760  0.34240  Biso   1.000  N
  N33      1.0000 0.26940  0.65760  0.65760  Biso   1.000  N
  N34      1.0000 0.34240  0.34240  0.73060  Biso   1.000  N
  N35      1.0000 0.34240  0.26940  0.34240  Biso   1.000  N
  N36      1.0000 0.34240  0.73060  0.65760  Biso   1.000  N
  N37      1.0000 0.34240  0.65760  0.26940  Biso   1.000  N
  N38      1.0000 0.65760  0.34240  0.26940  Biso   1.000  N
  N39      1.0000 0.65760  0.26940  0.65760  Biso   1.000  N
  N40      1.0000 0.65760  0.73060  0.34240  Biso   1.000  N
  N41      1.0000 0.65760  0.65760  0.73060  Biso   1.000  N
  N42      1.0000 0.73060  0.34240  0.65760  Biso   1.000  N
  N43      1.0000 0.73060  0.34240  0.34240  Biso   1.000  N
  N44      1.0000 0.73060  0.65760  0.65760  Biso   1.000  N
  N45      1.0000 0.73060  0.65760  0.34240  Biso   1.000  N
  N46      1.0000 0.65760  0.26940  0.34240  Biso   1.000  N
  N47      1.0000 0.65760  0.34240  0.73060  Biso   1.000  N
  N48      1.0000 0.65760  0.65760  0.26940  Biso   1.000  N
  C25      1.0000 0.62640  0.81940  0.62640  Biso   1.000  C
  C26      1.0000 0.37360  0.18060  0.62640  Biso   1.000  C
  C27      1.0000 0.37360  0.37360  0.18060  Biso   1.000  C
  C28      1.0000 0.37360  0.62640  0.81940  Biso   1.000  C
  C29      1.0000 0.37360  0.81940  0.37360  Biso   1.000  C
  C30      1.0000 0.18060  0.37360  0.37360  Biso   1.000  C
  C31      1.0000 0.18060  0.37360  0.62640  Biso   1.000  C
  C32      1.0000 0.18060  0.62640  0.37360  Biso   1.000  C
  C33      1.0000 0.18060  0.62640  0.62640  Biso   1.000  C
  C34      1.0000 0.37360  0.37360  0.81940  Biso   1.000  C
  C35      1.0000 0.37360  0.18060  0.37360  Biso   1.000  C
  C36      1.0000 0.37360  0.81940  0.62640  Biso   1.000  C
  C37      1.0000 0.37360  0.62640  0.18060  Biso   1.000  C
  C38      1.0000 0.62640  0.37360  0.18060  Biso   1.000  C
  C39      1.0000 0.62640  0.18060  0.62640  Biso   1.000  C
  C40      1.0000 0.62640  0.81940  0.37360  Biso   1.000  C
  C41      1.0000 0.62640  0.62640  0.81940  Biso   1.000  C
  C42      1.0000 0.81940  0.37360  0.62640  Biso   1.000  C
  C43      1.0000 0.81940  0.37360  0.37360  Biso   1.000  C
  C44      1.0000 0.81940  0.62640  0.62640  Biso   1.000  C
  C45      1.0000 0.81940  0.62640  0.37360  Biso   1.000  C
  C46      1.0000 0.62640  0.18060  0.37360  Biso   1.000  C
  C47      1.0000 0.62640  0.37360  0.81940  Biso   1.000  C
  C48      1.0000 0.62640  0.62640  0.18060  Biso   1.000  C
  C49      1.0000 0.69330  0.88380  0.69330  Biso   1.000  C
  C50      1.0000 0.30670  0.11620  0.69330  Biso   1.000  C
  C51      1.0000 0.30670  0.30670  0.11620  Biso   1.000  C
  C52      1.0000 0.30670  0.69330  0.88380  Biso   1.000  C
  C53      1.0000 0.30670  0.88380  0.30670  Biso   1.000  C
  C54      1.0000 0.11620  0.30670  0.30670  Biso   1.000  C
  C55      1.0000 0.11620  0.30670  0.69330  Biso   1.000  C
  C56      1.0000 0.11620  0.69330  0.30670  Biso   1.000  C
  C57      1.0000 0.11620  0.69330  0.69330  Biso   1.000  C
  C58      1.0000 0.30670  0.30670  0.88380  Biso   1.000  C
  C59      1.0000 0.30670  0.11620  0.30670  Biso   1.000  C
  C60      1.0000 0.30670  0.88380  0.69330  Biso   1.000  C
  C61      1.0000 0.30670  0.69330  0.11620  Biso   1.000  C
  C62      1.0000 0.69330  0.30670  0.11620  Biso   1.000  C
  C63      1.0000 0.69330  0.11620  0.69330  Biso   1.000  C
  C64      1.0000 0.69330  0.88380  0.30670  Biso   1.000  C
  C65      1.0000 0.69330  0.69330  0.88380  Biso   1.000  C
  C66      1.0000 0.88380  0.30670  0.69330  Biso   1.000  C
  C67      1.0000 0.88380  0.30670  0.30670  Biso   1.000  C
  C68      1.0000 0.88380  0.69330  0.69330  Biso   1.000  C
  C69      1.0000 0.88380  0.69330  0.30670  Biso   1.000  C
  C70      1.0000 0.69330  0.11620  0.30670  Biso   1.000  C
  C71      1.0000 0.69330  0.30670  0.88380  Biso   1.000  C
  C72      1.0000 0.69330  0.69330  0.11620  Biso   1.000  C
  C73      1.0000 0.61920  0.75900  0.61920  Biso   1.000  C
  C74      1.0000 0.38080  0.24100  0.61920  Biso   1.000  C
  C75      1.0000 0.38080  0.38080  0.24100  Biso   1.000  C
  C76      1.0000 0.38080  0.61920  0.75900  Biso   1.000  C
  C77      1.0000 0.38080  0.75900  0.38080  Biso   1.000  C
  C78      1.0000 0.24100  0.38080  0.38080  Biso   1.000  C
  C79      1.0000 0.24100  0.38080  0.61920  Biso   1.000  C
  C80      1.0000 0.24100  0.61920  0.38080  Biso   1.000  C
  C81      1.0000 0.24100  0.61920  0.61920  Biso   1.000  C
  C82      1.0000 0.38080  0.38080  0.75900  Biso   1.000  C
  C83      1.0000 0.38080  0.24100  0.38080  Biso   1.000  C
  C84      1.0000 0.38080  0.75900  0.61920  Biso   1.000  C
  C85      1.0000 0.38080  0.61920  0.24100  Biso   1.000  C
  C86      1.0000 0.61920  0.38080  0.24100  Biso   1.000  C
  C87      1.0000 0.61920  0.24100  0.61920  Biso   1.000  C
  C88      1.0000 0.61920  0.75900  0.38080  Biso   1.000  C
  C89      1.0000 0.61920  0.61920  0.75900  Biso   1.000  C
  C90      1.0000 0.75900  0.38080  0.61920  Biso   1.000  C
  C91      1.0000 0.75900  0.38080  0.38080  Biso   1.000  C
  C92      1.0000 0.75900  0.61920  0.61920  Biso   1.000  C
  C93      1.0000 0.75900  0.61920  0.38080  Biso   1.000  C
  C94      1.0000 0.61920  0.24100  0.38080  Biso   1.000  C
  C95      1.0000 0.61920  0.38080  0.75900  Biso   1.000  C
  C96      1.0000 0.61920  0.61920  0.24100  Biso   1.000  C
  C97      1.0000 0.66940  0.66940  0.66940  Biso   1.000  C
  C98      1.0000 0.33060  0.33060  0.66940  Biso   1.000  C
  C99      1.0000 0.33060  0.33060  0.33060  Biso   1.000  C
  C100     1.0000 0.33060  0.66940  0.66940  Biso   1.000  C
  C101     1.0000 0.33060  0.66940  0.33060  Biso   1.000  C
  C102     1.0000 0.66940  0.33060  0.33060  Biso   1.000  C
  C103     1.0000 0.66940  0.33060  0.66940  Biso   1.000  C
  C104     1.0000 0.66940  0.66940  0.33060  Biso   1.000  C
  C105     1.0000 0.59300  0.86760  0.59300  Biso   1.000  C
  C106     1.0000 0.40700  0.13240  0.59300  Biso   1.000  C
  C107     1.0000 0.40700  0.40700  0.13240  Biso   1.000  C
  C108     1.0000 0.40700  0.59300  0.86760  Biso   1.000  C
  C109     1.0000 0.40700  0.86760  0.40700  Biso   1.000  C
  C110     1.0000 0.13240  0.40700  0.40700  Biso   1.000  C
  C111     1.0000 0.13240  0.40700  0.59300  Biso   1.000  C
  C112     1.0000 0.13240  0.59300  0.40700  Biso   1.000  C
  C113     1.0000 0.13240  0.59300  0.59300  Biso   1.000  C
  C114     1.0000 0.40700  0.40700  0.86760  Biso   1.000  C
  C115     1.0000 0.40700  0.13240  0.40700  Biso   1.000  C
  C116     1.0000 0.40700  0.86760  0.59300  Biso   1.000  C
  C117     1.0000 0.40700  0.59300  0.13240  Biso   1.000  C
  C118     1.0000 0.59300  0.40700  0.13240  Biso   1.000  C
  C119     1.0000 0.59300  0.13240  0.59300  Biso   1.000  C
  C120     1.0000 0.59300  0.86760  0.40700  Biso   1.000  C
  C121     1.0000 0.59300  0.59300  0.86760  Biso   1.000  C
  C122     1.0000 0.86760  0.40700  0.59300  Biso   1.000  C
  C123     1.0000 0.86760  0.40700  0.40700  Biso   1.000  C
  C124     1.0000 0.86760  0.59300  0.59300  Biso   1.000  C
  C125     1.0000 0.86760  0.59300  0.40700  Biso   1.000  C
  C126     1.0000 0.59300  0.13240  0.40700  Biso   1.000  C
  C127     1.0000 0.59300  0.40700  0.86760  Biso   1.000  C
  C128     1.0000 0.59300  0.59300  0.13240  Biso   1.000  C
  C129     1.0000 0.57960  0.72610  0.57960  Biso   1.000  C
  C130     1.0000 0.42040  0.27390  0.57960  Biso   1.000  C
  C131     1.0000 0.42040  0.42040  0.27390  Biso   1.000  C
  C132     1.0000 0.42040  0.57960  0.72610  Biso   1.000  C
  C133     1.0000 0.42040  0.72610  0.42040  Biso   1.000  C
  C134     1.0000 0.27390  0.42040  0.42040  Biso   1.000  C
  C135     1.0000 0.27390  0.42040  0.57960  Biso   1.000  C
  C136     1.0000 0.27390  0.57960  0.42040  Biso   1.000  C
  C137     1.0000 0.27390  0.57960  0.57960  Biso   1.000  C
  C138     1.0000 0.42040  0.42040  0.72610  Biso   1.000  C
  C139     1.0000 0.42040  0.27390  0.42040  Biso   1.000  C
  C140     1.0000 0.42040  0.72610  0.57960  Biso   1.000  C
  C141     1.0000 0.42040  0.57960  0.27390  Biso   1.000  C
  C142     1.0000 0.57960  0.42040  0.27390  Biso   1.000  C
  C143     1.0000 0.57960  0.27390  0.57960  Biso   1.000  C
  C144     1.0000 0.57960  0.72610  0.42040  Biso   1.000  C
  C145     1.0000 0.57960  0.57960  0.72610  Biso   1.000  C
  C146     1.0000 0.72610  0.42040  0.57960  Biso   1.000  C
  C147     1.0000 0.72610  0.42040  0.42040  Biso   1.000  C
  C148     1.0000 0.72610  0.57960  0.57960  Biso   1.000  C
  C149     1.0000 0.72610  0.57960  0.42040  Biso   1.000  C
  C150     1.0000 0.57960  0.27390  0.42040  Biso   1.000  C
  C151     1.0000 0.57960  0.42040  0.72610  Biso   1.000  C
  C152     1.0000 0.57960  0.57960  0.27390  Biso   1.000  C
  O1       1.0000 0.60560  0.92290  0.60560  Biso   1.000  O
  O2       1.0000 0.39440  0.07710  0.60560  Biso   1.000  O
  O3       1.0000 0.39440  0.39440  0.07710  Biso   1.000  O
  O4       1.0000 0.39440  0.60560  0.92290  Biso   1.000  O
  O5       1.0000 0.39440  0.92290  0.39440  Biso   1.000  O
  O6       1.0000 0.07710  0.39440  0.39440  Biso   1.000  O
  O7       1.0000 0.07710  0.39440  0.60560  Biso   1.000  O
  O8       1.0000 0.07710  0.60560  0.39440  Biso   1.000  O
  O9       1.0000 0.07710  0.60560  0.60560  Biso   1.000  O
  O10      1.0000 0.39440  0.39440  0.92290  Biso   1.000  O
  O11      1.0000 0.39440  0.07710  0.39440  Biso   1.000  O
  O12      1.0000 0.39440  0.92290  0.60560  Biso   1.000  O
  O13      1.0000 0.39440  0.60560  0.07710  Biso   1.000  O
  O14      1.0000 0.60560  0.39440  0.07710  Biso   1.000  O
  O15      1.0000 0.60560  0.07710  0.60560  Biso   1.000  O
  O16      1.0000 0.60560  0.92290  0.39440  Biso   1.000  O
  O17      1.0000 0.60560  0.60560  0.92290  Biso   1.000  O
  O18      1.0000 0.92290  0.39440  0.60560  Biso   1.000  O
  O19      1.0000 0.92290  0.39440  0.39440  Biso   1.000  O
  O20      1.0000 0.92290  0.60560  0.60560  Biso   1.000  O
  O21      1.0000 0.92290  0.60560  0.39440  Biso   1.000  O
  O22      1.0000 0.60560  0.07710  0.39440  Biso   1.000  O
  O23      1.0000 0.60560  0.39440  0.92290  Biso   1.000  O
  O24      1.0000 0.60560  0.60560  0.07710  Biso   1.000  O
  O25      1.0000 0.55360  0.85080  0.55360  Biso   1.000  O
  O26      1.0000 0.44640  0.14920  0.55360  Biso   1.000  O
  O27      1.0000 0.44640  0.44640  0.14920  Biso   1.000  O
  O28      1.0000 0.44640  0.55360  0.85080  Biso   1.000  O
  O29      1.0000 0.44640  0.85080  0.44640  Biso   1.000  O
  O30      1.0000 0.14920  0.44640  0.44640  Biso   1.000  O
  O31      1.0000 0.14920  0.44640  0.55360  Biso   1.000  O
  O32      1.0000 0.14920  0.55360  0.44640  Biso   1.000  O
  O33      1.0000 0.14920  0.55360  0.55360  Biso   1.000  O
  O34      1.0000 0.44640  0.44640  0.85080  Biso   1.000  O
  O35      1.0000 0.44640  0.14920  0.44640  Biso   1.000  O
  O36      1.0000 0.44640  0.85080  0.55360  Biso   1.000  O
  O37      1.0000 0.44640  0.55360  0.14920  Biso   1.000  O
  O38      1.0000 0.55360  0.44640  0.14920  Biso   1.000  O
  O39      1.0000 0.55360  0.14920  0.55360  Biso   1.000  O
  O40      1.0000 0.55360  0.85080  0.44640  Biso   1.000  O
  O41      1.0000 0.55360  0.55360  0.85080  Biso   1.000  O
  O42      1.0000 0.85080  0.44640  0.55360  Biso   1.000  O
  O43      1.0000 0.85080  0.44640  0.44640  Biso   1.000  O
  O44      1.0000 0.85080  0.55360  0.55360  Biso   1.000  O
  O45      1.0000 0.85080  0.55360  0.44640  Biso   1.000  O
  O46      1.0000 0.55360  0.14920  0.44640  Biso   1.000  O
  O47      1.0000 0.55360  0.44640  0.85080  Biso   1.000  O
  O48      1.0000 0.55360  0.55360  0.14920  Biso   1.000  O
  Zr1      1.0000 0.57713  0.00000  0.57713  Biso   1.000  Zr
  Zr2      1.0000 0.42287  0.00000  0.57713  Biso   1.000  Zr
  Zr3      1.0000 0.42287  0.42287  0.00000  Biso   1.000  Zr
  Zr4      1.0000 0.42287  0.57713  0.00000  Biso   1.000  Zr
  Zr5      1.0000 0.42287  0.00000  0.42287  Biso   1.000  Zr
  Zr6      1.0000 0.00000  0.42287  0.42287  Biso   1.000  Zr
  Zr7      1.0000 0.00000  0.42287  0.57713  Biso   1.000  Zr
  Zr8      1.0000 0.00000  0.57713  0.42287  Biso   1.000  Zr
  Zr9      1.0000 0.00000  0.57713  0.57713  Biso   1.000  Zr
  Zr10     1.0000 0.57713  0.42287  0.00000  Biso   1.000  Zr
  Zr11     1.0000 0.57713  0.00000  0.42287  Biso   1.000  Zr
  Zr12     1.0000 0.57713  0.57713  0.00000  Biso   1.000  Zr
  Zr13     1.0000 0.50000  0.89092  0.50000  Biso   1.000  Zr
  Zr14     1.0000 0.50000  0.10908  0.50000  Biso   1.000  Zr
  Zr15     1.0000 0.50000  0.50000  0.10908  Biso   1.000  Zr
  Zr16     1.0000 0.50000  0.50000  0.89092  Biso   1.000  Zr
  Zr17     1.0000 0.10908  0.50000  0.50000  Biso   1.000  Zr
  Zr18     1.0000 0.89092  0.50000  0.50000  Biso   1.000  Zr
  O49      1.0000 0.57840  0.95400  0.50000  Biso   1.000  O
  O50      1.0000 0.42160  0.04600  0.50000  Biso   1.000  O
  O51      1.0000 0.42160  0.50000  0.04600  Biso   1.000  O
  O52      1.0000 0.42160  0.50000  0.95400  Biso   1.000  O
  O53      1.0000 0.42160  0.95400  0.50000  Biso   1.000  O
  O54      1.0000 0.04600  0.42160  0.50000  Biso   1.000  O
  O55      1.0000 0.04600  0.50000  0.57840  Biso   1.000  O
  O56      1.0000 0.04600  0.50000  0.42160  Biso   1.000  O
  O57      1.0000 0.04600  0.57840  0.50000  Biso   1.000  O
  O58      1.0000 0.50000  0.42160  0.95400  Biso   1.000  O
  O59      1.0000 0.50000  0.04600  0.42160  Biso   1.000  O
  O60      1.0000 0.50000  0.95400  0.57840  Biso   1.000  O
  O61      1.0000 0.50000  0.57840  0.04600  Biso   1.000  O
  O62      1.0000 0.50000  0.42160  0.04600  Biso   1.000  O
  O63      1.0000 0.50000  0.04600  0.57840  Biso   1.000  O
  O64      1.0000 0.50000  0.95400  0.42160  Biso   1.000  O
  O65      1.0000 0.50000  0.57840  0.95400  Biso   1.000  O
  O66      1.0000 0.95400  0.42160  0.50000  Biso   1.000  O
  O67      1.0000 0.95400  0.50000  0.42160  Biso   1.000  O
  O68      1.0000 0.95400  0.50000  0.57840  Biso   1.000  O
  O69      1.0000 0.95400  0.57840  0.50000  Biso   1.000  O
  O70      1.0000 0.57840  0.04600  0.50000  Biso   1.000  O
  O71      1.0000 0.57840  0.50000  0.95400  Biso   1.000  O
  O72      1.0000 0.57840  0.50000  0.04600  Biso   1.000  O
  O73      1.0000 0.66670  0.00000  0.54690  Biso   1.000  O
  O74      1.0000 0.33330  0.00000  0.54690  Biso   1.000  O
  O75      1.0000 0.33330  0.45310  0.00000  Biso   1.000  O
  O76      1.0000 0.33330  0.54690  0.00000  Biso   1.000  O
  O77      1.0000 0.33330  0.00000  0.45310  Biso   1.000  O
  O78      1.0000 0.00000  0.33330  0.45310  Biso   1.000  O
  O79      1.0000 0.00000  0.45310  0.66670  Biso   1.000  O
  O80      1.0000 0.00000  0.54690  0.33330  Biso   1.000  O
  O81      1.0000 0.00000  0.66670  0.54690  Biso   1.000  O
  O82      1.0000 0.45310  0.33330  0.00000  Biso   1.000  O
  O83      1.0000 0.45310  0.00000  0.33330  Biso   1.000  O
  O84      1.0000 0.45310  0.00000  0.66670  Biso   1.000  O
  O85      1.0000 0.45310  0.66670  0.00000  Biso   1.000  O
  O86      1.0000 0.54690  0.33330  0.00000  Biso   1.000  O
  O87      1.0000 0.54690  0.00000  0.66670  Biso   1.000  O
  O88      1.0000 0.54690  0.00000  0.33330  Biso   1.000  O
  O89      1.0000 0.54690  0.66670  0.00000  Biso   1.000  O
  O90      1.0000 0.00000  0.33330  0.54690  Biso   1.000  O
  O91      1.0000 0.00000  0.45310  0.33330  Biso   1.000  O
  O92      1.0000 0.00000  0.54690  0.66670  Biso   1.000  O
  O93      1.0000 0.00000  0.66670  0.45310  Biso   1.000  O
  O94      1.0000 0.66670  0.00000  0.45310  Biso   1.000  O
  O95      1.0000 0.66670  0.45310  0.00000  Biso   1.000  O
  O96      1.0000 0.66670  0.54690  0.00000  Biso   1.000  O
  C153     1.0000 0.69380  0.00000  0.50000  Biso   1.000  C
  C154     1.0000 0.30620  0.00000  0.50000  Biso   1.000  C
  C155     1.0000 0.30620  0.50000  0.00000  Biso   1.000  C
  C156     1.0000 0.00000  0.30620  0.50000  Biso   1.000  C
  C157     1.0000 0.00000  0.50000  0.69380  Biso   1.000  C
  C158     1.0000 0.00000  0.50000  0.30620  Biso   1.000  C
  C159     1.0000 0.00000  0.69380  0.50000  Biso   1.000  C
  C160     1.0000 0.50000  0.30620  0.00000  Biso   1.000  C
  C161     1.0000 0.50000  0.00000  0.30620  Biso   1.000  C
  C162     1.0000 0.50000  0.00000  0.69380  Biso   1.000  C
  C163     1.0000 0.50000  0.69380  0.00000  Biso   1.000  C
  C164     1.0000 0.69380  0.50000  0.00000  Biso   1.000  C
  C165     1.0000 0.75970  0.00000  0.50000  Biso   1.000  C
  C166     1.0000 0.24030  0.00000  0.50000  Biso   1.000  C
  C167     1.0000 0.24030  0.50000  0.00000  Biso   1.000  C
  C168     1.0000 0.00000  0.24030  0.50000  Biso   1.000  C
  C169     1.0000 0.00000  0.50000  0.75970  Biso   1.000  C
  C170     1.0000 0.00000  0.50000  0.24030  Biso   1.000  C
  C171     1.0000 0.00000  0.75970  0.50000  Biso   1.000  C
  C172     1.0000 0.50000  0.24030  0.00000  Biso   1.000  C
  C173     1.0000 0.50000  0.00000  0.24030  Biso   1.000  C
  C174     1.0000 0.50000  0.00000  0.75970  Biso   1.000  C
  C175     1.0000 0.50000  0.75970  0.00000  Biso   1.000  C
  C176     1.0000 0.75970  0.50000  0.00000  Biso   1.000  C
  C177     1.0000 0.79010  0.00000  0.44730  Biso   1.000  C
  C178     1.0000 0.20990  0.00000  0.44730  Biso   1.000  C
  C179     1.0000 0.20990  0.55270  0.00000  Biso   1.000  C
  C180     1.0000 0.20990  0.44730  0.00000  Biso   1.000  C
  C181     1.0000 0.20990  0.00000  0.55270  Biso   1.000  C
  C182     1.0000 0.00000  0.20990  0.55270  Biso   1.000  C
  C183     1.0000 0.00000  0.55270  0.79010  Biso   1.000  C
  C184     1.0000 0.00000  0.44730  0.20990  Biso   1.000  C
  C185     1.0000 0.00000  0.79010  0.44730  Biso   1.000  C
  C186     1.0000 0.55270  0.20990  0.00000  Biso   1.000  C
  C187     1.0000 0.55270  0.00000  0.20990  Biso   1.000  C
  C188     1.0000 0.55270  0.00000  0.79010  Biso   1.000  C
  C189     1.0000 0.55270  0.79010  0.00000  Biso   1.000  C
  C190     1.0000 0.44730  0.20990  0.00000  Biso   1.000  C
  C191     1.0000 0.44730  0.00000  0.79010  Biso   1.000  C
  C192     1.0000 0.44730  0.00000  0.20990  Biso   1.000  C
  C193     1.0000 0.44730  0.79010  0.00000  Biso   1.000  C
  C194     1.0000 0.00000  0.20990  0.44730  Biso   1.000  C
  C195     1.0000 0.00000  0.55270  0.20990  Biso   1.000  C
  C196     1.0000 0.00000  0.44730  0.79010  Biso   1.000  C
  C197     1.0000 0.00000  0.79010  0.55270  Biso   1.000  C
  C198     1.0000 0.79010  0.00000  0.55270  Biso   1.000  C
  C199     1.0000 0.79010  0.55270  0.00000  Biso   1.000  C
  C200     1.0000 0.79010  0.44730  0.00000  Biso   1.000  C
  C201     1.0000 0.85100  0.00000  0.44730  Biso   1.000  C
  C202     1.0000 0.14900  0.00000  0.44730  Biso   1.000  C
  C203     1.0000 0.14900  0.55270  0.00000  Biso   1.000  C
  C204     1.0000 0.14900  0.44730  0.00000  Biso   1.000  C
  C205     1.0000 0.14900  0.00000  0.55270  Biso   1.000  C
  C206     1.0000 0.00000  0.14900  0.55270  Biso   1.000  C
  C207     1.0000 0.00000  0.55270  0.85100  Biso   1.000  C
  C208     1.0000 0.00000  0.44730  0.14900  Biso   1.000  C
  C209     1.0000 0.00000  0.85100  0.44730  Biso   1.000  C
  C210     1.0000 0.55270  0.14900  0.00000  Biso   1.000  C
  C211     1.0000 0.55270  0.00000  0.14900  Biso   1.000  C
  C212     1.0000 0.55270  0.00000  0.85100  Biso   1.000  C
  C213     1.0000 0.55270  0.85100  0.00000  Biso   1.000  C
  C214     1.0000 0.44730  0.14900  0.00000  Biso   1.000  C
  C215     1.0000 0.44730  0.00000  0.85100  Biso   1.000  C
  C216     1.0000 0.44730  0.00000  0.14900  Biso   1.000  C
  C217     1.0000 0.44730  0.85100  0.00000  Biso   1.000  C
  C218     1.0000 0.00000  0.14900  0.44730  Biso   1.000  C
  C219     1.0000 0.00000  0.55270  0.14900  Biso   1.000  C
  C220     1.0000 0.00000  0.44730  0.85100  Biso   1.000  C
  C221     1.0000 0.00000  0.85100  0.55270  Biso   1.000  C
  C222     1.0000 0.85100  0.00000  0.55270  Biso   1.000  C
  C223     1.0000 0.85100  0.55270  0.00000  Biso   1.000  C
  C224     1.0000 0.85100  0.44730  0.00000  Biso   1.000  C
  C225     1.0000 0.88100  0.00000  0.50000  Biso   1.000  C
  C226     1.0000 0.11900  0.00000  0.50000  Biso   1.000  C
  C227     1.0000 0.11900  0.50000  0.00000  Biso   1.000  C
  C228     1.0000 0.00000  0.11900  0.50000  Biso   1.000  C
  C229     1.0000 0.00000  0.50000  0.88100  Biso   1.000  C
  C230     1.0000 0.00000  0.50000  0.11900  Biso   1.000  C
  C231     1.0000 0.00000  0.88100  0.50000  Biso   1.000  C
  C232     1.0000 0.50000  0.11900  0.00000  Biso   1.000  C
  C233     1.0000 0.50000  0.00000  0.11900  Biso   1.000  C
  C234     1.0000 0.50000  0.00000  0.88100  Biso   1.000  C
  C235     1.0000 0.50000  0.88100  0.00000  Biso   1.000  C
  C236     1.0000 0.88100  0.50000  0.00000  Biso   1.000  C
  O97      1.0000 0.00000  0.00000  0.00000  Biso   1.000  O
  O98      1.0000 0.10000  0.00000  0.00000  Biso   1.000  O
  O99      1.0000 0.90000  0.00000  0.00000  Biso   1.000  O
  O100     1.0000 0.00000  0.90000  0.00000  Biso   1.000  O
  O101     1.0000 0.00000  0.00000  0.10000  Biso   1.000  O
  O102     1.0000 0.00000  0.00000  0.90000  Biso   1.000  O
  O103     1.0000 0.00000  0.10000  0.00000  Biso   1.000  O
  O104     1.0000 0.30000  0.20000  0.00000  Biso   1.000  O
  O105     1.0000 0.70000  0.80000  0.00000  Biso   1.000  O
  O106     1.0000 0.70000  0.00000  0.80000  Biso   1.000  O
  O107     1.0000 0.70000  0.00000  0.20000  Biso   1.000  O
  O108     1.0000 0.70000  0.20000  0.00000  Biso   1.000  O
  O109     1.0000 0.80000  0.70000  0.00000  Biso   1.000  O
  O110     1.0000 0.80000  0.00000  0.30000  Biso   1.000  O
  O111     1.0000 0.80000  0.00000  0.70000  Biso   1.000  O
  O112     1.0000 0.80000  0.30000  0.00000  Biso   1.000  O
  O113     1.0000 0.00000  0.70000  0.20000  Biso   1.000  O
  O114     1.0000 0.00000  0.80000  0.70000  Biso   1.000  O
  O115     1.0000 0.00000  0.20000  0.30000  Biso   1.000  O
  O116     1.0000 0.00000  0.30000  0.80000  Biso   1.000  O
  O117     1.0000 0.00000  0.70000  0.80000  Biso   1.000  O
  O118     1.0000 0.00000  0.80000  0.30000  Biso   1.000  O
  O119     1.0000 0.00000  0.20000  0.70000  Biso   1.000  O
  O120     1.0000 0.00000  0.30000  0.20000  Biso   1.000  O
  O121     1.0000 0.20000  0.70000  0.00000  Biso   1.000  O
  O122     1.0000 0.20000  0.00000  0.70000  Biso   1.000  O
  O123     1.0000 0.20000  0.00000  0.30000  Biso   1.000  O
  O124     1.0000 0.20000  0.30000  0.00000  Biso   1.000  O
  O125     1.0000 0.30000  0.80000  0.00000  Biso   1.000  O
  O126     1.0000 0.30000  0.00000  0.20000  Biso   1.000  O
  O127     1.0000 0.30000  0.00000  0.80000  Biso   1.000  O
  O128     1.0000 0.30000  0.20000  0.10000  Biso   1.000  O
  O129     1.0000 0.70000  0.80000  0.10000  Biso   1.000  O
  O130     1.0000 0.70000  0.90000  0.80000  Biso   1.000  O
  O131     1.0000 0.70000  0.10000  0.20000  Biso   1.000  O
  O132     1.0000 0.70000  0.20000  0.90000  Biso   1.000  O
  O133     1.0000 0.80000  0.70000  0.90000  Biso   1.000  O
  O134     1.0000 0.80000  0.90000  0.30000  Biso   1.000  O
  O135     1.0000 0.80000  0.10000  0.70000  Biso   1.000  O
  O136     1.0000 0.80000  0.30000  0.10000  Biso   1.000  O
  O137     1.0000 0.90000  0.70000  0.20000  Biso   1.000  O
  O138     1.0000 0.90000  0.80000  0.70000  Biso   1.000  O
  O139     1.0000 0.90000  0.20000  0.30000  Biso   1.000  O
  O140     1.0000 0.90000  0.30000  0.80000  Biso   1.000  O
  O141     1.0000 0.10000  0.70000  0.80000  Biso   1.000  O
  O142     1.0000 0.10000  0.80000  0.30000  Biso   1.000  O
  O143     1.0000 0.10000  0.20000  0.70000  Biso   1.000  O
  O144     1.0000 0.10000  0.30000  0.20000  Biso   1.000  O
  O145     1.0000 0.20000  0.70000  0.10000  Biso   1.000  O
  O146     1.0000 0.20000  0.90000  0.70000  Biso   1.000  O
  O147     1.0000 0.20000  0.10000  0.30000  Biso   1.000  O
  O148     1.0000 0.20000  0.30000  0.90000  Biso   1.000  O
  O149     1.0000 0.30000  0.80000  0.90000  Biso   1.000  O
  O150     1.0000 0.30000  0.90000  0.20000  Biso   1.000  O
  O151     1.0000 0.30000  0.10000  0.80000  Biso   1.000  O
  O152     1.0000 0.70000  0.80000  0.90000  Biso   1.000  O
  O153     1.0000 0.30000  0.20000  0.90000  Biso   1.000  O
  O154     1.0000 0.30000  0.10000  0.20000  Biso   1.000  O
  O155     1.0000 0.30000  0.90000  0.80000  Biso   1.000  O
  O156     1.0000 0.30000  0.80000  0.10000  Biso   1.000  O
  O157     1.0000 0.20000  0.30000  0.10000  Biso   1.000  O
  O158     1.0000 0.20000  0.10000  0.70000  Biso   1.000  O
  O159     1.0000 0.20000  0.90000  0.30000  Biso   1.000  O
  O160     1.0000 0.20000  0.70000  0.90000  Biso   1.000  O
  O161     1.0000 0.10000  0.30000  0.80000  Biso   1.000  O
  O162     1.0000 0.10000  0.20000  0.30000  Biso   1.000  O
  O163     1.0000 0.10000  0.80000  0.70000  Biso   1.000  O
  O164     1.0000 0.10000  0.70000  0.20000  Biso   1.000  O
  O165     1.0000 0.90000  0.30000  0.20000  Biso   1.000  O
  O166     1.0000 0.90000  0.20000  0.70000  Biso   1.000  O
  O167     1.0000 0.90000  0.80000  0.30000  Biso   1.000  O
  O168     1.0000 0.90000  0.70000  0.80000  Biso   1.000  O
  O169     1.0000 0.80000  0.30000  0.90000  Biso   1.000  O
  O170     1.0000 0.80000  0.10000  0.30000  Biso   1.000  O
  O171     1.0000 0.80000  0.90000  0.70000  Biso   1.000  O
  O172     1.0000 0.80000  0.70000  0.10000  Biso   1.000  O
  O173     1.0000 0.70000  0.20000  0.10000  Biso   1.000  O
  O174     1.0000 0.70000  0.10000  0.80000  Biso   1.000  O
  O175     1.0000 0.70000  0.90000  0.20000  Biso   1.000  O
  O176     1.0000 0.40000  0.00000  0.00000  Biso   1.000  O
  O177     1.0000 0.60000  0.00000  0.00000  Biso   1.000  O
  O178     1.0000 0.00000  0.60000  0.00000  Biso   1.000  O
  O179     1.0000 0.00000  0.00000  0.40000  Biso   1.000  O
  O180     1.0000 0.00000  0.00000  0.60000  Biso   1.000  O
  O181     1.0000 0.00000  0.40000  0.00000  Biso   1.000  O
  O182     1.0000 0.40000  0.40000  0.40000  Biso   1.000  O
  O183     1.0000 0.60000  0.60000  0.40000  Biso   1.000  O
  O184     1.0000 0.60000  0.60000  0.60000  Biso   1.000  O
  O185     1.0000 0.60000  0.40000  0.40000  Biso   1.000  O
  O186     1.0000 0.60000  0.40000  0.60000  Biso   1.000  O
  O187     1.0000 0.40000  0.60000  0.60000  Biso   1.000  O
  O188     1.0000 0.40000  0.60000  0.40000  Biso   1.000  O
  O189     1.0000 0.40000  0.40000  0.60000  Biso   1.000  O
  O190     1.0000 0.50000  0.30000  0.10000  Biso   1.000  O
  O191     1.0000 0.50000  0.70000  0.10000  Biso   1.000  O
  O192     1.0000 0.50000  0.90000  0.70000  Biso   1.000  O
  O193     1.0000 0.50000  0.10000  0.30000  Biso   1.000  O
  O194     1.0000 0.50000  0.30000  0.90000  Biso   1.000  O
  O195     1.0000 0.70000  0.50000  0.90000  Biso   1.000  O
  O196     1.0000 0.70000  0.90000  0.50000  Biso   1.000  O
  O197     1.0000 0.70000  0.10000  0.50000  Biso   1.000  O
  O198     1.0000 0.70000  0.50000  0.10000  Biso   1.000  O
  O199     1.0000 0.90000  0.50000  0.30000  Biso   1.000  O
  O200     1.0000 0.90000  0.70000  0.50000  Biso   1.000  O
  O201     1.0000 0.90000  0.30000  0.50000  Biso   1.000  O
  O202     1.0000 0.90000  0.50000  0.70000  Biso   1.000  O
  O203     1.0000 0.10000  0.50000  0.70000  Biso   1.000  O
  O204     1.0000 0.10000  0.70000  0.50000  Biso   1.000  O
  O205     1.0000 0.10000  0.30000  0.50000  Biso   1.000  O
  O206     1.0000 0.10000  0.50000  0.30000  Biso   1.000  O
  O207     1.0000 0.30000  0.50000  0.10000  Biso   1.000  O
  O208     1.0000 0.30000  0.90000  0.50000  Biso   1.000  O
  O209     1.0000 0.30000  0.10000  0.50000  Biso   1.000  O
  O210     1.0000 0.30000  0.50000  0.90000  Biso   1.000  O
  O211     1.0000 0.50000  0.70000  0.90000  Biso   1.000  O
  O212     1.0000 0.50000  0.90000  0.30000  Biso   1.000  O
  O213     1.0000 0.50000  0.10000  0.70000  Biso   1.000  O
  O214     1.0000 0.50000  0.50000  0.40000  Biso   1.000  O
  O215     1.0000 0.50000  0.60000  0.50000  Biso   1.000  O
  O216     1.0000 0.50000  0.40000  0.50000  Biso   1.000  O
  O217     1.0000 0.50000  0.50000  0.60000  Biso   1.000  O
  O218     1.0000 0.60000  0.50000  0.50000  Biso   1.000  O
  O219     1.0000 0.40000  0.50000  0.50000  Biso   1.000  O
  O220     1.0000 0.20000  0.00000  0.00000  Biso   1.000  O
  O221     1.0000 0.80000  0.00000  0.00000  Biso   1.000  O
  O222     1.0000 0.00000  0.80000  0.00000  Biso   1.000  O
  O223     1.0000 0.00000  0.00000  0.20000  Biso   1.000  O
  O224     1.0000 0.00000  0.00000  0.80000  Biso   1.000  O
  O225     1.0000 0.00000  0.20000  0.00000  Biso   1.000  O
  O226     1.0000 0.30000  0.30000  0.00000  Biso   1.000  O
  O227     1.0000 0.70000  0.70000  0.00000  Biso   1.000  O
  O228     1.0000 0.70000  0.00000  0.70000  Biso   1.000  O
  O229     1.0000 0.70000  0.00000  0.30000  Biso   1.000  O
  O230     1.0000 0.70000  0.30000  0.00000  Biso   1.000  O
  O231     1.0000 0.00000  0.70000  0.30000  Biso   1.000  O
  O232     1.0000 0.00000  0.70000  0.70000  Biso   1.000  O
  O233     1.0000 0.00000  0.30000  0.30000  Biso   1.000  O
  O234     1.0000 0.00000  0.30000  0.70000  Biso   1.000  O
  O235     1.0000 0.30000  0.70000  0.00000  Biso   1.000  O
  O236     1.0000 0.30000  0.00000  0.70000  Biso   1.000  O
  O237     1.0000 0.30000  0.00000  0.30000  Biso   1.000  O
