data_image0
_cell_length_a       7.5117
_cell_length_b       9.5634
_cell_length_c       15.0694
_cell_angle_alpha    89.541
_cell_angle_beta     88.507
_cell_angle_gamma    69.655

_symmetry_space_group_name_H-M    "P 1"
_symmetry_int_tables_number       1

loop_
  _symmetry_equiv_pos_as_xyz
  'x, y, z'

loop_
  _atom_site_label
  _atom_site_occupancy
  _atom_site_fract_x
  _atom_site_fract_y
  _atom_site_fract_z
  _atom_site_thermal_displace_type
  _atom_site_B_iso_or_equiv
  _atom_site_type_symbol
  I1       1.0000 0.73869  0.87784  0.40035  Biso   1.000  I
  I2       1.0000 0.26131  0.12216  0.59965  Biso   1.000  I
  I3       1.0000 0.73468  0.89505  0.09893  Biso   1.000  I
  I4       1.0000 0.26532  0.10495  0.90107  Biso   1.000  I
  Cu1      1.0000 0.52799  0.87017  0.54132  Biso   1.000  Cu
  Cu2      1.0000 0.47201  0.12983  0.45868  Biso   1.000  Cu
  Cu3      1.0000 0.53949  0.86260  0.96418  Biso   1.000  Cu
  Cu4      1.0000 0.46051  0.13740  0.03582  Biso   1.000  Cu
  S1       1.0000 0.75970  0.80932  0.64854  Biso   1.000  S
  S2       1.0000 0.24030  0.19068  0.35146  Biso   1.000  S
  S3       1.0000 0.76902  0.79746  0.84972  Biso   1.000  S
  S4       1.0000 0.23098  0.20254  0.15028  Biso   1.000  S
  N1       1.0000 0.39090  0.72940  0.52880  Biso   1.000  N
  N2       1.0000 0.60910  0.27060  0.47120  Biso   1.000  N
  N3       1.0000 0.39940  0.72710  0.99476  Biso   1.000  N
  N4       1.0000 0.60060  0.27290  0.00524  Biso   1.000  N
  C1       1.0000 0.63260  0.79910  0.75135  Biso   1.000  C
  C2       1.0000 0.36740  0.20090  0.24865  Biso   1.000  C
  H1       1.0000 0.51207  0.88721  0.75470  Biso   1.000  H
  H2       1.0000 0.48793  0.11279  0.24530  Biso   1.000  H
  C3       1.0000 0.80200  0.98250  0.66608  Biso   1.000  C
  C4       1.0000 0.19800  0.01750  0.33392  Biso   1.000  C
  H3       1.0000 0.86839  0.00441  0.61305  Biso   1.000  H
  H4       1.0000 0.13161  0.99559  0.38695  Biso   1.000  H
  H5       1.0000 0.67865  0.06490  0.67346  Biso   1.000  H
  H6       1.0000 0.32135  0.93510  0.32654  Biso   1.000  H
  C5       1.0000 0.92060  0.97570  0.74740  Biso   1.000  C
  C6       1.0000 0.07940  0.02430  0.25260  Biso   1.000  C
  H7       1.0000 0.03728  0.88636  0.74292  Biso   1.000  H
  H8       1.0000 0.96272  0.11364  0.25708  Biso   1.000  H
  H9       1.0000 0.95971  0.06450  0.74775  Biso   1.000  H
  H10      1.0000 0.04029  0.93550  0.25225  Biso   1.000  H
  C7       1.0000 0.81700  0.96990  0.83418  Biso   1.000  C
  C8       1.0000 0.18300  0.03010  0.16582  Biso   1.000  C
  H11      1.0000 0.69506  0.05474  0.83636  Biso   1.000  H
  H12      1.0000 0.30494  0.94526  0.16364  Biso   1.000  H
  H13      1.0000 0.89407  0.98190  0.88388  Biso   1.000  H
  H14      1.0000 0.10593  0.01810  0.11612  Biso   1.000  H
  C9       1.0000 0.58400  0.65920  0.75055  Biso   1.000  C
  C10      1.0000 0.41600  0.34080  0.24945  Biso   1.000  C
  C11      1.0000 0.40300  0.66580  0.77620  Biso   1.000  C
  C12      1.0000 0.59700  0.33420  0.22380  Biso   1.000  C
  H15      1.0000 0.31177  0.75773  0.79556  Biso   1.000  H
  H16      1.0000 0.68823  0.24227  0.20444  Biso   1.000  H
  C13      1.0000 0.35400  0.53830  0.77360  Biso   1.000  C
  C14      1.0000 0.64600  0.46170  0.22640  Biso   1.000  C
  H17      1.0000 0.22840  0.54463  0.79000  Biso   1.000  H
  H18      1.0000 0.77160  0.45537  0.21000  Biso   1.000  H
  C15      1.0000 0.48360  0.40440  0.74800  Biso   1.000  C
  C16      1.0000 0.51640  0.59560  0.25200  Biso   1.000  C
  H19      1.0000 0.44968  0.31748  0.74790  Biso   1.000  H
  H20      1.0000 0.55032  0.68252  0.25210  Biso   1.000  H
  C17      1.0000 0.66410  0.39640  0.72220  Biso   1.000  C
  C18      1.0000 0.33590  0.60360  0.27780  Biso   1.000  C
  H21      1.0000 0.75382  0.30396  0.70251  Biso   1.000  H
  H22      1.0000 0.24618  0.69604  0.29749  Biso   1.000  H
  C19      1.0000 0.71650  0.52250  0.72470  Biso   1.000  C
  C20      1.0000 0.28350  0.47750  0.27530  Biso   1.000  C
  H23      1.0000 0.84261  0.51508  0.70867  Biso   1.000  H
  H24      1.0000 0.15739  0.48492  0.29133  Biso   1.000  H
  C21      1.0000 0.30300  0.65390  0.52660  Biso   1.000  C
  C22      1.0000 0.69700  0.34610  0.47340  Biso   1.000  C
  C23      1.0000 0.18930  0.55890  0.52420  Biso   1.000  C
  C24      1.0000 0.81070  0.44110  0.47580  Biso   1.000  C
  H25      1.0000 0.22311  0.49679  0.47068  Biso   1.000  H
  H26      1.0000 0.77689  0.50321  0.52932  Biso   1.000  H
  H27      1.0000 0.05448  0.62086  0.52339  Biso   1.000  H
  H28      1.0000 0.94552  0.37914  0.47661  Biso   1.000  H
  H29      1.0000 0.21349  0.49493  0.57687  Biso   1.000  H
  H30      1.0000 0.78651  0.50507  0.42313  Biso   1.000  H
  C25      1.0000 0.30680  0.65700  0.00920  Biso   1.000  C
  C26      1.0000 0.69320  0.34300  0.99080  Biso   1.000  C
  C27      1.0000 0.18950  0.56710  0.02480  Biso   1.000  C
  C28      1.0000 0.81050  0.43290  0.97520  Biso   1.000  C
  H31      1.0000 0.06204  0.61955  0.00260  Biso   1.000  H
  H32      1.0000 0.93796  0.38045  0.99740  Biso   1.000  H
  H33      1.0000 0.18101  0.54917  0.08865  Biso   1.000  H
  H34      1.0000 0.81899  0.45083  0.91135  Biso   1.000  H
  H35      1.0000 0.24580  0.47156  0.99378  Biso   1.000  H
  H36      1.0000 0.75420  0.52844  0.00622  Biso   1.000  H
