data_image0
_cell_length_a       7.4555
_cell_length_b       9.5687
_cell_length_c       15.0484
_cell_angle_alpha    89.488
_cell_angle_beta     88.327
_cell_angle_gamma    69.483

_symmetry_space_group_name_H-M    "P 1"
_symmetry_int_tables_number       1

loop_
  _symmetry_equiv_pos_as_xyz
  'x, y, z'

loop_
  _atom_site_label
  _atom_site_occupancy
  _atom_site_fract_x
  _atom_site_fract_y
  _atom_site_fract_z
  _atom_site_thermal_displace_type
  _atom_site_B_iso_or_equiv
  _atom_site_type_symbol
  I1       1.0000 0.74114  0.87542  0.40046  Biso   1.000  I
  I2       1.0000 0.25886  0.12458  0.59954  Biso   1.000  I
  I3       1.0000 0.73559  0.89611  0.09927  Biso   1.000  I
  I4       1.0000 0.26441  0.10389  0.90073  Biso   1.000  I
  Cu1      1.0000 0.54005  0.86223  0.96469  Biso   1.000  Cu
  Cu2      1.0000 0.45995  0.13777  0.03531  Biso   1.000  Cu
  Cu3      1.0000 0.52684  0.87127  0.54184  Biso   1.000  Cu
  Cu4      1.0000 0.47316  0.12873  0.45816  Biso   1.000  Cu
  S1       1.0000 0.77152  0.79637  0.84996  Biso   1.000  S
  S2       1.0000 0.22848  0.20363  0.15004  Biso   1.000  S
  S3       1.0000 0.76052  0.81086  0.64846  Biso   1.000  S
  S4       1.0000 0.23948  0.18914  0.35154  Biso   1.000  S
  N1       1.0000 0.39910  0.72784  0.99737  Biso   1.000  N
  N2       1.0000 0.60090  0.27216  0.00263  Biso   1.000  N
  C1       1.0000 0.63340  0.79888  0.75142  Biso   1.000  C
  C2       1.0000 0.36660  0.20112  0.24858  Biso   1.000  C
  H1       1.0000 0.51135  0.88677  0.75531  Biso   1.000  H
  H2       1.0000 0.48865  0.11323  0.24469  Biso   1.000  H
  N3       1.0000 0.38920  0.73008  0.53102  Biso   1.000  N
  N4       1.0000 0.61080  0.26992  0.46898  Biso   1.000  N
  C3       1.0000 0.71780  0.52300  0.72147  Biso   1.000  C
  C4       1.0000 0.28220  0.47700  0.27853  Biso   1.000  C
  H3       1.0000 0.84353  0.51670  0.70329  Biso   1.000  H
  H4       1.0000 0.15647  0.48330  0.29671  Biso   1.000  H
  C5       1.0000 0.40440  0.66420  0.77917  Biso   1.000  C
  C6       1.0000 0.59560  0.33580  0.22083  Biso   1.000  C
  H5       1.0000 0.31337  0.75570  0.80014  Biso   1.000  H
  H6       1.0000 0.68663  0.24430  0.19986  Biso   1.000  H
  C7       1.0000 0.58540  0.65851  0.75040  Biso   1.000  C
  C8       1.0000 0.41460  0.34149  0.24960  Biso   1.000  C
  C9       1.0000 0.81850  0.96960  0.83499  Biso   1.000  C
  C10      1.0000 0.18150  0.03040  0.16501  Biso   1.000  C
  H7       1.0000 0.69522  0.05434  0.83767  Biso   1.000  H
  H8       1.0000 0.30478  0.94566  0.16233  Biso   1.000  H
  H9       1.0000 0.89641  0.98115  0.88466  Biso   1.000  H
  H10      1.0000 0.10359  0.01885  0.11534  Biso   1.000  H
  C11      1.0000 0.80190  0.98382  0.66660  Biso   1.000  C
  C12      1.0000 0.19810  0.01618  0.33340  Biso   1.000  C
  H11      1.0000 0.86755  0.00675  0.61330  Biso   1.000  H
  H12      1.0000 0.13245  0.99325  0.38670  Biso   1.000  H
  H13      1.0000 0.67710  0.06585  0.67479  Biso   1.000  H
  H14      1.0000 0.32290  0.93415  0.32521  Biso   1.000  H
  C13      1.0000 0.19130  0.56520  0.03060  Biso   1.000  C
  C14      1.0000 0.80870  0.43480  0.96940  Biso   1.000  C
  H15      1.0000 0.21218  0.52582  0.09123  Biso   1.000  H
  H16      1.0000 0.78782  0.47418  0.90877  Biso   1.000  H
  H17      1.0000 0.22737  0.48208  0.98818  Biso   1.000  H
  H18      1.0000 0.77263  0.51792  0.01182  Biso   1.000  H
  H19      1.0000 0.05573  0.62574  0.02422  Biso   1.000  H
  H20      1.0000 0.94427  0.37426  0.97578  Biso   1.000  H
  C15      1.0000 0.30170  0.65340  0.52947  Biso   1.000  C
  C16      1.0000 0.69830  0.34660  0.47053  Biso   1.000  C
  C17      1.0000 0.30740  0.65660  0.01294  Biso   1.000  C
  C18      1.0000 0.69260  0.34340  0.98706  Biso   1.000  C
  C19      1.0000 0.18930  0.55680  0.52726  Biso   1.000  C
  C20      1.0000 0.81070  0.44320  0.47274  Biso   1.000  C
  H21      1.0000 0.19684  0.50572  0.58451  Biso   1.000  H
  H22      1.0000 0.80316  0.49428  0.41549  Biso   1.000  H
  H23      1.0000 0.23971  0.48274  0.47980  Biso   1.000  H
  H24      1.0000 0.76029  0.51726  0.52020  Biso   1.000  H
  H25      1.0000 0.05549  0.61671  0.51599  Biso   1.000  H
  H26      1.0000 0.94451  0.38329  0.48401  Biso   1.000  H
  C21      1.0000 0.92280  0.97640  0.74750  Biso   1.000  C
  C22      1.0000 0.07720  0.02360  0.25250  Biso   1.000  C
  H27      1.0000 0.04077  0.88713  0.74247  Biso   1.000  H
  H28      1.0000 0.95923  0.11287  0.25753  Biso   1.000  H
  H29      1.0000 0.96153  0.06537  0.74793  Biso   1.000  H
  H30      1.0000 0.03847  0.93463  0.25207  Biso   1.000  H
  C23      1.0000 0.66670  0.39630  0.71908  Biso   1.000  C
  C24      1.0000 0.33330  0.60370  0.28092  Biso   1.000  C
  H31      1.0000 0.75693  0.30472  0.69785  Biso   1.000  H
  H32      1.0000 0.24307  0.69528  0.30215  Biso   1.000  H
  C25      1.0000 0.35530  0.53650  0.77747  Biso   1.000  C
  C26      1.0000 0.64470  0.46350  0.22253  Biso   1.000  C
  H33      1.0000 0.23105  0.54156  0.79725  Biso   1.000  H
  H34      1.0000 0.76895  0.45844  0.20275  Biso   1.000  H
  C27      1.0000 0.48620  0.40270  0.74722  Biso   1.000  C
  C28      1.0000 0.51380  0.59730  0.25278  Biso   1.000  C
  H35      1.0000 0.45229  0.31583  0.74581  Biso   1.000  H
  H36      1.0000 0.54771  0.68417  0.25419  Biso   1.000  H
