data_image0
_cell_length_a       7.4301
_cell_length_b       9.5709
_cell_length_c       15.0323
_cell_angle_alpha    89.493
_cell_angle_beta     88.344
_cell_angle_gamma    69.323

_symmetry_space_group_name_H-M    "P 1"
_symmetry_int_tables_number       1

loop_
  _symmetry_equiv_pos_as_xyz
  'x, y, z'

loop_
  _atom_site_label
  _atom_site_occupancy
  _atom_site_fract_x
  _atom_site_fract_y
  _atom_site_fract_z
  _atom_site_thermal_displace_type
  _atom_site_B_iso_or_equiv
  _atom_site_type_symbol
  I1       1.0000 0.74240  0.87431  0.90030  Biso   1.000  I
  I2       1.0000 0.25760  0.12569  0.09970  Biso   1.000  I
  I3       1.0000 0.73603  0.89602  0.59985  Biso   1.000  I
  I4       1.0000 0.26397  0.10398  0.40015  Biso   1.000  I
  Cu1      1.0000 0.52673  0.87172  0.04203  Biso   1.000  Cu
  Cu2      1.0000 0.47327  0.12828  0.95797  Biso   1.000  Cu
  Cu3      1.0000 0.54018  0.86217  0.46483  Biso   1.000  Cu
  Cu4      1.0000 0.45982  0.13783  0.53517  Biso   1.000  Cu
  S1       1.0000 0.76199  0.81142  0.14841  Biso   1.000  S
  S2       1.0000 0.23801  0.18858  0.85159  Biso   1.000  S
  S3       1.0000 0.77340  0.79591  0.35029  Biso   1.000  S
  S4       1.0000 0.22660  0.20409  0.64971  Biso   1.000  S
  N1       1.0000 0.38876  0.73069  0.03168  Biso   1.000  N
  N2       1.0000 0.61124  0.26931  0.96832  Biso   1.000  N
  N3       1.0000 0.39852  0.72830  0.49814  Biso   1.000  N
  N4       1.0000 0.60148  0.27170  0.50186  Biso   1.000  N
  C1       1.0000 0.63447  0.79893  0.25143  Biso   1.000  C
  C2       1.0000 0.36553  0.20107  0.74857  Biso   1.000  C
  H1       1.0000 0.51172  0.88692  0.25544  Biso   1.000  H
  H2       1.0000 0.48828  0.11308  0.74456  Biso   1.000  H
  C3       1.0000 0.80248  0.98494  0.16695  Biso   1.000  C
  C4       1.0000 0.19752  0.01506  0.83305  Biso   1.000  C
  H3       1.0000 0.86824  0.00819  0.11370  Biso   1.000  H
  H4       1.0000 0.13176  0.99181  0.88630  Biso   1.000  H
  H5       1.0000 0.67683  0.06689  0.17519  Biso   1.000  H
  H6       1.0000 0.32317  0.93311  0.82481  Biso   1.000  H
  C5       1.0000 0.92370  0.97739  0.24806  Biso   1.000  C
  C6       1.0000 0.07630  0.02261  0.75194  Biso   1.000  C
  H7       1.0000 0.04283  0.88839  0.24277  Biso   1.000  H
  H8       1.0000 0.95717  0.11161  0.75723  Biso   1.000  H
  H9       1.0000 0.96155  0.06671  0.24876  Biso   1.000  H
  H10      1.0000 0.03845  0.93329  0.75124  Biso   1.000  H
  C7       1.0000 0.82002  0.96938  0.33571  Biso   1.000  C
  C8       1.0000 0.17998  0.03062  0.66429  Biso   1.000  C
  H11      1.0000 0.69603  0.05422  0.33886  Biso   1.000  H
  H12      1.0000 0.30397  0.94578  0.66114  Biso   1.000  H
  H13      1.0000 0.89869  0.98035  0.38537  Biso   1.000  H
  H14      1.0000 0.10131  0.01965  0.61463  Biso   1.000  H
  C9       1.0000 0.58667  0.65825  0.25026  Biso   1.000  C
  C10      1.0000 0.41333  0.34175  0.74974  Biso   1.000  C
  C11      1.0000 0.40562  0.66319  0.28064  Biso   1.000  C
  C12      1.0000 0.59438  0.33681  0.71936  Biso   1.000  C
  H15      1.0000 0.31477  0.75437  0.30262  Biso   1.000  H
  H16      1.0000 0.68523  0.24563  0.69738  Biso   1.000  H
  C13      1.0000 0.35660  0.53544  0.27904  Biso   1.000  C
  C14      1.0000 0.64340  0.46456  0.72096  Biso   1.000  C
  H17      1.0000 0.23296  0.53993  0.30014  Biso   1.000  H
  H18      1.0000 0.76704  0.46007  0.69986  Biso   1.000  H
  C15      1.0000 0.48800  0.40148  0.24670  Biso   1.000  C
  C16      1.0000 0.51200  0.59852  0.75330  Biso   1.000  C
  H19      1.0000 0.45402  0.31477  0.24485  Biso   1.000  H
  H20      1.0000 0.54598  0.68523  0.75515  Biso   1.000  H
  C17      1.0000 0.66950  0.39549  0.21713  Biso   1.000  C
  C18      1.0000 0.33050  0.60451  0.78287  Biso   1.000  C
  H21      1.0000 0.75990  0.30416  0.19512  Biso   1.000  H
  H22      1.0000 0.24010  0.69584  0.80488  Biso   1.000  H
  C19      1.0000 0.71970  0.52263  0.21955  Biso   1.000  C
  C20      1.0000 0.28030  0.47737  0.78045  Biso   1.000  C
  H23      1.0000 0.84496  0.51705  0.20024  Biso   1.000  H
  H24      1.0000 0.15504  0.48295  0.79976  Biso   1.000  H
  C21      1.0000 0.30124  0.65297  0.03035  Biso   1.000  C
  C22      1.0000 0.69876  0.34703  0.96965  Biso   1.000  C
  C23      1.0000 0.18960  0.55575  0.02810  Biso   1.000  C
  C24      1.0000 0.81040  0.44425  0.97190  Biso   1.000  C
  H25      1.0000 0.24378  0.47942  0.98203  Biso   1.000  H
  H26      1.0000 0.75622  0.52058  0.01797  Biso   1.000  H
  H27      1.0000 0.05593  0.61477  0.01463  Biso   1.000  H
  H28      1.0000 0.94407  0.38523  0.98537  Biso   1.000  H
  H29      1.0000 0.19379  0.50735  0.08612  Biso   1.000  H
  H30      1.0000 0.80621  0.49265  0.91388  Biso   1.000  H
  C25      1.0000 0.30775  0.65611  0.51431  Biso   1.000  C
  C26      1.0000 0.69225  0.34389  0.48569  Biso   1.000  C
  C27      1.0000 0.19240  0.56390  0.53305  Biso   1.000  C
  C28      1.0000 0.80760  0.43610  0.46695  Biso   1.000  C
  H31      1.0000 0.22181  0.48476  0.48816  Biso   1.000  H
  H32      1.0000 0.77819  0.51524  0.51184  Biso   1.000  H
  H33      1.0000 0.05560  0.62569  0.53147  Biso   1.000  H
  H34      1.0000 0.94440  0.37431  0.46853  Biso   1.000  H
  H35      1.0000 0.22202  0.51901  0.59216  Biso   1.000  H
  H36      1.0000 0.77798  0.48099  0.40784  Biso   1.000  H
