data_image0
_cell_length_a       7.6021
_cell_length_b       15.1124
_cell_length_c       9.5457
_cell_angle_alpha    90
_cell_angle_beta     109.985
_cell_angle_gamma    90

_symmetry_space_group_name_H-M    "P 1"
_symmetry_int_tables_number       1

loop_
  _symmetry_equiv_pos_as_xyz
  'x, y, z'

loop_
  _atom_site_label
  _atom_site_occupancy
  _atom_site_fract_x
  _atom_site_fract_y
  _atom_site_fract_z
  _atom_site_thermal_displace_type
  _atom_site_B_iso_or_equiv
  _atom_site_type_symbol
  S1       1.0000 0.23805  0.35027  0.80315  Biso   1.000  S
  S2       1.0000 0.76195  0.85027  0.19685  Biso   1.000  S
  S3       1.0000 0.76195  0.64973  0.19685  Biso   1.000  S
  S4       1.0000 0.23805  0.14973  0.80315  Biso   1.000  S
  C1       1.0000 0.36770  0.25000  0.79930  Biso   1.000  C
  C2       1.0000 0.63230  0.75000  0.20070  Biso   1.000  C
  H1       1.0000 0.48330  0.25000  0.88600  Biso   1.000  H
  H2       1.0000 0.51670  0.75000  0.11400  Biso   1.000  H
  C3       1.0000 0.19170  0.33368  0.97570  Biso   1.000  C
  C4       1.0000 0.80830  0.83368  0.02430  Biso   1.000  C
  C5       1.0000 0.80830  0.66632  0.02430  Biso   1.000  C
  C6       1.0000 0.19170  0.16632  0.97570  Biso   1.000  C
  H3       1.0000 0.30975  0.33125  0.05787  Biso   1.000  H
  H4       1.0000 0.69025  0.83125  0.94213  Biso   1.000  H
  H5       1.0000 0.69025  0.66875  0.94213  Biso   1.000  H
  H6       1.0000 0.30975  0.16875  0.05787  Biso   1.000  H
  H7       1.0000 0.12173  0.38392  0.99216  Biso   1.000  H
  H8       1.0000 0.87827  0.88392  0.00784  Biso   1.000  H
  H9       1.0000 0.87827  0.61608  0.00784  Biso   1.000  H
  H10      1.0000 0.12173  0.11608  0.99216  Biso   1.000  H
  C7       1.0000 0.08280  0.25000  0.97500  Biso   1.000  C
  C8       1.0000 0.91720  0.75000  0.02500  Biso   1.000  C
  H11      1.0000 0.04401  0.25000  0.06182  Biso   1.000  H
  H12      1.0000 0.95599  0.75000  0.93818  Biso   1.000  H
  H13      1.0000 0.97063  0.25000  0.88723  Biso   1.000  H
  H14      1.0000 0.02937  0.75000  0.11277  Biso   1.000  H
  C9       1.0000 0.41850  0.25000  0.66020  Biso   1.000  C
  C10      1.0000 0.58150  0.75000  0.33980  Biso   1.000  C
  C11      1.0000 0.28680  0.25000  0.52160  Biso   1.000  C
  C12      1.0000 0.71320  0.75000  0.47840  Biso   1.000  C
  H15      1.0000 0.16040  0.25000  0.51052  Biso   1.000  H
  H16      1.0000 0.83960  0.75000  0.48948  Biso   1.000  H
  C13      1.0000 0.34060  0.25000  0.39670  Biso   1.000  C
  C14      1.0000 0.65940  0.75000  0.60330  Biso   1.000  C
  H17      1.0000 0.24903  0.25000  0.30252  Biso   1.000  H
  H18      1.0000 0.75097  0.75000  0.69748  Biso   1.000  H
  C15      1.0000 0.52140  0.25000  0.40820  Biso   1.000  C
  C16      1.0000 0.47860  0.75000  0.59180  Biso   1.000  C
  H19      1.0000 0.55609  0.25000  0.32370  Biso   1.000  H
  H20      1.0000 0.44391  0.75000  0.67630  Biso   1.000  H
  C17      1.0000 0.64780  0.25000  0.54210  Biso   1.000  C
  C18      1.0000 0.35220  0.75000  0.45790  Biso   1.000  C
  H21      1.0000 0.77395  0.25000  0.55249  Biso   1.000  H
  H22      1.0000 0.22605  0.75000  0.44751  Biso   1.000  H
  C19      1.0000 0.59730  0.25000  0.66860  Biso   1.000  C
  C20      1.0000 0.40270  0.75000  0.33140  Biso   1.000  C
  H23      1.0000 0.69063  0.25000  0.76195  Biso   1.000  H
  H24      1.0000 0.30937  0.75000  0.23805  Biso   1.000  H
  N1       1.0000 0.60230  0.48226  0.72600  Biso   1.000  N
  N2       1.0000 0.39770  0.98226  0.27400  Biso   1.000  N
  N3       1.0000 0.39770  0.51774  0.27400  Biso   1.000  N
  N4       1.0000 0.60230  0.01774  0.72600  Biso   1.000  N
  C21      1.0000 0.69440  0.48940  0.65600  Biso   1.000  C
  C22      1.0000 0.30560  0.98940  0.34400  Biso   1.000  C
  C23      1.0000 0.30560  0.51060  0.34400  Biso   1.000  C
  C24      1.0000 0.69440  0.01060  0.65600  Biso   1.000  C
  C25      1.0000 0.81410  0.49580  0.56620  Biso   1.000  C
  C26      1.0000 0.18590  0.99580  0.43380  Biso   1.000  C
  C27      1.0000 0.18590  0.50420  0.43380  Biso   1.000  C
  C28      1.0000 0.81410  0.00420  0.56620  Biso   1.000  C
  H25      1.0000 0.77171  0.45499  0.48437  Biso   1.000  H
  H26      1.0000 0.22829  0.95499  0.51563  Biso   1.000  H
  H27      1.0000 0.22829  0.54501  0.51563  Biso   1.000  H
  H28      1.0000 0.77171  0.04501  0.48437  Biso   1.000  H
  H29      1.0000 0.94056  0.48167  0.62633  Biso   1.000  H
  H30      1.0000 0.05944  0.98167  0.37367  Biso   1.000  H
  H31      1.0000 0.05944  0.51833  0.37367  Biso   1.000  H
  H32      1.0000 0.94056  0.01833  0.62633  Biso   1.000  H
  H33      1.0000 0.80935  0.55494  0.52836  Biso   1.000  H
  H34      1.0000 0.19065  0.05494  0.47164  Biso   1.000  H
  H35      1.0000 0.19065  0.44506  0.47164  Biso   1.000  H
  H36      1.0000 0.80935  0.94506  0.52836  Biso   1.000  H
  I1       1.0000 0.26694  0.59913  0.88748  Biso   1.000  I
  I2       1.0000 0.73306  0.09913  0.11252  Biso   1.000  I
  I3       1.0000 0.73306  0.40087  0.11252  Biso   1.000  I
  I4       1.0000 0.26694  0.90087  0.88748  Biso   1.000  I
  Cu1      1.0000 0.46504  0.46138  0.86566  Biso   1.000  Cu
  Cu2      1.0000 0.53496  0.96138  0.13434  Biso   1.000  Cu
  Cu3      1.0000 0.53496  0.53862  0.13434  Biso   1.000  Cu
  Cu4      1.0000 0.46504  0.03862  0.86566  Biso   1.000  Cu
