data_image0
_cell_length_a       11.237
_cell_length_b       21.63
_cell_length_c       7.723
_cell_angle_alpha    90
_cell_angle_beta     107.315
_cell_angle_gamma    90

_symmetry_space_group_name_H-M    "P 1"
_symmetry_int_tables_number       1

loop_
  _symmetry_equiv_pos_as_xyz
  'x, y, z'

loop_
  _atom_site_label
  _atom_site_occupancy
  _atom_site_fract_x
  _atom_site_fract_y
  _atom_site_fract_z
  _atom_site_thermal_displace_type
  _atom_site_B_iso_or_equiv
  _atom_site_type_symbol
  Cu1      1.0000 0.25515  0.31730  0.25217  Biso   1.000  Cu
  Cu2      1.0000 0.74485  0.81730  0.24783  Biso   1.000  Cu
  Cu3      1.0000 0.74485  0.68270  0.74783  Biso   1.000  Cu
  Cu4      1.0000 0.25515  0.18270  0.75217  Biso   1.000  Cu
  Cu5      1.0000 0.01932  0.26278  0.92484  Biso   1.000  Cu
  Cu6      1.0000 0.98068  0.76278  0.57516  Biso   1.000  Cu
  Cu7      1.0000 0.98068  0.73722  0.07516  Biso   1.000  Cu
  Cu8      1.0000 0.01932  0.23722  0.42484  Biso   1.000  Cu
  Cu9      1.0000 0.97067  0.34648  0.18974  Biso   1.000  Cu
  Cu10     1.0000 0.02933  0.84648  0.31026  Biso   1.000  Cu
  Cu11     1.0000 0.02933  0.65352  0.81026  Biso   1.000  Cu
  Cu12     1.0000 0.97067  0.15352  0.68974  Biso   1.000  Cu
  Br1      1.0000 0.09423  0.37114  0.98253  Biso   1.000  Br
  Br2      1.0000 0.90577  0.87114  0.51747  Biso   1.000  Br
  Br3      1.0000 0.90577  0.62886  0.01747  Biso   1.000  Br
  Br4      1.0000 0.09423  0.12886  0.48253  Biso   1.000  Br
  Br5      1.0000 0.87370  0.25584  0.61430  Biso   1.000  Br
  Br6      1.0000 0.12630  0.75584  0.88570  Biso   1.000  Br
  Br7      1.0000 0.12630  0.74416  0.38570  Biso   1.000  Br
  Br8      1.0000 0.87370  0.24416  0.11430  Biso   1.000  Br
  Br9      1.0000 0.19039  0.31307  0.51083  Biso   1.000  Br
  Br10     1.0000 0.80961  0.81307  0.98917  Biso   1.000  Br
  Br11     1.0000 0.80961  0.68693  0.48917  Biso   1.000  Br
  Br12     1.0000 0.19039  0.18693  0.01083  Biso   1.000  Br
  N1       1.0000 0.40940  0.32000  0.18620  Biso   1.000  N
  N2       1.0000 0.59060  0.82000  0.31380  Biso   1.000  N
  N3       1.0000 0.59060  0.68000  0.81380  Biso   1.000  N
  N4       1.0000 0.40940  0.18000  0.68620  Biso   1.000  N
  N5       1.0000 0.53140  0.32471  0.01150  Biso   1.000  N
  N6       1.0000 0.46860  0.82471  0.48850  Biso   1.000  N
  N7       1.0000 0.46860  0.67529  0.98850  Biso   1.000  N
  N8       1.0000 0.53140  0.17529  0.51150  Biso   1.000  N
  N9       1.0000 0.90220  0.41283  0.30440  Biso   1.000  N
  N10      1.0000 0.09780  0.91283  0.19560  Biso   1.000  N
  N11      1.0000 0.09780  0.58717  0.69560  Biso   1.000  N
  N12      1.0000 0.90220  0.08717  0.80440  Biso   1.000  N
  N13      1.0000 0.86100  0.46832  0.51730  Biso   1.000  N
  N14      1.0000 0.13900  0.96832  0.98270  Biso   1.000  N
  N15      1.0000 0.13900  0.53168  0.48270  Biso   1.000  N
  N16      1.0000 0.86100  0.03168  0.01730  Biso   1.000  N
  C1       1.0000 0.41440  0.31720  0.01880  Biso   1.000  C
  C2       1.0000 0.58560  0.81720  0.48120  Biso   1.000  C
  C3       1.0000 0.58560  0.68280  0.98120  Biso   1.000  C
  C4       1.0000 0.41440  0.18280  0.51880  Biso   1.000  C
  C5       1.0000 0.53030  0.32940  0.29350  Biso   1.000  C
  C6       1.0000 0.46970  0.82940  0.20650  Biso   1.000  C
  C7       1.0000 0.46970  0.67060  0.70650  Biso   1.000  C
  C8       1.0000 0.53030  0.17060  0.79350  Biso   1.000  C
  H1       1.0000 0.55580  0.33280  0.41930  Biso   1.000  H
  H2       1.0000 0.44420  0.83280  0.08070  Biso   1.000  H
  H3       1.0000 0.44420  0.66720  0.58070  Biso   1.000  H
  H4       1.0000 0.55580  0.16720  0.91930  Biso   1.000  H
  C9       1.0000 0.60540  0.33290  0.18640  Biso   1.000  C
  C10      1.0000 0.39460  0.83290  0.31360  Biso   1.000  C
  C11      1.0000 0.39460  0.66710  0.81360  Biso   1.000  C
  C12      1.0000 0.60540  0.16710  0.68640  Biso   1.000  C
  C13      1.0000 0.56900  0.32900  0.84690  Biso   1.000  C
  C14      1.0000 0.43100  0.82900  0.65310  Biso   1.000  C
  C15      1.0000 0.43100  0.67100  0.15310  Biso   1.000  C
  C16      1.0000 0.56900  0.17100  0.34690  Biso   1.000  C
  C17      1.0000 0.59550  0.39476  0.80180  Biso   1.000  C
  C18      1.0000 0.40450  0.89476  0.69820  Biso   1.000  C
  C19      1.0000 0.40450  0.60524  0.19820  Biso   1.000  C
  C20      1.0000 0.59550  0.10524  0.30180  Biso   1.000  C
  C21      1.0000 0.51030  0.44160  0.80050  Biso   1.000  C
  C22      1.0000 0.48970  0.94160  0.69950  Biso   1.000  C
  C23      1.0000 0.48970  0.55840  0.19950  Biso   1.000  C
  C24      1.0000 0.51030  0.05840  0.30050  Biso   1.000  C
  C25      1.0000 0.53340  0.50130  0.76210  Biso   1.000  C
  C26      1.0000 0.46660  0.00130  0.73790  Biso   1.000  C
  C27      1.0000 0.46660  0.49870  0.23790  Biso   1.000  C
  C28      1.0000 0.53340  0.99870  0.26210  Biso   1.000  C
  C29      1.0000 0.64310  0.51590  0.72330  Biso   1.000  C
  C30      1.0000 0.35690  0.01590  0.77670  Biso   1.000  C
  C31      1.0000 0.35690  0.48410  0.27670  Biso   1.000  C
  C32      1.0000 0.64310  0.98410  0.22330  Biso   1.000  C
  C33      1.0000 0.73030  0.47030  0.72620  Biso   1.000  C
  C34      1.0000 0.26970  0.97030  0.77380  Biso   1.000  C
  C35      1.0000 0.26970  0.52970  0.27380  Biso   1.000  C
  C36      1.0000 0.73030  0.02970  0.22620  Biso   1.000  C
  C37      1.0000 0.70500  0.40974  0.76510  Biso   1.000  C
  C38      1.0000 0.29500  0.90974  0.73490  Biso   1.000  C
  C39      1.0000 0.29500  0.59026  0.23490  Biso   1.000  C
  C40      1.0000 0.70500  0.09026  0.26510  Biso   1.000  C
  C41      1.0000 0.91190  0.41635  0.47740  Biso   1.000  C
  C42      1.0000 0.08810  0.91635  0.02260  Biso   1.000  C
  C43      1.0000 0.08810  0.58365  0.52260  Biso   1.000  C
  C44      1.0000 0.91190  0.08365  0.97740  Biso   1.000  C
  C45      1.0000 0.84230  0.46550  0.22750  Biso   1.000  C
  C46      1.0000 0.15770  0.96550  0.27250  Biso   1.000  C
  C47      1.0000 0.15770  0.53450  0.77250  Biso   1.000  C
  C48      1.0000 0.84230  0.03450  0.72750  Biso   1.000  C
  C49      1.0000 0.81600  0.50020  0.35790  Biso   1.000  C
  C50      1.0000 0.18400  0.00020  0.14210  Biso   1.000  C
  C51      1.0000 0.18400  0.49980  0.64210  Biso   1.000  C
  C52      1.0000 0.81600  0.99980  0.85790  Biso   1.000  C
  C53      1.0000 0.85240  0.48690  0.69490  Biso   1.000  C
  C54      1.0000 0.14760  0.98690  0.80510  Biso   1.000  C
  C55      1.0000 0.14760  0.51310  0.30510  Biso   1.000  C
  C56      1.0000 0.85240  0.01310  0.19490  Biso   1.000  C
  H5       1.0000 0.32900  0.31000  0.89900  Biso   1.000  H
  H6       1.0000 0.67100  0.81000  0.60100  Biso   1.000  H
  H7       1.0000 0.67100  0.69000  0.10100  Biso   1.000  H
  H8       1.0000 0.32900  0.19000  0.39900  Biso   1.000  H
  H9       1.0000 0.68900  0.33900  0.20700  Biso   1.000  H
  H10      1.0000 0.31100  0.83900  0.29300  Biso   1.000  H
  H11      1.0000 0.31100  0.66100  0.79300  Biso   1.000  H
  H12      1.0000 0.68900  0.16100  0.70700  Biso   1.000  H
  H13      1.0000 0.50300  0.31500  0.74300  Biso   1.000  H
  H14      1.0000 0.49700  0.81500  0.75700  Biso   1.000  H
  H15      1.0000 0.49700  0.68500  0.25700  Biso   1.000  H
  H16      1.0000 0.50300  0.18500  0.24300  Biso   1.000  H
  H17      1.0000 0.63500  0.30200  0.85500  Biso   1.000  H
  H18      1.0000 0.36500  0.80200  0.64500  Biso   1.000  H
  H19      1.0000 0.36500  0.69800  0.14500  Biso   1.000  H
  H20      1.0000 0.63500  0.19800  0.35500  Biso   1.000  H
  H21      1.0000 0.44800  0.43500  0.81700  Biso   1.000  H
  H22      1.0000 0.55200  0.93500  0.68300  Biso   1.000  H
  H23      1.0000 0.55200  0.56500  0.18300  Biso   1.000  H
  H24      1.0000 0.44800  0.06500  0.31700  Biso   1.000  H
  H25      1.0000 0.46300  0.53200  0.74400  Biso   1.000  H
  H26      1.0000 0.53700  0.03200  0.75600  Biso   1.000  H
  H27      1.0000 0.53700  0.46800  0.25600  Biso   1.000  H
  H28      1.0000 0.46300  0.96800  0.24400  Biso   1.000  H
  H29      1.0000 0.66600  0.56000  0.69100  Biso   1.000  H
  H30      1.0000 0.33400  0.06000  0.80900  Biso   1.000  H
  H31      1.0000 0.33400  0.44000  0.30900  Biso   1.000  H
  H32      1.0000 0.66600  0.94000  0.19100  Biso   1.000  H
  H33      1.0000 0.77200  0.37800  0.78900  Biso   1.000  H
  H34      1.0000 0.22800  0.87800  0.71100  Biso   1.000  H
  H35      1.0000 0.22800  0.62200  0.21100  Biso   1.000  H
  H36      1.0000 0.77200  0.12200  0.28900  Biso   1.000  H
  H37      1.0000 0.95200  0.38700  0.57000  Biso   1.000  H
  H38      1.0000 0.04800  0.88700  0.93000  Biso   1.000  H
  H39      1.0000 0.04800  0.61300  0.43000  Biso   1.000  H
  H40      1.0000 0.95200  0.11300  0.07000  Biso   1.000  H
  H41      1.0000 0.80900  0.47700  0.09000  Biso   1.000  H
  H42      1.0000 0.19100  0.97700  0.41000  Biso   1.000  H
  H43      1.0000 0.19100  0.52300  0.91000  Biso   1.000  H
  H44      1.0000 0.80900  0.02300  0.59000  Biso   1.000  H
  H45      1.0000 0.77900  0.54100  0.34500  Biso   1.000  H
  H46      1.0000 0.22100  0.04100  0.15500  Biso   1.000  H
  H47      1.0000 0.22100  0.45900  0.65500  Biso   1.000  H
  H48      1.0000 0.77900  0.95900  0.84500  Biso   1.000  H
  H49      1.0000 0.92000  0.46400  0.80000  Biso   1.000  H
  H50      1.0000 0.08000  0.96400  0.70000  Biso   1.000  H
  H51      1.0000 0.08000  0.53600  0.20000  Biso   1.000  H
  H52      1.0000 0.92000  0.03600  0.30000  Biso   1.000  H
  H53      1.0000 0.87000  0.52400  0.70600  Biso   1.000  H
  H54      1.0000 0.13000  0.02400  0.79400  Biso   1.000  H
  H55      1.0000 0.13000  0.47600  0.29400  Biso   1.000  H
  H56      1.0000 0.87000  0.97600  0.20600  Biso   1.000  H
