data_image0
_cell_length_a       18.5436
_cell_length_b       7.8336
_cell_length_c       20.7864
_cell_angle_alpha    90
_cell_angle_beta     104.379
_cell_angle_gamma    90

_symmetry_space_group_name_H-M    "P 1"
_symmetry_int_tables_number       1

loop_
  _symmetry_equiv_pos_as_xyz
  'x, y, z'

loop_
  _atom_site_label
  _atom_site_occupancy
  _atom_site_fract_x
  _atom_site_fract_y
  _atom_site_fract_z
  _atom_site_thermal_displace_type
  _atom_site_B_iso_or_equiv
  _atom_site_type_symbol
  Cu1      1.0000 0.79104  0.30328  0.50048  Biso   1.000  Cu
  Cu2      1.0000 0.70896  0.80328  0.99952  Biso   1.000  Cu
  Cu3      1.0000 0.20896  0.69672  0.49952  Biso   1.000  Cu
  Cu4      1.0000 0.29104  0.19672  0.00048  Biso   1.000  Cu
  Cu5      1.0000 0.72211  0.67135  0.52456  Biso   1.000  Cu
  Cu6      1.0000 0.77789  0.17135  0.97544  Biso   1.000  Cu
  Cu7      1.0000 0.27789  0.32865  0.47544  Biso   1.000  Cu
  Cu8      1.0000 0.22211  0.82865  0.02456  Biso   1.000  Cu
  I1       1.0000 0.68739  0.35655  0.56570  Biso   1.000  I
  I2       1.0000 0.81261  0.85655  0.93430  Biso   1.000  I
  I3       1.0000 0.31261  0.64345  0.43430  Biso   1.000  I
  I4       1.0000 0.18739  0.14345  0.06570  Biso   1.000  I
  I5       1.0000 0.82461  0.61581  0.45611  Biso   1.000  I
  I6       1.0000 0.67539  0.11581  0.04389  Biso   1.000  I
  I7       1.0000 0.17539  0.38419  0.54389  Biso   1.000  I
  I8       1.0000 0.32461  0.88419  0.95611  Biso   1.000  I
  N1       1.0000 0.73950  0.19970  0.41150  Biso   1.000  N
  N2       1.0000 0.76050  0.69970  0.08850  Biso   1.000  N
  N3       1.0000 0.26050  0.80030  0.58850  Biso   1.000  N
  N4       1.0000 0.23950  0.30030  0.91150  Biso   1.000  N
  N5       1.0000 0.71520  0.05400  0.31720  Biso   1.000  N
  N6       1.0000 0.78480  0.55400  0.18280  Biso   1.000  N
  N7       1.0000 0.28480  0.94600  0.68280  Biso   1.000  N
  N8       1.0000 0.21520  0.44600  0.81720  Biso   1.000  N
  N9       1.0000 0.47530  0.50200  0.07820  Biso   1.000  N
  N10      1.0000 0.02470  0.00200  0.42180  Biso   1.000  N
  N11      1.0000 0.52470  0.49800  0.92180  Biso   1.000  N
  N12      1.0000 0.97530  0.99800  0.57820  Biso   1.000  N
  N13      1.0000 0.38890  0.30630  0.04490  Biso   1.000  N
  N14      1.0000 0.11110  0.80630  0.45510  Biso   1.000  N
  N15      1.0000 0.61110  0.69370  0.95510  Biso   1.000  N
  N16      1.0000 0.88890  0.19370  0.54490  Biso   1.000  N
  N17      1.0000 0.77410  0.77920  0.61200  Biso   1.000  N
  N18      1.0000 0.72590  0.27920  0.88800  Biso   1.000  N
  N19      1.0000 0.22590  0.22080  0.38800  Biso   1.000  N
  N20      1.0000 0.27410  0.72080  0.11200  Biso   1.000  N
  N21      1.0000 0.80260  0.94180  0.70190  Biso   1.000  N
  N22      1.0000 0.69740  0.44180  0.79810  Biso   1.000  N
  N23      1.0000 0.19740  0.05820  0.29810  Biso   1.000  N
  N24      1.0000 0.30260  0.55820  0.20190  Biso   1.000  N
  N25      1.0000 0.04050  0.53440  0.92970  Biso   1.000  N
  N26      1.0000 0.45950  0.03440  0.57030  Biso   1.000  N
  N27      1.0000 0.95950  0.46560  0.07030  Biso   1.000  N
  N28      1.0000 0.54050  0.96560  0.42970  Biso   1.000  N
  N29      1.0000 0.12600  0.72670  0.97220  Biso   1.000  N
  N30      1.0000 0.37400  0.22670  0.52780  Biso   1.000  N
  N31      1.0000 0.87400  0.27330  0.02780  Biso   1.000  N
  N32      1.0000 0.62600  0.77330  0.47220  Biso   1.000  N
  C1       1.0000 0.75650  0.06480  0.38040  Biso   1.000  C
  C2       1.0000 0.74350  0.56480  0.11960  Biso   1.000  C
  C3       1.0000 0.24350  0.93520  0.61960  Biso   1.000  C
  C4       1.0000 0.25650  0.43520  0.88040  Biso   1.000  C
  H1       1.0000 0.79290  0.98590  0.39970  Biso   1.000  H
  H2       1.0000 0.70710  0.48590  0.10030  Biso   1.000  H
  H3       1.0000 0.20710  0.01410  0.60030  Biso   1.000  H
  H4       1.0000 0.29290  0.51410  0.89970  Biso   1.000  H
  C5       1.0000 0.68380  0.27980  0.36490  Biso   1.000  C
  C6       1.0000 0.81620  0.77980  0.13510  Biso   1.000  C
  C7       1.0000 0.31620  0.72020  0.63510  Biso   1.000  C
  C8       1.0000 0.18380  0.22020  0.86490  Biso   1.000  C
  H5       1.0000 0.66010  0.38010  0.37210  Biso   1.000  H
  H6       1.0000 0.83990  0.88010  0.12790  Biso   1.000  H
  H7       1.0000 0.33990  0.61990  0.62790  Biso   1.000  H
  H8       1.0000 0.16010  0.11990  0.87210  Biso   1.000  H
  C9       1.0000 0.66860  0.19210  0.30750  Biso   1.000  C
  C10      1.0000 0.83140  0.69210  0.19250  Biso   1.000  C
  C11      1.0000 0.33140  0.80790  0.69250  Biso   1.000  C
  C12      1.0000 0.16860  0.30790  0.80750  Biso   1.000  C
  H9       1.0000 0.63340  0.21990  0.26860  Biso   1.000  H
  H10      1.0000 0.86660  0.71990  0.23140  Biso   1.000  H
  H11      1.0000 0.36660  0.78010  0.73140  Biso   1.000  H
  H12      1.0000 0.13340  0.28010  0.76860  Biso   1.000  H
  C13      1.0000 0.72120  0.92130  0.26910  Biso   1.000  C
  C14      1.0000 0.77880  0.42130  0.23090  Biso   1.000  C
  C15      1.0000 0.27880  0.07870  0.73090  Biso   1.000  C
  C16      1.0000 0.22120  0.57870  0.76910  Biso   1.000  C
  H13      1.0000 0.76460  0.85140  0.28760  Biso   1.000  H
  H14      1.0000 0.73540  0.35140  0.21240  Biso   1.000  H
  H15      1.0000 0.23540  0.14860  0.71240  Biso   1.000  H
  H16      1.0000 0.26460  0.64860  0.78760  Biso   1.000  H
  H17      1.0000 0.72850  0.97510  0.22920  Biso   1.000  H
  H18      1.0000 0.77150  0.47510  0.27080  Biso   1.000  H
  H19      1.0000 0.27150  0.02490  0.77080  Biso   1.000  H
  H20      1.0000 0.22850  0.52490  0.72920  Biso   1.000  H
  C17      1.0000 0.65300  0.80750  0.25070  Biso   1.000  C
  C18      1.0000 0.84700  0.30750  0.24930  Biso   1.000  C
  C19      1.0000 0.34700  0.19250  0.74930  Biso   1.000  C
  C20      1.0000 0.15300  0.69250  0.75070  Biso   1.000  C
  C21      1.0000 0.63050  0.71720  0.29940  Biso   1.000  C
  C22      1.0000 0.86950  0.21720  0.20060  Biso   1.000  C
  C23      1.0000 0.36950  0.28280  0.70060  Biso   1.000  C
  C24      1.0000 0.13050  0.78280  0.79940  Biso   1.000  C
  H21      1.0000 0.65620  0.72920  0.34360  Biso   1.000  H
  H22      1.0000 0.84380  0.22920  0.15640  Biso   1.000  H
  H23      1.0000 0.34380  0.27080  0.65640  Biso   1.000  H
  H24      1.0000 0.15620  0.77080  0.84360  Biso   1.000  H
  C25      1.0000 0.56970  0.60880  0.28240  Biso   1.000  C
  C26      1.0000 0.93030  0.10880  0.21760  Biso   1.000  C
  C27      1.0000 0.43030  0.39120  0.71760  Biso   1.000  C
  C28      1.0000 0.06970  0.89120  0.78240  Biso   1.000  C
  H25      1.0000 0.55450  0.54870  0.31530  Biso   1.000  H
  H26      1.0000 0.94550  0.04870  0.18470  Biso   1.000  H
  H27      1.0000 0.44550  0.45130  0.68470  Biso   1.000  H
  H28      1.0000 0.05450  0.95130  0.81530  Biso   1.000  H
  C29      1.0000 0.53140  0.58980  0.21630  Biso   1.000  C
  C30      1.0000 0.96860  0.08980  0.28370  Biso   1.000  C
  C31      1.0000 0.46860  0.41020  0.78370  Biso   1.000  C
  C32      1.0000 0.03140  0.91020  0.71630  Biso   1.000  C
  H29      1.0000 0.49090  0.51600  0.20490  Biso   1.000  H
  H30      1.0000 0.00910  0.01600  0.29510  Biso   1.000  H
  H31      1.0000 0.50910  0.48400  0.79510  Biso   1.000  H
  H32      1.0000 0.99090  0.98400  0.70490  Biso   1.000  H
  C33      1.0000 0.55340  0.68060  0.16740  Biso   1.000  C
  C34      1.0000 0.94660  0.18060  0.33260  Biso   1.000  C
  C35      1.0000 0.44660  0.31940  0.83260  Biso   1.000  C
  C36      1.0000 0.05340  0.81940  0.66740  Biso   1.000  C
  C37      1.0000 0.61420  0.78990  0.18490  Biso   1.000  C
  C38      1.0000 0.88580  0.28990  0.31510  Biso   1.000  C
  C39      1.0000 0.38580  0.21010  0.81510  Biso   1.000  C
  C40      1.0000 0.11420  0.71010  0.68490  Biso   1.000  C
  H33      1.0000 0.62890  0.85170  0.15210  Biso   1.000  H
  H34      1.0000 0.87110  0.35170  0.34790  Biso   1.000  H
  H35      1.0000 0.37110  0.14830  0.84790  Biso   1.000  H
  H36      1.0000 0.12890  0.64830  0.65210  Biso   1.000  H
  C41      1.0000 0.51050  0.66940  0.09580  Biso   1.000  C
  C42      1.0000 0.98950  0.16940  0.40420  Biso   1.000  C
  C43      1.0000 0.48950  0.33060  0.90420  Biso   1.000  C
  C44      1.0000 0.01050  0.83060  0.59580  Biso   1.000  C
  H37      1.0000 0.47230  0.75700  0.08710  Biso   1.000  H
  H38      1.0000 0.02770  0.25700  0.41290  Biso   1.000  H
  H39      1.0000 0.52770  0.24300  0.91290  Biso   1.000  H
  H40      1.0000 0.97230  0.74300  0.58710  Biso   1.000  H
  H41      1.0000 0.54400  0.69220  0.06770  Biso   1.000  H
  H42      1.0000 0.95600  0.19220  0.43230  Biso   1.000  H
  H43      1.0000 0.45600  0.30780  0.93230  Biso   1.000  H
  H44      1.0000 0.04400  0.80780  0.56770  Biso   1.000  H
  C45      1.0000 0.40160  0.47050  0.05620  Biso   1.000  C
  C46      1.0000 0.09840  0.97050  0.44380  Biso   1.000  C
  C47      1.0000 0.59840  0.52950  0.94380  Biso   1.000  C
  C48      1.0000 0.90160  0.02950  0.55620  Biso   1.000  C
  H45      1.0000 0.36470  0.55360  0.05000  Biso   1.000  H
  H46      1.0000 0.13530  0.05360  0.45000  Biso   1.000  H
  H47      1.0000 0.63530  0.44640  0.95000  Biso   1.000  H
  H48      1.0000 0.86470  0.94640  0.55000  Biso   1.000  H
  C49      1.0000 0.45760  0.23030  0.05920  Biso   1.000  C
  C50      1.0000 0.04240  0.73030  0.44080  Biso   1.000  C
  C51      1.0000 0.54240  0.76970  0.94080  Biso   1.000  C
  C52      1.0000 0.95760  0.26970  0.55920  Biso   1.000  C
  H49      1.0000 0.46630  0.11430  0.05520  Biso   1.000  H
  H50      1.0000 0.03370  0.61430  0.44480  Biso   1.000  H
  H51      1.0000 0.53370  0.88570  0.94480  Biso   1.000  H
  H52      1.0000 0.96630  0.38570  0.55520  Biso   1.000  H
  C53      1.0000 0.51050  0.34870  0.07980  Biso   1.000  C
  C54      1.0000 0.98950  0.84870  0.42020  Biso   1.000  C
  C55      1.0000 0.48950  0.65130  0.92020  Biso   1.000  C
  C56      1.0000 0.01050  0.15130  0.57980  Biso   1.000  C
  H53      1.0000 0.56160  0.32990  0.09280  Biso   1.000  H
  H54      1.0000 0.93840  0.82990  0.40720  Biso   1.000  H
  H55      1.0000 0.43840  0.67010  0.90720  Biso   1.000  H
  H56      1.0000 0.06160  0.17010  0.59280  Biso   1.000  H
  C57      1.0000 0.75790  0.91890  0.64150  Biso   1.000  C
  C58      1.0000 0.74210  0.41890  0.85850  Biso   1.000  C
  C59      1.0000 0.24210  0.08110  0.35850  Biso   1.000  C
  C60      1.0000 0.25790  0.58110  0.14150  Biso   1.000  C
  H57      1.0000 0.71950  0.99310  0.62220  Biso   1.000  H
  H58      1.0000 0.78050  0.49310  0.87780  Biso   1.000  H
  H59      1.0000 0.28050  0.00690  0.37780  Biso   1.000  H
  H60      1.0000 0.21950  0.50690  0.12220  Biso   1.000  H
  C61      1.0000 0.83340  0.70780  0.65760  Biso   1.000  C
  C62      1.0000 0.66660  0.20780  0.84240  Biso   1.000  C
  C63      1.0000 0.16660  0.29220  0.34240  Biso   1.000  C
  C64      1.0000 0.33340  0.79220  0.15760  Biso   1.000  C
  H61      1.0000 0.85740  0.60730  0.65130  Biso   1.000  H
  H62      1.0000 0.64260  0.10730  0.84870  Biso   1.000  H
  H63      1.0000 0.14260  0.39270  0.34870  Biso   1.000  H
  H64      1.0000 0.35740  0.89270  0.15130  Biso   1.000  H
  C65      1.0000 0.85150  0.80550  0.71290  Biso   1.000  C
  C66      1.0000 0.64850  0.30550  0.78710  Biso   1.000  C
  C67      1.0000 0.14850  0.19450  0.28710  Biso   1.000  C
  C68      1.0000 0.35150  0.69450  0.21290  Biso   1.000  C
  H65      1.0000 0.88940  0.78510  0.75080  Biso   1.000  H
  H66      1.0000 0.61060  0.28510  0.74920  Biso   1.000  H
  H67      1.0000 0.11060  0.21490  0.24920  Biso   1.000  H
  H68      1.0000 0.38940  0.71490  0.25080  Biso   1.000  H
  C69      1.0000 0.79900  0.08220  0.74790  Biso   1.000  C
  C70      1.0000 0.70100  0.58220  0.75210  Biso   1.000  C
  C71      1.0000 0.20100  0.91780  0.25210  Biso   1.000  C
  C72      1.0000 0.29900  0.41780  0.24790  Biso   1.000  C
  H69      1.0000 0.79240  0.03480  0.78910  Biso   1.000  H
  H70      1.0000 0.70760  0.53480  0.71090  Biso   1.000  H
  H71      1.0000 0.20760  0.96520  0.21090  Biso   1.000  H
  H72      1.0000 0.29240  0.46520  0.28910  Biso   1.000  H
  H73      1.0000 0.75590  0.15230  0.72880  Biso   1.000  H
  H74      1.0000 0.74410  0.65230  0.77120  Biso   1.000  H
  H75      1.0000 0.24410  0.84770  0.27120  Biso   1.000  H
  H76      1.0000 0.25590  0.34770  0.22880  Biso   1.000  H
  C73      1.0000 0.86760  0.19370  0.76290  Biso   1.000  C
  C74      1.0000 0.63240  0.69370  0.73710  Biso   1.000  C
  C75      1.0000 0.13240  0.80630  0.23710  Biso   1.000  C
  C76      1.0000 0.36760  0.30630  0.26290  Biso   1.000  C
  C77      1.0000 0.89230  0.26920  0.71170  Biso   1.000  C
  C78      1.0000 0.60770  0.76920  0.78830  Biso   1.000  C
  C79      1.0000 0.10770  0.73080  0.28830  Biso   1.000  C
  C80      1.0000 0.39230  0.23080  0.21170  Biso   1.000  C
  H77      1.0000 0.86860  0.24590  0.66770  Biso   1.000  H
  H78      1.0000 0.63140  0.74590  0.83230  Biso   1.000  H
  H79      1.0000 0.13140  0.75410  0.33230  Biso   1.000  H
  H80      1.0000 0.36860  0.25410  0.16770  Biso   1.000  H
  C81      1.0000 0.95260  0.37960  0.72710  Biso   1.000  C
  C82      1.0000 0.54740  0.87960  0.77290  Biso   1.000  C
  C83      1.0000 0.04740  0.62040  0.27290  Biso   1.000  C
  C84      1.0000 0.45260  0.12040  0.22710  Biso   1.000  C
  H81      1.0000 0.96910  0.43010  0.69290  Biso   1.000  H
  H82      1.0000 0.53090  0.93010  0.80710  Biso   1.000  H
  H83      1.0000 0.03090  0.56990  0.30710  Biso   1.000  H
  H84      1.0000 0.46910  0.06990  0.19290  Biso   1.000  H
  C85      1.0000 0.98850  0.41610  0.79220  Biso   1.000  C
  C86      1.0000 0.51150  0.91610  0.70780  Biso   1.000  C
  C87      1.0000 0.01150  0.58390  0.20780  Biso   1.000  C
  C88      1.0000 0.48850  0.08390  0.29220  Biso   1.000  C
  H85      1.0000 0.02830  0.49200  0.80160  Biso   1.000  H
  H86      1.0000 0.47170  0.99200  0.69840  Biso   1.000  H
  H87      1.0000 0.97170  0.50800  0.19840  Biso   1.000  H
  H88      1.0000 0.52830  0.00800  0.30160  Biso   1.000  H
  C89      1.0000 0.96510  0.33960  0.84320  Biso   1.000  C
  C90      1.0000 0.53490  0.83960  0.65680  Biso   1.000  C
  C91      1.0000 0.03490  0.66040  0.15680  Biso   1.000  C
  C92      1.0000 0.46510  0.16040  0.34320  Biso   1.000  C
  C93      1.0000 0.90420  0.22840  0.82830  Biso   1.000  C
  C94      1.0000 0.59580  0.72840  0.67170  Biso   1.000  C
  C95      1.0000 0.09580  0.77160  0.17170  Biso   1.000  C
  C96      1.0000 0.40420  0.27160  0.32830  Biso   1.000  C
  H89      1.0000 0.88800  0.17720  0.86260  Biso   1.000  H
  H90      1.0000 0.61200  0.67720  0.63740  Biso   1.000  H
  H91      1.0000 0.11200  0.82280  0.13740  Biso   1.000  H
  H92      1.0000 0.38800  0.32280  0.36260  Biso   1.000  H
  C97      1.0000 0.00600  0.36740  0.91570  Biso   1.000  C
  C98      1.0000 0.49400  0.86740  0.58430  Biso   1.000  C
  C99      1.0000 0.99400  0.63260  0.08430  Biso   1.000  C
  C100     1.0000 0.50600  0.13260  0.41570  Biso   1.000  C
  H93      1.0000 0.97110  0.35170  0.94310  Biso   1.000  H
  H94      1.0000 0.52890  0.85170  0.55690  Biso   1.000  H
  H95      1.0000 0.02890  0.64830  0.05690  Biso   1.000  H
  H96      1.0000 0.47110  0.14830  0.44310  Biso   1.000  H
  H97      1.0000 0.04430  0.28070  0.92840  Biso   1.000  H
  H98      1.0000 0.45570  0.78070  0.57160  Biso   1.000  H
  H99      1.0000 0.95570  0.71930  0.07160  Biso   1.000  H
  H100     1.0000 0.54430  0.21930  0.42840  Biso   1.000  H
  C101     1.0000 0.11310  0.56220  0.96080  Biso   1.000  C
  C102     1.0000 0.38690  0.06220  0.53920  Biso   1.000  C
  C103     1.0000 0.88690  0.43780  0.03920  Biso   1.000  C
  C104     1.0000 0.61310  0.93780  0.46080  Biso   1.000  C
  H101     1.0000 0.14890  0.47700  0.97240  Biso   1.000  H
  H102     1.0000 0.35110  0.97700  0.52760  Biso   1.000  H
  H103     1.0000 0.85110  0.52300  0.02760  Biso   1.000  H
  H104     1.0000 0.64890  0.02300  0.47240  Biso   1.000  H
  C105     1.0000 0.05830  0.80630  0.94820  Biso   1.000  C
  C106     1.0000 0.44170  0.30630  0.55180  Biso   1.000  C
  C107     1.0000 0.94170  0.19370  0.05180  Biso   1.000  C
  C108     1.0000 0.55830  0.69370  0.44820  Biso   1.000  C
  H105     1.0000 0.05010  0.92320  0.94960  Biso   1.000  H
  H106     1.0000 0.44990  0.42320  0.55040  Biso   1.000  H
  H107     1.0000 0.94990  0.07680  0.05040  Biso   1.000  H
  H108     1.0000 0.55010  0.57680  0.44960  Biso   1.000  H
  C109     1.0000 0.00620  0.69010  0.92240  Biso   1.000  C
  C110     1.0000 0.49380  0.19010  0.57760  Biso   1.000  C
  C111     1.0000 0.99380  0.30990  0.07760  Biso   1.000  C
  C112     1.0000 0.50620  0.80990  0.42240  Biso   1.000  C
  H109     1.0000 0.95620  0.71130  0.90310  Biso   1.000  H
  H110     1.0000 0.54380  0.21130  0.59690  Biso   1.000  H
  H111     1.0000 0.04380  0.28870  0.09690  Biso   1.000  H
  H112     1.0000 0.45620  0.78870  0.40310  Biso   1.000  H
