data_image0
_cell_length_a       19.7695
_cell_length_b       19.7695
_cell_length_c       18.3435
_cell_angle_alpha    90
_cell_angle_beta     90
_cell_angle_gamma    90

_symmetry_space_group_name_H-M    "P 1"
_symmetry_int_tables_number       1

loop_
  _symmetry_equiv_pos_as_xyz
  'x, y, z'

loop_
  _atom_site_label
  _atom_site_occupancy
  _atom_site_fract_x
  _atom_site_fract_y
  _atom_site_fract_z
  _atom_site_thermal_displace_type
  _atom_site_B_iso_or_equiv
  _atom_site_type_symbol
  Cu1      1.0000 0.49117  0.31614  0.07158  Biso   1.000  Cu
  Cu2      1.0000 0.93386  0.24117  0.32158  Biso   1.000  Cu
  Cu3      1.0000 0.56614  0.75883  0.82158  Biso   1.000  Cu
  Cu4      1.0000 0.56614  0.24117  0.67842  Biso   1.000  Cu
  Cu5      1.0000 0.93386  0.75883  0.17842  Biso   1.000  Cu
  Cu6      1.0000 0.99117  0.81614  0.57158  Biso   1.000  Cu
  Cu7      1.0000 0.43386  0.74117  0.82158  Biso   1.000  Cu
  Cu8      1.0000 0.06614  0.25883  0.32158  Biso   1.000  Cu
  Cu9      1.0000 0.06614  0.74117  0.17842  Biso   1.000  Cu
  Cu10     1.0000 0.00883  0.68386  0.57158  Biso   1.000  Cu
  Cu11     1.0000 0.00883  0.31614  0.92842  Biso   1.000  Cu
  Cu12     1.0000 0.49117  0.68386  0.42842  Biso   1.000  Cu
  Cu13     1.0000 0.50883  0.18386  0.07158  Biso   1.000  Cu
  Cu14     1.0000 0.50883  0.81614  0.42842  Biso   1.000  Cu
  Cu15     1.0000 0.99117  0.18386  0.92842  Biso   1.000  Cu
  Cu16     1.0000 0.43386  0.25883  0.67842  Biso   1.000  Cu
  Cu17     1.0000 0.50883  0.68386  0.92842  Biso   1.000  Cu
  Cu18     1.0000 0.56614  0.25883  0.17842  Biso   1.000  Cu
  Cu19     1.0000 0.93386  0.74117  0.67842  Biso   1.000  Cu
  Cu20     1.0000 0.93386  0.25883  0.82158  Biso   1.000  Cu
  Cu21     1.0000 0.56614  0.74117  0.32158  Biso   1.000  Cu
  Cu22     1.0000 0.00883  0.18386  0.42842  Biso   1.000  Cu
  Cu23     1.0000 0.06614  0.75883  0.67842  Biso   1.000  Cu
  Cu24     1.0000 0.43386  0.24117  0.17842  Biso   1.000  Cu
  Cu25     1.0000 0.43386  0.75883  0.32158  Biso   1.000  Cu
  Cu26     1.0000 0.99117  0.31614  0.42842  Biso   1.000  Cu
  Cu27     1.0000 0.99117  0.68386  0.07158  Biso   1.000  Cu
  Cu28     1.0000 0.50883  0.31614  0.57158  Biso   1.000  Cu
  Cu29     1.0000 0.49117  0.81614  0.92842  Biso   1.000  Cu
  Cu30     1.0000 0.49117  0.18386  0.57158  Biso   1.000  Cu
  Cu31     1.0000 0.00883  0.81614  0.07158  Biso   1.000  Cu
  Cu32     1.0000 0.06614  0.24117  0.82158  Biso   1.000  Cu
  I1       1.0000 0.48075  0.36683  0.20689  Biso   1.000  I
  I2       1.0000 0.88317  0.23075  0.45689  Biso   1.000  I
  I3       1.0000 0.61683  0.76925  0.95689  Biso   1.000  I
  I4       1.0000 0.61683  0.23075  0.54311  Biso   1.000  I
  I5       1.0000 0.88317  0.76925  0.04311  Biso   1.000  I
  I6       1.0000 0.98075  0.86683  0.70689  Biso   1.000  I
  I7       1.0000 0.38317  0.73075  0.95689  Biso   1.000  I
  I8       1.0000 0.11683  0.26925  0.45689  Biso   1.000  I
  I9       1.0000 0.11683  0.73075  0.04311  Biso   1.000  I
  I10      1.0000 0.01925  0.63317  0.70689  Biso   1.000  I
  I11      1.0000 0.01925  0.36683  0.79311  Biso   1.000  I
  I12      1.0000 0.48075  0.63317  0.29311  Biso   1.000  I
  I13      1.0000 0.51925  0.13317  0.20689  Biso   1.000  I
  I14      1.0000 0.51925  0.86683  0.29311  Biso   1.000  I
  I15      1.0000 0.98075  0.13317  0.79311  Biso   1.000  I
  I16      1.0000 0.38317  0.26925  0.54311  Biso   1.000  I
  I17      1.0000 0.51925  0.63317  0.79311  Biso   1.000  I
  I18      1.0000 0.61683  0.26925  0.04311  Biso   1.000  I
  I19      1.0000 0.88317  0.73075  0.54311  Biso   1.000  I
  I20      1.0000 0.88317  0.26925  0.95689  Biso   1.000  I
  I21      1.0000 0.61683  0.73075  0.45689  Biso   1.000  I
  I22      1.0000 0.01925  0.13317  0.29311  Biso   1.000  I
  I23      1.0000 0.11683  0.76925  0.54311  Biso   1.000  I
  I24      1.0000 0.38317  0.23075  0.04311  Biso   1.000  I
  I25      1.0000 0.38317  0.76925  0.45689  Biso   1.000  I
  I26      1.0000 0.98075  0.36683  0.29311  Biso   1.000  I
  I27      1.0000 0.98075  0.63317  0.20689  Biso   1.000  I
  I28      1.0000 0.51925  0.36683  0.70689  Biso   1.000  I
  I29      1.0000 0.48075  0.86683  0.79311  Biso   1.000  I
  I30      1.0000 0.48075  0.13317  0.70689  Biso   1.000  I
  I31      1.0000 0.01925  0.86683  0.20689  Biso   1.000  I
  I32      1.0000 0.11683  0.23075  0.95689  Biso   1.000  I
  N1       1.0000 0.47324  0.38890  0.99742  Biso   1.000  N
  N2       1.0000 0.86110  0.22324  0.24742  Biso   1.000  N
  N3       1.0000 0.63890  0.77676  0.74742  Biso   1.000  N
  N4       1.0000 0.63890  0.22324  0.75258  Biso   1.000  N
  N5       1.0000 0.86110  0.77676  0.25258  Biso   1.000  N
  N6       1.0000 0.97324  0.88890  0.49742  Biso   1.000  N
  N7       1.0000 0.36110  0.72324  0.74742  Biso   1.000  N
  N8       1.0000 0.13890  0.27676  0.24742  Biso   1.000  N
  N9       1.0000 0.13890  0.72324  0.25258  Biso   1.000  N
  N10      1.0000 0.02676  0.61110  0.49742  Biso   1.000  N
  N11      1.0000 0.02676  0.38890  0.00258  Biso   1.000  N
  N12      1.0000 0.47324  0.61110  0.50258  Biso   1.000  N
  N13      1.0000 0.52676  0.11110  0.99742  Biso   1.000  N
  N14      1.0000 0.52676  0.88890  0.50258  Biso   1.000  N
  N15      1.0000 0.97324  0.11110  0.00258  Biso   1.000  N
  N16      1.0000 0.36110  0.27676  0.75258  Biso   1.000  N
  N17      1.0000 0.52676  0.61110  0.00258  Biso   1.000  N
  N18      1.0000 0.63890  0.27676  0.25258  Biso   1.000  N
  N19      1.0000 0.86110  0.72324  0.75258  Biso   1.000  N
  N20      1.0000 0.86110  0.27676  0.74742  Biso   1.000  N
  N21      1.0000 0.63890  0.72324  0.24742  Biso   1.000  N
  N22      1.0000 0.02676  0.11110  0.50258  Biso   1.000  N
  N23      1.0000 0.13890  0.77676  0.75258  Biso   1.000  N
  N24      1.0000 0.36110  0.22324  0.25258  Biso   1.000  N
  N25      1.0000 0.36110  0.77676  0.24742  Biso   1.000  N
  N26      1.0000 0.97324  0.38890  0.50258  Biso   1.000  N
  N27      1.0000 0.97324  0.61110  0.99742  Biso   1.000  N
  N28      1.0000 0.52676  0.38890  0.49742  Biso   1.000  N
  N29      1.0000 0.47324  0.88890  0.00258  Biso   1.000  N
  N30      1.0000 0.47324  0.11110  0.49742  Biso   1.000  N
  N31      1.0000 0.02676  0.88890  0.99742  Biso   1.000  N
  N32      1.0000 0.13890  0.22324  0.74742  Biso   1.000  N
  N33      1.0000 0.42560  0.47591  0.94404  Biso   1.000  N
  N34      1.0000 0.77409  0.17560  0.19404  Biso   1.000  N
  N35      1.0000 0.72591  0.82440  0.69404  Biso   1.000  N
  N36      1.0000 0.72591  0.17560  0.80596  Biso   1.000  N
  N37      1.0000 0.77409  0.82440  0.30596  Biso   1.000  N
  N38      1.0000 0.92560  0.97591  0.44404  Biso   1.000  N
  N39      1.0000 0.27409  0.67560  0.69404  Biso   1.000  N
  N40      1.0000 0.22591  0.32440  0.19404  Biso   1.000  N
  N41      1.0000 0.22591  0.67560  0.30596  Biso   1.000  N
  N42      1.0000 0.07440  0.52409  0.44404  Biso   1.000  N
  N43      1.0000 0.07440  0.47591  0.05596  Biso   1.000  N
  N44      1.0000 0.42560  0.52409  0.55596  Biso   1.000  N
  N45      1.0000 0.57440  0.02409  0.94404  Biso   1.000  N
  N46      1.0000 0.57440  0.97591  0.55596  Biso   1.000  N
  N47      1.0000 0.92560  0.02409  0.05596  Biso   1.000  N
  N48      1.0000 0.27409  0.32440  0.80596  Biso   1.000  N
  N49      1.0000 0.57440  0.52409  0.05596  Biso   1.000  N
  N50      1.0000 0.72591  0.32440  0.30596  Biso   1.000  N
  N51      1.0000 0.77409  0.67560  0.80596  Biso   1.000  N
  N52      1.0000 0.77409  0.32440  0.69404  Biso   1.000  N
  N53      1.0000 0.72591  0.67560  0.19404  Biso   1.000  N
  N54      1.0000 0.07440  0.02409  0.55596  Biso   1.000  N
  N55      1.0000 0.22591  0.82440  0.80596  Biso   1.000  N
  N56      1.0000 0.27409  0.17560  0.30596  Biso   1.000  N
  N57      1.0000 0.27409  0.82440  0.19404  Biso   1.000  N
  N58      1.0000 0.92560  0.47591  0.55596  Biso   1.000  N
  N59      1.0000 0.92560  0.52409  0.94404  Biso   1.000  N
  N60      1.0000 0.57440  0.47591  0.44404  Biso   1.000  N
  N61      1.0000 0.42560  0.97591  0.05596  Biso   1.000  N
  N62      1.0000 0.42560  0.02409  0.44404  Biso   1.000  N
  N63      1.0000 0.07440  0.97591  0.94404  Biso   1.000  N
  N64      1.0000 0.22591  0.17560  0.69404  Biso   1.000  N
  C1       1.0000 0.43141  0.43963  0.00521  Biso   1.000  C
  C2       1.0000 0.81037  0.18141  0.25521  Biso   1.000  C
  C3       1.0000 0.68963  0.81859  0.75521  Biso   1.000  C
  C4       1.0000 0.68963  0.18141  0.74479  Biso   1.000  C
  C5       1.0000 0.81037  0.81859  0.24479  Biso   1.000  C
  C6       1.0000 0.93141  0.93963  0.50521  Biso   1.000  C
  C7       1.0000 0.31037  0.68141  0.75521  Biso   1.000  C
  C8       1.0000 0.18963  0.31859  0.25521  Biso   1.000  C
  C9       1.0000 0.18963  0.68141  0.24479  Biso   1.000  C
  C10      1.0000 0.06859  0.56037  0.50521  Biso   1.000  C
  C11      1.0000 0.06859  0.43963  0.99479  Biso   1.000  C
  C12      1.0000 0.43141  0.56037  0.49479  Biso   1.000  C
  C13      1.0000 0.56859  0.06037  0.00521  Biso   1.000  C
  C14      1.0000 0.56859  0.93963  0.49479  Biso   1.000  C
  C15      1.0000 0.93141  0.06037  0.99479  Biso   1.000  C
  C16      1.0000 0.31037  0.31859  0.74479  Biso   1.000  C
  C17      1.0000 0.56859  0.56037  0.99479  Biso   1.000  C
  C18      1.0000 0.68963  0.31859  0.24479  Biso   1.000  C
  C19      1.0000 0.81037  0.68141  0.74479  Biso   1.000  C
  C20      1.0000 0.81037  0.31859  0.75521  Biso   1.000  C
  C21      1.0000 0.68963  0.68141  0.25521  Biso   1.000  C
  C22      1.0000 0.06859  0.06037  0.49479  Biso   1.000  C
  C23      1.0000 0.18963  0.81859  0.74479  Biso   1.000  C
  C24      1.0000 0.31037  0.18141  0.24479  Biso   1.000  C
  C25      1.0000 0.31037  0.81859  0.25521  Biso   1.000  C
  C26      1.0000 0.93141  0.43963  0.49479  Biso   1.000  C
  C27      1.0000 0.93141  0.56037  0.00521  Biso   1.000  C
  C28      1.0000 0.56859  0.43963  0.50521  Biso   1.000  C
  C29      1.0000 0.43141  0.93963  0.99479  Biso   1.000  C
  C30      1.0000 0.43141  0.06037  0.50521  Biso   1.000  C
  C31      1.0000 0.06859  0.93963  0.00521  Biso   1.000  C
  C32      1.0000 0.18963  0.18141  0.75521  Biso   1.000  C
  C33      1.0000 0.49510  0.39242  0.92690  Biso   1.000  C
  C34      1.0000 0.85758  0.24510  0.17690  Biso   1.000  C
  C35      1.0000 0.64242  0.75490  0.67690  Biso   1.000  C
  C36      1.0000 0.64242  0.24510  0.82310  Biso   1.000  C
  C37      1.0000 0.85758  0.75490  0.32310  Biso   1.000  C
  C38      1.0000 0.99510  0.89242  0.42690  Biso   1.000  C
  C39      1.0000 0.35758  0.74510  0.67690  Biso   1.000  C
  C40      1.0000 0.14242  0.25490  0.17690  Biso   1.000  C
  C41      1.0000 0.14242  0.74510  0.32310  Biso   1.000  C
  C42      1.0000 0.00490  0.60758  0.42690  Biso   1.000  C
  C43      1.0000 0.00490  0.39242  0.07310  Biso   1.000  C
  C44      1.0000 0.49510  0.60758  0.57310  Biso   1.000  C
  C45      1.0000 0.50490  0.10758  0.92690  Biso   1.000  C
  C46      1.0000 0.50490  0.89242  0.57310  Biso   1.000  C
  C47      1.0000 0.99510  0.10758  0.07310  Biso   1.000  C
  C48      1.0000 0.35758  0.25490  0.82310  Biso   1.000  C
  C49      1.0000 0.50490  0.60758  0.07310  Biso   1.000  C
  C50      1.0000 0.64242  0.25490  0.32310  Biso   1.000  C
  C51      1.0000 0.85758  0.74510  0.82310  Biso   1.000  C
  C52      1.0000 0.85758  0.25490  0.67690  Biso   1.000  C
  C53      1.0000 0.64242  0.74510  0.17690  Biso   1.000  C
  C54      1.0000 0.00490  0.10758  0.57310  Biso   1.000  C
  C55      1.0000 0.14242  0.75490  0.82310  Biso   1.000  C
  C56      1.0000 0.35758  0.24510  0.32310  Biso   1.000  C
  C57      1.0000 0.35758  0.75490  0.17690  Biso   1.000  C
  C58      1.0000 0.99510  0.39242  0.57310  Biso   1.000  C
  C59      1.0000 0.99510  0.60758  0.92690  Biso   1.000  C
  C60      1.0000 0.50490  0.39242  0.42690  Biso   1.000  C
  C61      1.0000 0.49510  0.89242  0.07310  Biso   1.000  C
  C62      1.0000 0.49510  0.10758  0.42690  Biso   1.000  C
  C63      1.0000 0.00490  0.89242  0.92690  Biso   1.000  C
  C64      1.0000 0.14242  0.24510  0.67690  Biso   1.000  C
  C65      1.0000 0.46625  0.44598  0.89356  Biso   1.000  C
  C66      1.0000 0.80402  0.21625  0.14356  Biso   1.000  C
  C67      1.0000 0.69598  0.78375  0.64356  Biso   1.000  C
  C68      1.0000 0.69598  0.21625  0.85644  Biso   1.000  C
  C69      1.0000 0.80402  0.78375  0.35644  Biso   1.000  C
  C70      1.0000 0.96625  0.94598  0.39356  Biso   1.000  C
  C71      1.0000 0.30402  0.71625  0.64356  Biso   1.000  C
  C72      1.0000 0.19598  0.28375  0.14356  Biso   1.000  C
  C73      1.0000 0.19598  0.71625  0.35644  Biso   1.000  C
  C74      1.0000 0.03375  0.55402  0.39356  Biso   1.000  C
  C75      1.0000 0.03375  0.44598  0.10644  Biso   1.000  C
  C76      1.0000 0.46625  0.55402  0.60644  Biso   1.000  C
  C77      1.0000 0.53375  0.05402  0.89356  Biso   1.000  C
  C78      1.0000 0.53375  0.94598  0.60644  Biso   1.000  C
  C79      1.0000 0.96625  0.05402  0.10644  Biso   1.000  C
  C80      1.0000 0.30402  0.28375  0.85644  Biso   1.000  C
  C81      1.0000 0.53375  0.55402  0.10644  Biso   1.000  C
  C82      1.0000 0.69598  0.28375  0.35644  Biso   1.000  C
  C83      1.0000 0.80402  0.71625  0.85644  Biso   1.000  C
  C84      1.0000 0.80402  0.28375  0.64356  Biso   1.000  C
  C85      1.0000 0.69598  0.71625  0.14356  Biso   1.000  C
  C86      1.0000 0.03375  0.05402  0.60644  Biso   1.000  C
  C87      1.0000 0.19598  0.78375  0.85644  Biso   1.000  C
  C88      1.0000 0.30402  0.21625  0.35644  Biso   1.000  C
  C89      1.0000 0.30402  0.78375  0.14356  Biso   1.000  C
  C90      1.0000 0.96625  0.44598  0.60644  Biso   1.000  C
  C91      1.0000 0.96625  0.55402  0.89356  Biso   1.000  C
  C92      1.0000 0.53375  0.44598  0.39356  Biso   1.000  C
  C93      1.0000 0.46625  0.94598  0.10644  Biso   1.000  C
  C94      1.0000 0.46625  0.05402  0.39356  Biso   1.000  C
  C95      1.0000 0.03375  0.94598  0.89356  Biso   1.000  C
  C96      1.0000 0.19598  0.21625  0.64356  Biso   1.000  C
  C97      1.0000 0.38115  0.53405  0.93320  Biso   1.000  C
  C98      1.0000 0.71595  0.13115  0.18320  Biso   1.000  C
  C99      1.0000 0.78405  0.86885  0.68320  Biso   1.000  C
  C100     1.0000 0.78405  0.13115  0.81680  Biso   1.000  C
  C101     1.0000 0.71595  0.86885  0.31680  Biso   1.000  C
  C102     1.0000 0.88115  0.03405  0.43320  Biso   1.000  C
  C103     1.0000 0.21595  0.63115  0.68320  Biso   1.000  C
  C104     1.0000 0.28405  0.36885  0.18320  Biso   1.000  C
  C105     1.0000 0.28405  0.63115  0.31680  Biso   1.000  C
  C106     1.0000 0.11885  0.46595  0.43320  Biso   1.000  C
  C107     1.0000 0.11885  0.53405  0.06680  Biso   1.000  C
  C108     1.0000 0.38115  0.46595  0.56680  Biso   1.000  C
  C109     1.0000 0.61885  0.96595  0.93320  Biso   1.000  C
  C110     1.0000 0.61885  0.03405  0.56680  Biso   1.000  C
  C111     1.0000 0.88115  0.96595  0.06680  Biso   1.000  C
  C112     1.0000 0.21595  0.36885  0.81680  Biso   1.000  C
  C113     1.0000 0.61885  0.46595  0.06680  Biso   1.000  C
  C114     1.0000 0.78405  0.36885  0.31680  Biso   1.000  C
  C115     1.0000 0.71595  0.63115  0.81680  Biso   1.000  C
  C116     1.0000 0.71595  0.36885  0.68320  Biso   1.000  C
  C117     1.0000 0.78405  0.63115  0.18320  Biso   1.000  C
  C118     1.0000 0.11885  0.96595  0.56680  Biso   1.000  C
  C119     1.0000 0.28405  0.86885  0.81680  Biso   1.000  C
  C120     1.0000 0.21595  0.13115  0.31680  Biso   1.000  C
  C121     1.0000 0.21595  0.86885  0.18320  Biso   1.000  C
  C122     1.0000 0.88115  0.53405  0.56680  Biso   1.000  C
  C123     1.0000 0.88115  0.46595  0.93320  Biso   1.000  C
  C124     1.0000 0.61885  0.53405  0.43320  Biso   1.000  C
  C125     1.0000 0.38115  0.03405  0.06680  Biso   1.000  C
  C126     1.0000 0.38115  0.96595  0.43320  Biso   1.000  C
  C127     1.0000 0.11885  0.03405  0.93320  Biso   1.000  C
  C128     1.0000 0.28405  0.13115  0.68320  Biso   1.000  C
  C129     1.0000 0.31188  0.51610  0.90359  Biso   1.000  C
  C130     1.0000 0.73390  0.06188  0.15359  Biso   1.000  C
  C131     1.0000 0.76610  0.93812  0.65359  Biso   1.000  C
  C132     1.0000 0.76610  0.06188  0.84641  Biso   1.000  C
  C133     1.0000 0.73390  0.93812  0.34641  Biso   1.000  C
  C134     1.0000 0.81188  0.01610  0.40359  Biso   1.000  C
  C135     1.0000 0.23390  0.56188  0.65359  Biso   1.000  C
  C136     1.0000 0.26610  0.43812  0.15359  Biso   1.000  C
  C137     1.0000 0.26610  0.56188  0.34641  Biso   1.000  C
  C138     1.0000 0.18812  0.48390  0.40359  Biso   1.000  C
  C139     1.0000 0.18812  0.51610  0.09641  Biso   1.000  C
  C140     1.0000 0.31188  0.48390  0.59641  Biso   1.000  C
  C141     1.0000 0.68812  0.98390  0.90359  Biso   1.000  C
  C142     1.0000 0.68812  0.01610  0.59641  Biso   1.000  C
  C143     1.0000 0.81188  0.98390  0.09641  Biso   1.000  C
  C144     1.0000 0.23390  0.43812  0.84641  Biso   1.000  C
  C145     1.0000 0.68812  0.48390  0.09641  Biso   1.000  C
  C146     1.0000 0.76610  0.43812  0.34641  Biso   1.000  C
  C147     1.0000 0.73390  0.56188  0.84641  Biso   1.000  C
  C148     1.0000 0.73390  0.43812  0.65359  Biso   1.000  C
  C149     1.0000 0.76610  0.56188  0.15359  Biso   1.000  C
  C150     1.0000 0.18812  0.98390  0.59641  Biso   1.000  C
  C151     1.0000 0.26610  0.93812  0.84641  Biso   1.000  C
  C152     1.0000 0.23390  0.06188  0.34641  Biso   1.000  C
  C153     1.0000 0.23390  0.93812  0.15359  Biso   1.000  C
  C154     1.0000 0.81188  0.51610  0.59641  Biso   1.000  C
  C155     1.0000 0.81188  0.48390  0.90359  Biso   1.000  C
  C156     1.0000 0.68812  0.51610  0.40359  Biso   1.000  C
  C157     1.0000 0.31188  0.01610  0.09641  Biso   1.000  C
  C158     1.0000 0.31188  0.98390  0.40359  Biso   1.000  C
  C159     1.0000 0.18812  0.01610  0.90359  Biso   1.000  C
  C160     1.0000 0.26610  0.06188  0.65359  Biso   1.000  C
  C161     1.0000 0.26174  0.56519  0.90406  Biso   1.000  C
  C162     1.0000 0.68481  0.01174  0.15406  Biso   1.000  C
  C163     1.0000 0.81519  0.98826  0.65406  Biso   1.000  C
  C164     1.0000 0.81519  0.01174  0.84594  Biso   1.000  C
  C165     1.0000 0.68481  0.98826  0.34594  Biso   1.000  C
  C166     1.0000 0.76174  0.06519  0.40406  Biso   1.000  C
  C167     1.0000 0.18481  0.51174  0.65406  Biso   1.000  C
  C168     1.0000 0.31519  0.48826  0.15406  Biso   1.000  C
  C169     1.0000 0.31519  0.51174  0.34594  Biso   1.000  C
  C170     1.0000 0.23826  0.43481  0.40406  Biso   1.000  C
  C171     1.0000 0.23826  0.56519  0.09594  Biso   1.000  C
  C172     1.0000 0.26174  0.43481  0.59594  Biso   1.000  C
  C173     1.0000 0.73826  0.93481  0.90406  Biso   1.000  C
  C174     1.0000 0.73826  0.06519  0.59594  Biso   1.000  C
  C175     1.0000 0.76174  0.93481  0.09594  Biso   1.000  C
  C176     1.0000 0.18481  0.48826  0.84594  Biso   1.000  C
  C177     1.0000 0.73826  0.43481  0.09594  Biso   1.000  C
  C178     1.0000 0.81519  0.48826  0.34594  Biso   1.000  C
  C179     1.0000 0.68481  0.51174  0.84594  Biso   1.000  C
  C180     1.0000 0.68481  0.48826  0.65406  Biso   1.000  C
  C181     1.0000 0.81519  0.51174  0.15406  Biso   1.000  C
  C182     1.0000 0.23826  0.93481  0.59594  Biso   1.000  C
  C183     1.0000 0.31519  0.98826  0.84594  Biso   1.000  C
  C184     1.0000 0.18481  0.01174  0.34594  Biso   1.000  C
  C185     1.0000 0.18481  0.98826  0.15406  Biso   1.000  C
  C186     1.0000 0.76174  0.56519  0.59594  Biso   1.000  C
  C187     1.0000 0.76174  0.43481  0.90406  Biso   1.000  C
  C188     1.0000 0.73826  0.56519  0.40406  Biso   1.000  C
  C189     1.0000 0.26174  0.06519  0.09594  Biso   1.000  C
  C190     1.0000 0.26174  0.93481  0.40406  Biso   1.000  C
  C191     1.0000 0.23826  0.06519  0.90406  Biso   1.000  C
  C192     1.0000 0.31519  0.01174  0.65406  Biso   1.000  C
  C193     1.0000 0.19844  0.55156  0.87500  Biso   1.000  C
  C194     1.0000 0.69844  0.94844  0.12500  Biso   1.000  C
  C195     1.0000 0.80156  0.05156  0.62500  Biso   1.000  C
  C196     1.0000 0.80156  0.94844  0.87500  Biso   1.000  C
  C197     1.0000 0.69844  0.05156  0.37500  Biso   1.000  C
  C198     1.0000 0.19844  0.44844  0.62500  Biso   1.000  C
  C199     1.0000 0.30156  0.55156  0.12500  Biso   1.000  C
  C200     1.0000 0.30156  0.44844  0.37500  Biso   1.000  C
  C201     1.0000 0.80156  0.44844  0.12500  Biso   1.000  C
  C202     1.0000 0.80156  0.55156  0.37500  Biso   1.000  C
  C203     1.0000 0.69844  0.44844  0.87500  Biso   1.000  C
  C204     1.0000 0.69844  0.55156  0.62500  Biso   1.000  C
  C205     1.0000 0.30156  0.94844  0.62500  Biso   1.000  C
  C206     1.0000 0.30156  0.05156  0.87500  Biso   1.000  C
  C207     1.0000 0.19844  0.94844  0.37500  Biso   1.000  C
  C208     1.0000 0.19844  0.05156  0.12500  Biso   1.000  C
  C209     1.0000 0.29728  0.45272  0.87500  Biso   1.000  C
  C210     1.0000 0.79728  0.04728  0.12500  Biso   1.000  C
  C211     1.0000 0.70272  0.95272  0.62500  Biso   1.000  C
  C212     1.0000 0.70272  0.04728  0.87500  Biso   1.000  C
  C213     1.0000 0.79728  0.95272  0.37500  Biso   1.000  C
  C214     1.0000 0.29728  0.54728  0.62500  Biso   1.000  C
  C215     1.0000 0.20272  0.45272  0.12500  Biso   1.000  C
  C216     1.0000 0.20272  0.54728  0.37500  Biso   1.000  C
  C217     1.0000 0.70272  0.54728  0.12500  Biso   1.000  C
  C218     1.0000 0.70272  0.45272  0.37500  Biso   1.000  C
  C219     1.0000 0.79728  0.54728  0.87500  Biso   1.000  C
  C220     1.0000 0.79728  0.45272  0.62500  Biso   1.000  C
  C221     1.0000 0.20272  0.04728  0.62500  Biso   1.000  C
  C222     1.0000 0.20272  0.95272  0.87500  Biso   1.000  C
  C223     1.0000 0.29728  0.04728  0.37500  Biso   1.000  C
  C224     1.0000 0.29728  0.95272  0.12500  Biso   1.000  C
  H1       1.0000 0.41000  0.44600  0.04200  Biso   1.000  H
  H2       1.0000 0.80400  0.16000  0.29200  Biso   1.000  H
  H3       1.0000 0.69600  0.84000  0.79200  Biso   1.000  H
  H4       1.0000 0.69600  0.16000  0.70800  Biso   1.000  H
  H5       1.0000 0.80400  0.84000  0.20800  Biso   1.000  H
  H6       1.0000 0.91000  0.94600  0.54200  Biso   1.000  H
  H7       1.0000 0.30400  0.66000  0.79200  Biso   1.000  H
  H8       1.0000 0.19600  0.34000  0.29200  Biso   1.000  H
  H9       1.0000 0.19600  0.66000  0.20800  Biso   1.000  H
  H10      1.0000 0.09000  0.55400  0.54200  Biso   1.000  H
  H11      1.0000 0.09000  0.44600  0.95800  Biso   1.000  H
  H12      1.0000 0.41000  0.55400  0.45800  Biso   1.000  H
  H13      1.0000 0.59000  0.05400  0.04200  Biso   1.000  H
  H14      1.0000 0.59000  0.94600  0.45800  Biso   1.000  H
  H15      1.0000 0.91000  0.05400  0.95800  Biso   1.000  H
  H16      1.0000 0.30400  0.34000  0.70800  Biso   1.000  H
  H17      1.0000 0.59000  0.55400  0.95800  Biso   1.000  H
  H18      1.0000 0.69600  0.34000  0.20800  Biso   1.000  H
  H19      1.0000 0.80400  0.66000  0.70800  Biso   1.000  H
  H20      1.0000 0.80400  0.34000  0.79200  Biso   1.000  H
  H21      1.0000 0.69600  0.66000  0.29200  Biso   1.000  H
  H22      1.0000 0.09000  0.05400  0.45800  Biso   1.000  H
  H23      1.0000 0.19600  0.84000  0.70800  Biso   1.000  H
  H24      1.0000 0.30400  0.16000  0.20800  Biso   1.000  H
  H25      1.0000 0.30400  0.84000  0.29200  Biso   1.000  H
  H26      1.0000 0.91000  0.44600  0.45800  Biso   1.000  H
  H27      1.0000 0.91000  0.55400  0.04200  Biso   1.000  H
  H28      1.0000 0.59000  0.44600  0.54200  Biso   1.000  H
  H29      1.0000 0.41000  0.94600  0.95800  Biso   1.000  H
  H30      1.0000 0.41000  0.05400  0.54200  Biso   1.000  H
  H31      1.0000 0.09000  0.94600  0.04200  Biso   1.000  H
  H32      1.0000 0.19600  0.16000  0.79200  Biso   1.000  H
  H33      1.0000 0.52510  0.36050  0.90300  Biso   1.000  H
  H34      1.0000 0.88950  0.27510  0.15300  Biso   1.000  H
  H35      1.0000 0.61050  0.72490  0.65300  Biso   1.000  H
  H36      1.0000 0.61050  0.27510  0.84700  Biso   1.000  H
  H37      1.0000 0.88950  0.72490  0.34700  Biso   1.000  H
  H38      1.0000 0.02510  0.86050  0.40300  Biso   1.000  H
  H39      1.0000 0.38950  0.77510  0.65300  Biso   1.000  H
  H40      1.0000 0.11050  0.22490  0.15300  Biso   1.000  H
  H41      1.0000 0.11050  0.77510  0.34700  Biso   1.000  H
  H42      1.0000 0.97490  0.63950  0.40300  Biso   1.000  H
  H43      1.0000 0.97490  0.36050  0.09700  Biso   1.000  H
  H44      1.0000 0.52510  0.63950  0.59700  Biso   1.000  H
  H45      1.0000 0.47490  0.13950  0.90300  Biso   1.000  H
  H46      1.0000 0.47490  0.86050  0.59700  Biso   1.000  H
  H47      1.0000 0.02510  0.13950  0.09700  Biso   1.000  H
  H48      1.0000 0.38950  0.22490  0.84700  Biso   1.000  H
  H49      1.0000 0.47490  0.63950  0.09700  Biso   1.000  H
  H50      1.0000 0.61050  0.22490  0.34700  Biso   1.000  H
  H51      1.0000 0.88950  0.77510  0.84700  Biso   1.000  H
  H52      1.0000 0.88950  0.22490  0.65300  Biso   1.000  H
  H53      1.0000 0.61050  0.77510  0.15300  Biso   1.000  H
  H54      1.0000 0.97490  0.13950  0.59700  Biso   1.000  H
  H55      1.0000 0.11050  0.72490  0.84700  Biso   1.000  H
  H56      1.0000 0.38950  0.27510  0.34700  Biso   1.000  H
  H57      1.0000 0.38950  0.72490  0.15300  Biso   1.000  H
  H58      1.0000 0.02510  0.36050  0.59700  Biso   1.000  H
  H59      1.0000 0.02510  0.63950  0.90300  Biso   1.000  H
  H60      1.0000 0.47490  0.36050  0.40300  Biso   1.000  H
  H61      1.0000 0.52510  0.86050  0.09700  Biso   1.000  H
  H62      1.0000 0.52510  0.13950  0.40300  Biso   1.000  H
  H63      1.0000 0.97490  0.86050  0.90300  Biso   1.000  H
  H64      1.0000 0.11050  0.27510  0.65300  Biso   1.000  H
  H65      1.0000 0.47200  0.46000  0.85000  Biso   1.000  H
  H66      1.0000 0.79000  0.22200  0.10000  Biso   1.000  H
  H67      1.0000 0.71000  0.77800  0.60000  Biso   1.000  H
  H68      1.0000 0.71000  0.22200  0.90000  Biso   1.000  H
  H69      1.0000 0.79000  0.77800  0.40000  Biso   1.000  H
  H70      1.0000 0.97200  0.96000  0.35000  Biso   1.000  H
  H71      1.0000 0.29000  0.72200  0.60000  Biso   1.000  H
  H72      1.0000 0.21000  0.27800  0.10000  Biso   1.000  H
  H73      1.0000 0.21000  0.72200  0.40000  Biso   1.000  H
  H74      1.0000 0.02800  0.54000  0.35000  Biso   1.000  H
  H75      1.0000 0.02800  0.46000  0.15000  Biso   1.000  H
  H76      1.0000 0.47200  0.54000  0.65000  Biso   1.000  H
  H77      1.0000 0.52800  0.04000  0.85000  Biso   1.000  H
  H78      1.0000 0.52800  0.96000  0.65000  Biso   1.000  H
  H79      1.0000 0.97200  0.04000  0.15000  Biso   1.000  H
  H80      1.0000 0.29000  0.27800  0.90000  Biso   1.000  H
  H81      1.0000 0.52800  0.54000  0.15000  Biso   1.000  H
  H82      1.0000 0.71000  0.27800  0.40000  Biso   1.000  H
  H83      1.0000 0.79000  0.72200  0.90000  Biso   1.000  H
  H84      1.0000 0.79000  0.27800  0.60000  Biso   1.000  H
  H85      1.0000 0.71000  0.72200  0.10000  Biso   1.000  H
  H86      1.0000 0.02800  0.04000  0.65000  Biso   1.000  H
  H87      1.0000 0.21000  0.77800  0.90000  Biso   1.000  H
  H88      1.0000 0.29000  0.22200  0.40000  Biso   1.000  H
  H89      1.0000 0.29000  0.77800  0.10000  Biso   1.000  H
  H90      1.0000 0.97200  0.46000  0.65000  Biso   1.000  H
  H91      1.0000 0.97200  0.54000  0.85000  Biso   1.000  H
  H92      1.0000 0.52800  0.46000  0.35000  Biso   1.000  H
  H93      1.0000 0.47200  0.96000  0.15000  Biso   1.000  H
  H94      1.0000 0.47200  0.04000  0.35000  Biso   1.000  H
  H95      1.0000 0.02800  0.96000  0.85000  Biso   1.000  H
  H96      1.0000 0.21000  0.22200  0.60000  Biso   1.000  H
  H97      1.0000 0.37240  0.55470  0.97800  Biso   1.000  H
  H98      1.0000 0.69530  0.12240  0.22800  Biso   1.000  H
  H99      1.0000 0.80470  0.87760  0.72800  Biso   1.000  H
  H100     1.0000 0.80470  0.12240  0.77200  Biso   1.000  H
  H101     1.0000 0.69530  0.87760  0.27200  Biso   1.000  H
  H102     1.0000 0.87240  0.05470  0.47800  Biso   1.000  H
  H103     1.0000 0.19530  0.62240  0.72800  Biso   1.000  H
  H104     1.0000 0.30470  0.37760  0.22800  Biso   1.000  H
  H105     1.0000 0.30470  0.62240  0.27200  Biso   1.000  H
  H106     1.0000 0.12760  0.44530  0.47800  Biso   1.000  H
  H107     1.0000 0.12760  0.55470  0.02200  Biso   1.000  H
  H108     1.0000 0.37240  0.44530  0.52200  Biso   1.000  H
  H109     1.0000 0.62760  0.94530  0.97800  Biso   1.000  H
  H110     1.0000 0.62760  0.05470  0.52200  Biso   1.000  H
  H111     1.0000 0.87240  0.94530  0.02200  Biso   1.000  H
  H112     1.0000 0.19530  0.37760  0.77200  Biso   1.000  H
  H113     1.0000 0.62760  0.44530  0.02200  Biso   1.000  H
  H114     1.0000 0.80470  0.37760  0.27200  Biso   1.000  H
  H115     1.0000 0.69530  0.62240  0.77200  Biso   1.000  H
  H116     1.0000 0.69530  0.37760  0.72800  Biso   1.000  H
  H117     1.0000 0.80470  0.62240  0.22800  Biso   1.000  H
  H118     1.0000 0.12760  0.94530  0.52200  Biso   1.000  H
  H119     1.0000 0.30470  0.87760  0.77200  Biso   1.000  H
  H120     1.0000 0.19530  0.12240  0.27200  Biso   1.000  H
  H121     1.0000 0.19530  0.87760  0.22800  Biso   1.000  H
  H122     1.0000 0.87240  0.55470  0.52200  Biso   1.000  H
  H123     1.0000 0.87240  0.44530  0.97800  Biso   1.000  H
  H124     1.0000 0.62760  0.55470  0.47800  Biso   1.000  H
  H125     1.0000 0.37240  0.05470  0.02200  Biso   1.000  H
  H126     1.0000 0.37240  0.94530  0.47800  Biso   1.000  H
  H127     1.0000 0.12760  0.05470  0.97800  Biso   1.000  H
  H128     1.0000 0.30470  0.12240  0.72800  Biso   1.000  H
  H129     1.0000 0.40030  0.56200  0.90000  Biso   1.000  H
  H130     1.0000 0.68800  0.15030  0.15000  Biso   1.000  H
  H131     1.0000 0.81200  0.84970  0.65000  Biso   1.000  H
  H132     1.0000 0.81200  0.15030  0.85000  Biso   1.000  H
  H133     1.0000 0.68800  0.84970  0.35000  Biso   1.000  H
  H134     1.0000 0.90030  0.06200  0.40000  Biso   1.000  H
  H135     1.0000 0.18800  0.65030  0.65000  Biso   1.000  H
  H136     1.0000 0.31200  0.34970  0.15000  Biso   1.000  H
  H137     1.0000 0.31200  0.65030  0.35000  Biso   1.000  H
  H138     1.0000 0.09970  0.43800  0.40000  Biso   1.000  H
  H139     1.0000 0.09970  0.56200  0.10000  Biso   1.000  H
  H140     1.0000 0.40030  0.43800  0.60000  Biso   1.000  H
  H141     1.0000 0.59970  0.93800  0.90000  Biso   1.000  H
  H142     1.0000 0.59970  0.06200  0.60000  Biso   1.000  H
  H143     1.0000 0.90030  0.93800  0.10000  Biso   1.000  H
  H144     1.0000 0.18800  0.34970  0.85000  Biso   1.000  H
  H145     1.0000 0.59970  0.43800  0.10000  Biso   1.000  H
  H146     1.0000 0.81200  0.34970  0.35000  Biso   1.000  H
  H147     1.0000 0.68800  0.65030  0.85000  Biso   1.000  H
  H148     1.0000 0.68800  0.34970  0.65000  Biso   1.000  H
  H149     1.0000 0.81200  0.65030  0.15000  Biso   1.000  H
  H150     1.0000 0.09970  0.93800  0.60000  Biso   1.000  H
  H151     1.0000 0.31200  0.84970  0.85000  Biso   1.000  H
  H152     1.0000 0.18800  0.15030  0.35000  Biso   1.000  H
  H153     1.0000 0.18800  0.84970  0.15000  Biso   1.000  H
  H154     1.0000 0.90030  0.56200  0.60000  Biso   1.000  H
  H155     1.0000 0.90030  0.43800  0.90000  Biso   1.000  H
  H156     1.0000 0.59970  0.56200  0.40000  Biso   1.000  H
  H157     1.0000 0.40030  0.06200  0.10000  Biso   1.000  H
  H158     1.0000 0.40030  0.93800  0.40000  Biso   1.000  H
  H159     1.0000 0.09970  0.06200  0.90000  Biso   1.000  H
  H160     1.0000 0.31200  0.15030  0.65000  Biso   1.000  H
  H161     1.0000 0.27280  0.60580  0.92680  Biso   1.000  H
  H162     1.0000 0.64420  0.02280  0.17680  Biso   1.000  H
  H163     1.0000 0.85580  0.97720  0.67680  Biso   1.000  H
  H164     1.0000 0.85580  0.02280  0.82320  Biso   1.000  H
  H165     1.0000 0.64420  0.97720  0.32320  Biso   1.000  H
  H166     1.0000 0.77280  0.10580  0.42680  Biso   1.000  H
  H167     1.0000 0.14420  0.52280  0.67680  Biso   1.000  H
  H168     1.0000 0.35580  0.47720  0.17680  Biso   1.000  H
  H169     1.0000 0.35580  0.52280  0.32320  Biso   1.000  H
  H170     1.0000 0.22720  0.39420  0.42680  Biso   1.000  H
  H171     1.0000 0.22720  0.60580  0.07320  Biso   1.000  H
  H172     1.0000 0.27280  0.39420  0.57320  Biso   1.000  H
  H173     1.0000 0.72720  0.89420  0.92680  Biso   1.000  H
  H174     1.0000 0.72720  0.10580  0.57320  Biso   1.000  H
  H175     1.0000 0.77280  0.89420  0.07320  Biso   1.000  H
  H176     1.0000 0.14420  0.47720  0.82320  Biso   1.000  H
  H177     1.0000 0.72720  0.39420  0.07320  Biso   1.000  H
  H178     1.0000 0.85580  0.47720  0.32320  Biso   1.000  H
  H179     1.0000 0.64420  0.52280  0.82320  Biso   1.000  H
  H180     1.0000 0.64420  0.47720  0.67680  Biso   1.000  H
  H181     1.0000 0.85580  0.52280  0.17680  Biso   1.000  H
  H182     1.0000 0.22720  0.89420  0.57320  Biso   1.000  H
  H183     1.0000 0.35580  0.97720  0.82320  Biso   1.000  H
  H184     1.0000 0.14420  0.02280  0.32320  Biso   1.000  H
  H185     1.0000 0.14420  0.97720  0.17680  Biso   1.000  H
  H186     1.0000 0.77280  0.60580  0.57320  Biso   1.000  H
  H187     1.0000 0.77280  0.39420  0.92680  Biso   1.000  H
  H188     1.0000 0.72720  0.60580  0.42680  Biso   1.000  H
  H189     1.0000 0.27280  0.10580  0.07320  Biso   1.000  H
  H190     1.0000 0.27280  0.89420  0.42680  Biso   1.000  H
  H191     1.0000 0.22720  0.10580  0.92680  Biso   1.000  H
  H192     1.0000 0.35580  0.02280  0.67680  Biso   1.000  H
  H193     1.0000 0.16600  0.58400  0.87500  Biso   1.000  H
  H194     1.0000 0.66600  0.91600  0.12500  Biso   1.000  H
  H195     1.0000 0.83400  0.08400  0.62500  Biso   1.000  H
  H196     1.0000 0.83400  0.91600  0.87500  Biso   1.000  H
  H197     1.0000 0.66600  0.08400  0.37500  Biso   1.000  H
  H198     1.0000 0.16600  0.41600  0.62500  Biso   1.000  H
  H199     1.0000 0.33400  0.58400  0.12500  Biso   1.000  H
  H200     1.0000 0.33400  0.41600  0.37500  Biso   1.000  H
  H201     1.0000 0.83400  0.41600  0.12500  Biso   1.000  H
  H202     1.0000 0.83400  0.58400  0.37500  Biso   1.000  H
  H203     1.0000 0.66600  0.41600  0.87500  Biso   1.000  H
  H204     1.0000 0.66600  0.58400  0.62500  Biso   1.000  H
  H205     1.0000 0.33400  0.91600  0.62500  Biso   1.000  H
  H206     1.0000 0.33400  0.08400  0.87500  Biso   1.000  H
  H207     1.0000 0.16600  0.91600  0.37500  Biso   1.000  H
  H208     1.0000 0.16600  0.08400  0.12500  Biso   1.000  H
  H209     1.0000 0.33290  0.41710  0.87500  Biso   1.000  H
  H210     1.0000 0.83290  0.08290  0.12500  Biso   1.000  H
  H211     1.0000 0.66710  0.91710  0.62500  Biso   1.000  H
  H212     1.0000 0.66710  0.08290  0.87500  Biso   1.000  H
  H213     1.0000 0.83290  0.91710  0.37500  Biso   1.000  H
  H214     1.0000 0.33290  0.58290  0.62500  Biso   1.000  H
  H215     1.0000 0.16710  0.41710  0.12500  Biso   1.000  H
  H216     1.0000 0.16710  0.58290  0.37500  Biso   1.000  H
  H217     1.0000 0.66710  0.58290  0.12500  Biso   1.000  H
  H218     1.0000 0.66710  0.41710  0.37500  Biso   1.000  H
  H219     1.0000 0.83290  0.58290  0.87500  Biso   1.000  H
  H220     1.0000 0.83290  0.41710  0.62500  Biso   1.000  H
  H221     1.0000 0.16710  0.08290  0.62500  Biso   1.000  H
  H222     1.0000 0.16710  0.91710  0.87500  Biso   1.000  H
  H223     1.0000 0.33290  0.08290  0.37500  Biso   1.000  H
  H224     1.0000 0.33290  0.91710  0.12500  Biso   1.000  H
