data_image0
_cell_length_a       19.7726
_cell_length_b       19.7726
_cell_length_c       18.3546
_cell_angle_alpha    90
_cell_angle_beta     90
_cell_angle_gamma    90

_symmetry_space_group_name_H-M    "P 1"
_symmetry_int_tables_number       1

loop_
  _symmetry_equiv_pos_as_xyz
  'x, y, z'

loop_
  _atom_site_label
  _atom_site_occupancy
  _atom_site_fract_x
  _atom_site_fract_y
  _atom_site_fract_z
  _atom_site_thermal_displace_type
  _atom_site_B_iso_or_equiv
  _atom_site_type_symbol
  Cu1      1.0000 0.49127  0.18384  0.07152  Biso   1.000  Cu
  Cu2      1.0000 0.06616  0.24127  0.32152  Biso   1.000  Cu
  Cu3      1.0000 0.50873  0.31616  0.07152  Biso   1.000  Cu
  Cu4      1.0000 0.43384  0.75873  0.82152  Biso   1.000  Cu
  Cu5      1.0000 0.49127  0.81616  0.42848  Biso   1.000  Cu
  Cu6      1.0000 0.00873  0.18384  0.92848  Biso   1.000  Cu
  Cu7      1.0000 0.93384  0.74127  0.17848  Biso   1.000  Cu
  Cu8      1.0000 0.06616  0.75873  0.17848  Biso   1.000  Cu
  Cu9      1.0000 0.99127  0.68384  0.57152  Biso   1.000  Cu
  Cu10     1.0000 0.56616  0.74127  0.82152  Biso   1.000  Cu
  Cu11     1.0000 0.00873  0.81616  0.57152  Biso   1.000  Cu
  Cu12     1.0000 0.93384  0.25873  0.32152  Biso   1.000  Cu
  Cu13     1.0000 0.99127  0.31616  0.92848  Biso   1.000  Cu
  Cu14     1.0000 0.50873  0.68384  0.42848  Biso   1.000  Cu
  Cu15     1.0000 0.43384  0.24127  0.67848  Biso   1.000  Cu
  Cu16     1.0000 0.56616  0.25873  0.67848  Biso   1.000  Cu
  Cu17     1.0000 0.50873  0.81616  0.92848  Biso   1.000  Cu
  Cu18     1.0000 0.43384  0.25873  0.17848  Biso   1.000  Cu
  Cu19     1.0000 0.49127  0.68384  0.92848  Biso   1.000  Cu
  Cu20     1.0000 0.06616  0.74127  0.67848  Biso   1.000  Cu
  Cu21     1.0000 0.50873  0.18384  0.57152  Biso   1.000  Cu
  Cu22     1.0000 0.99127  0.81616  0.07152  Biso   1.000  Cu
  Cu23     1.0000 0.56616  0.75873  0.32152  Biso   1.000  Cu
  Cu24     1.0000 0.43384  0.74127  0.32152  Biso   1.000  Cu
  Cu25     1.0000 0.00873  0.31616  0.42848  Biso   1.000  Cu
  Cu26     1.0000 0.93384  0.75873  0.67848  Biso   1.000  Cu
  Cu27     1.0000 0.99127  0.18384  0.42848  Biso   1.000  Cu
  Cu28     1.0000 0.56616  0.24127  0.17848  Biso   1.000  Cu
  Cu29     1.0000 0.00873  0.68384  0.07152  Biso   1.000  Cu
  Cu30     1.0000 0.49127  0.31616  0.57152  Biso   1.000  Cu
  Cu31     1.0000 0.06616  0.25873  0.82152  Biso   1.000  Cu
  Cu32     1.0000 0.93384  0.24127  0.82152  Biso   1.000  Cu
  I1       1.0000 0.38321  0.26927  0.04307  Biso   1.000  I
  I2       1.0000 0.98073  0.13321  0.29307  Biso   1.000  I
  I3       1.0000 0.61679  0.23073  0.04307  Biso   1.000  I
  I4       1.0000 0.51927  0.86679  0.79307  Biso   1.000  I
  I5       1.0000 0.38321  0.73073  0.45693  Biso   1.000  I
  I6       1.0000 0.11679  0.26927  0.95693  Biso   1.000  I
  I7       1.0000 0.01927  0.63321  0.20693  Biso   1.000  I
  I8       1.0000 0.98073  0.86679  0.20693  Biso   1.000  I
  I9       1.0000 0.88321  0.76927  0.54307  Biso   1.000  I
  I10      1.0000 0.48073  0.63321  0.79307  Biso   1.000  I
  I11      1.0000 0.11679  0.73073  0.54307  Biso   1.000  I
  I12      1.0000 0.01927  0.36679  0.29307  Biso   1.000  I
  I13      1.0000 0.88321  0.23073  0.95693  Biso   1.000  I
  I14      1.0000 0.61679  0.76927  0.45693  Biso   1.000  I
  I15      1.0000 0.51927  0.13321  0.70693  Biso   1.000  I
  I16      1.0000 0.48073  0.36679  0.70693  Biso   1.000  I
  I17      1.0000 0.61679  0.73073  0.95693  Biso   1.000  I
  I18      1.0000 0.51927  0.36679  0.20693  Biso   1.000  I
  I19      1.0000 0.38321  0.76927  0.95693  Biso   1.000  I
  I20      1.0000 0.98073  0.63321  0.70693  Biso   1.000  I
  I21      1.0000 0.61679  0.26927  0.54307  Biso   1.000  I
  I22      1.0000 0.88321  0.73073  0.04307  Biso   1.000  I
  I23      1.0000 0.48073  0.86679  0.29307  Biso   1.000  I
  I24      1.0000 0.51927  0.63321  0.29307  Biso   1.000  I
  I25      1.0000 0.11679  0.23073  0.45693  Biso   1.000  I
  I26      1.0000 0.01927  0.86679  0.70693  Biso   1.000  I
  I27      1.0000 0.88321  0.26927  0.45693  Biso   1.000  I
  I28      1.0000 0.48073  0.13321  0.20693  Biso   1.000  I
  I29      1.0000 0.11679  0.76927  0.04307  Biso   1.000  I
  I30      1.0000 0.38321  0.23073  0.54307  Biso   1.000  I
  I31      1.0000 0.98073  0.36679  0.79307  Biso   1.000  I
  I32      1.0000 0.01927  0.13321  0.79307  Biso   1.000  I
  N1       1.0000 0.47340  0.11110  0.99770  Biso   1.000  N
  N2       1.0000 0.13890  0.22340  0.24770  Biso   1.000  N
  N3       1.0000 0.52660  0.38890  0.99770  Biso   1.000  N
  N4       1.0000 0.36110  0.77660  0.74770  Biso   1.000  N
  N5       1.0000 0.47340  0.88890  0.50230  Biso   1.000  N
  N6       1.0000 0.02660  0.11110  0.00230  Biso   1.000  N
  N7       1.0000 0.86110  0.72340  0.25230  Biso   1.000  N
  N8       1.0000 0.13890  0.77660  0.25230  Biso   1.000  N
  N9       1.0000 0.97340  0.61110  0.49770  Biso   1.000  N
  N10      1.0000 0.63890  0.72340  0.74770  Biso   1.000  N
  N11      1.0000 0.02660  0.88890  0.49770  Biso   1.000  N
  N12      1.0000 0.86110  0.27660  0.24770  Biso   1.000  N
  N13      1.0000 0.97340  0.38890  0.00230  Biso   1.000  N
  N14      1.0000 0.52660  0.61110  0.50230  Biso   1.000  N
  N15      1.0000 0.36110  0.22340  0.75230  Biso   1.000  N
  N16      1.0000 0.63890  0.27660  0.75230  Biso   1.000  N
  N17      1.0000 0.52660  0.88890  0.00230  Biso   1.000  N
  N18      1.0000 0.36110  0.27660  0.25230  Biso   1.000  N
  N19      1.0000 0.47340  0.61110  0.00230  Biso   1.000  N
  N20      1.0000 0.13890  0.72340  0.75230  Biso   1.000  N
  N21      1.0000 0.52660  0.11110  0.49770  Biso   1.000  N
  N22      1.0000 0.97340  0.88890  0.99770  Biso   1.000  N
  N23      1.0000 0.63890  0.77660  0.24770  Biso   1.000  N
  N24      1.0000 0.36110  0.72340  0.24770  Biso   1.000  N
  N25      1.0000 0.02660  0.38890  0.50230  Biso   1.000  N
  N26      1.0000 0.86110  0.77660  0.75230  Biso   1.000  N
  N27      1.0000 0.97340  0.11110  0.50230  Biso   1.000  N
  N28      1.0000 0.63890  0.22340  0.25230  Biso   1.000  N
  N29      1.0000 0.02660  0.61110  0.99770  Biso   1.000  N
  N30      1.0000 0.47340  0.38890  0.49770  Biso   1.000  N
  N31      1.0000 0.13890  0.27660  0.74770  Biso   1.000  N
  N32      1.0000 0.86110  0.22340  0.74770  Biso   1.000  N
  N33      1.0000 0.42560  0.02410  0.94410  Biso   1.000  N
  N34      1.0000 0.22590  0.17560  0.19410  Biso   1.000  N
  N35      1.0000 0.57440  0.47590  0.94410  Biso   1.000  N
  N36      1.0000 0.27410  0.82440  0.69410  Biso   1.000  N
  N37      1.0000 0.42560  0.97590  0.55590  Biso   1.000  N
  N38      1.0000 0.07440  0.02410  0.05590  Biso   1.000  N
  N39      1.0000 0.77410  0.67560  0.30590  Biso   1.000  N
  N40      1.0000 0.22590  0.82440  0.30590  Biso   1.000  N
  N41      1.0000 0.92560  0.52410  0.44410  Biso   1.000  N
  N42      1.0000 0.72590  0.67560  0.69410  Biso   1.000  N
  N43      1.0000 0.07440  0.97590  0.44410  Biso   1.000  N
  N44      1.0000 0.77410  0.32440  0.19410  Biso   1.000  N
  N45      1.0000 0.92560  0.47590  0.05590  Biso   1.000  N
  N46      1.0000 0.57440  0.52410  0.55590  Biso   1.000  N
  N47      1.0000 0.27410  0.17560  0.80590  Biso   1.000  N
  N48      1.0000 0.72590  0.32440  0.80590  Biso   1.000  N
  N49      1.0000 0.57440  0.97590  0.05590  Biso   1.000  N
  N50      1.0000 0.27410  0.32440  0.30590  Biso   1.000  N
  N51      1.0000 0.42560  0.52410  0.05590  Biso   1.000  N
  N52      1.0000 0.22590  0.67560  0.80590  Biso   1.000  N
  N53      1.0000 0.57440  0.02410  0.44410  Biso   1.000  N
  N54      1.0000 0.92560  0.97590  0.94410  Biso   1.000  N
  N55      1.0000 0.72590  0.82440  0.19410  Biso   1.000  N
  N56      1.0000 0.27410  0.67560  0.19410  Biso   1.000  N
  N57      1.0000 0.07440  0.47590  0.55590  Biso   1.000  N
  N58      1.0000 0.77410  0.82440  0.80590  Biso   1.000  N
  N59      1.0000 0.92560  0.02410  0.55590  Biso   1.000  N
  N60      1.0000 0.72590  0.17560  0.30590  Biso   1.000  N
  N61      1.0000 0.07440  0.52410  0.94410  Biso   1.000  N
  N62      1.0000 0.42560  0.47590  0.44410  Biso   1.000  N
  N63      1.0000 0.22590  0.32440  0.69410  Biso   1.000  N
  N64      1.0000 0.77410  0.17560  0.69410  Biso   1.000  N
  C1       1.0000 0.49540  0.10710  0.92690  Biso   1.000  C
  C2       1.0000 0.14290  0.24540  0.17690  Biso   1.000  C
  C3       1.0000 0.50460  0.39290  0.92690  Biso   1.000  C
  C4       1.0000 0.35710  0.75460  0.67690  Biso   1.000  C
  C5       1.0000 0.49540  0.89290  0.57310  Biso   1.000  C
  C6       1.0000 0.00460  0.10710  0.07310  Biso   1.000  C
  C7       1.0000 0.85710  0.74540  0.32310  Biso   1.000  C
  C8       1.0000 0.14290  0.75460  0.32310  Biso   1.000  C
  C9       1.0000 0.99540  0.60710  0.42690  Biso   1.000  C
  C10      1.0000 0.64290  0.74540  0.67690  Biso   1.000  C
  C11      1.0000 0.00460  0.89290  0.42690  Biso   1.000  C
  C12      1.0000 0.85710  0.25460  0.17690  Biso   1.000  C
  C13      1.0000 0.99540  0.39290  0.07310  Biso   1.000  C
  C14      1.0000 0.50460  0.60710  0.57310  Biso   1.000  C
  C15      1.0000 0.35710  0.24540  0.82310  Biso   1.000  C
  C16      1.0000 0.64290  0.25460  0.82310  Biso   1.000  C
  C17      1.0000 0.50460  0.89290  0.07310  Biso   1.000  C
  C18      1.0000 0.35710  0.25460  0.32310  Biso   1.000  C
  C19      1.0000 0.49540  0.60710  0.07310  Biso   1.000  C
  C20      1.0000 0.14290  0.74540  0.82310  Biso   1.000  C
  C21      1.0000 0.50460  0.10710  0.42690  Biso   1.000  C
  C22      1.0000 0.99540  0.89290  0.92690  Biso   1.000  C
  C23      1.0000 0.64290  0.75460  0.17690  Biso   1.000  C
  C24      1.0000 0.35710  0.74540  0.17690  Biso   1.000  C
  C25      1.0000 0.00460  0.39290  0.57310  Biso   1.000  C
  C26      1.0000 0.85710  0.75460  0.82310  Biso   1.000  C
  C27      1.0000 0.99540  0.10710  0.57310  Biso   1.000  C
  C28      1.0000 0.64290  0.24540  0.32310  Biso   1.000  C
  C29      1.0000 0.00460  0.60710  0.92690  Biso   1.000  C
  C30      1.0000 0.49540  0.39290  0.42690  Biso   1.000  C
  C31      1.0000 0.14290  0.25460  0.67690  Biso   1.000  C
  C32      1.0000 0.85710  0.24540  0.67690  Biso   1.000  C
  H1       1.0000 0.52570  0.13690  0.90510  Biso   1.000  H
  H2       1.0000 0.11310  0.27570  0.15510  Biso   1.000  H
  H3       1.0000 0.47430  0.36310  0.90510  Biso   1.000  H
  H4       1.0000 0.38690  0.72430  0.65510  Biso   1.000  H
  H5       1.0000 0.52570  0.86310  0.59490  Biso   1.000  H
  H6       1.0000 0.97430  0.13690  0.09490  Biso   1.000  H
  H7       1.0000 0.88690  0.77570  0.34490  Biso   1.000  H
  H8       1.0000 0.11310  0.72430  0.34490  Biso   1.000  H
  H9       1.0000 0.02570  0.63690  0.40510  Biso   1.000  H
  H10      1.0000 0.61310  0.77570  0.65510  Biso   1.000  H
  H11      1.0000 0.97430  0.86310  0.40510  Biso   1.000  H
  H12      1.0000 0.88690  0.22430  0.15510  Biso   1.000  H
  H13      1.0000 0.02570  0.36310  0.09490  Biso   1.000  H
  H14      1.0000 0.47430  0.63690  0.59490  Biso   1.000  H
  H15      1.0000 0.38690  0.27570  0.84490  Biso   1.000  H
  H16      1.0000 0.61310  0.22430  0.84490  Biso   1.000  H
  H17      1.0000 0.47430  0.86310  0.09490  Biso   1.000  H
  H18      1.0000 0.38690  0.22430  0.34490  Biso   1.000  H
  H19      1.0000 0.52570  0.63690  0.09490  Biso   1.000  H
  H20      1.0000 0.11310  0.77570  0.84490  Biso   1.000  H
  H21      1.0000 0.47430  0.13690  0.40510  Biso   1.000  H
  H22      1.0000 0.02570  0.86310  0.90510  Biso   1.000  H
  H23      1.0000 0.61310  0.72430  0.15510  Biso   1.000  H
  H24      1.0000 0.38690  0.77570  0.15510  Biso   1.000  H
  H25      1.0000 0.97430  0.36310  0.59490  Biso   1.000  H
  H26      1.0000 0.88690  0.72430  0.84490  Biso   1.000  H
  H27      1.0000 0.02570  0.13690  0.59490  Biso   1.000  H
  H28      1.0000 0.61310  0.27570  0.34490  Biso   1.000  H
  H29      1.0000 0.97430  0.63690  0.90510  Biso   1.000  H
  H30      1.0000 0.52570  0.36310  0.40510  Biso   1.000  H
  H31      1.0000 0.11310  0.22430  0.65510  Biso   1.000  H
  H32      1.0000 0.88690  0.27570  0.65510  Biso   1.000  H
  C33      1.0000 0.46660  0.05360  0.89360  Biso   1.000  C
  C34      1.0000 0.19640  0.21660  0.14360  Biso   1.000  C
  C35      1.0000 0.53340  0.44640  0.89360  Biso   1.000  C
  C36      1.0000 0.30360  0.78340  0.64360  Biso   1.000  C
  C37      1.0000 0.46660  0.94640  0.60640  Biso   1.000  C
  C38      1.0000 0.03340  0.05360  0.10640  Biso   1.000  C
  C39      1.0000 0.80360  0.71660  0.35640  Biso   1.000  C
  C40      1.0000 0.19640  0.78340  0.35640  Biso   1.000  C
  C41      1.0000 0.96660  0.55360  0.39360  Biso   1.000  C
  C42      1.0000 0.69640  0.71660  0.64360  Biso   1.000  C
  C43      1.0000 0.03340  0.94640  0.39360  Biso   1.000  C
  C44      1.0000 0.80360  0.28340  0.14360  Biso   1.000  C
  C45      1.0000 0.96660  0.44640  0.10640  Biso   1.000  C
  C46      1.0000 0.53340  0.55360  0.60640  Biso   1.000  C
  C47      1.0000 0.30360  0.21660  0.85640  Biso   1.000  C
  C48      1.0000 0.69640  0.28340  0.85640  Biso   1.000  C
  C49      1.0000 0.53340  0.94640  0.10640  Biso   1.000  C
  C50      1.0000 0.30360  0.28340  0.35640  Biso   1.000  C
  C51      1.0000 0.46660  0.55360  0.10640  Biso   1.000  C
  C52      1.0000 0.19640  0.71660  0.85640  Biso   1.000  C
  C53      1.0000 0.53340  0.05360  0.39360  Biso   1.000  C
  C54      1.0000 0.96660  0.94640  0.89360  Biso   1.000  C
  C55      1.0000 0.69640  0.78340  0.14360  Biso   1.000  C
  C56      1.0000 0.30360  0.71660  0.14360  Biso   1.000  C
  C57      1.0000 0.03340  0.44640  0.60640  Biso   1.000  C
  C58      1.0000 0.80360  0.78340  0.85640  Biso   1.000  C
  C59      1.0000 0.96660  0.05360  0.60640  Biso   1.000  C
  C60      1.0000 0.69640  0.21660  0.35640  Biso   1.000  C
  C61      1.0000 0.03340  0.55360  0.89360  Biso   1.000  C
  C62      1.0000 0.46660  0.44640  0.39360  Biso   1.000  C
  C63      1.0000 0.19640  0.28340  0.64360  Biso   1.000  C
  C64      1.0000 0.80360  0.21660  0.64360  Biso   1.000  C
  H33      1.0000 0.47350  0.03970  0.84580  Biso   1.000  H
  H34      1.0000 0.21030  0.22350  0.09580  Biso   1.000  H
  H35      1.0000 0.52650  0.46030  0.84580  Biso   1.000  H
  H36      1.0000 0.28970  0.77650  0.59580  Biso   1.000  H
  H37      1.0000 0.47350  0.96030  0.65420  Biso   1.000  H
  H38      1.0000 0.02650  0.03970  0.15420  Biso   1.000  H
  H39      1.0000 0.78970  0.72350  0.40420  Biso   1.000  H
  H40      1.0000 0.21030  0.77650  0.40420  Biso   1.000  H
  H41      1.0000 0.97350  0.53970  0.34580  Biso   1.000  H
  H42      1.0000 0.71030  0.72350  0.59580  Biso   1.000  H
  H43      1.0000 0.02650  0.96030  0.34580  Biso   1.000  H
  H44      1.0000 0.78970  0.27650  0.09580  Biso   1.000  H
  H45      1.0000 0.97350  0.46030  0.15420  Biso   1.000  H
  H46      1.0000 0.52650  0.53970  0.65420  Biso   1.000  H
  H47      1.0000 0.28970  0.22350  0.90420  Biso   1.000  H
  H48      1.0000 0.71030  0.27650  0.90420  Biso   1.000  H
  H49      1.0000 0.52650  0.96030  0.15420  Biso   1.000  H
  H50      1.0000 0.28970  0.27650  0.40420  Biso   1.000  H
  H51      1.0000 0.47350  0.53970  0.15420  Biso   1.000  H
  H52      1.0000 0.21030  0.72350  0.90420  Biso   1.000  H
  H53      1.0000 0.52650  0.03970  0.34580  Biso   1.000  H
  H54      1.0000 0.97350  0.96030  0.84580  Biso   1.000  H
  H55      1.0000 0.71030  0.77650  0.09580  Biso   1.000  H
  H56      1.0000 0.28970  0.72350  0.09580  Biso   1.000  H
  H57      1.0000 0.02650  0.46030  0.65420  Biso   1.000  H
  H58      1.0000 0.78970  0.77650  0.90420  Biso   1.000  H
  H59      1.0000 0.97350  0.03970  0.65420  Biso   1.000  H
  H60      1.0000 0.71030  0.22350  0.40420  Biso   1.000  H
  H61      1.0000 0.02650  0.53970  0.84580  Biso   1.000  H
  H62      1.0000 0.47350  0.46030  0.34580  Biso   1.000  H
  H63      1.0000 0.21030  0.27650  0.59580  Biso   1.000  H
  H64      1.0000 0.78970  0.22350  0.59580  Biso   1.000  H
  C65      1.0000 0.43140  0.06090  0.00490  Biso   1.000  C
  C66      1.0000 0.18910  0.18140  0.25490  Biso   1.000  C
  C67      1.0000 0.56860  0.43910  0.00490  Biso   1.000  C
  C68      1.0000 0.31090  0.81860  0.75490  Biso   1.000  C
  C69      1.0000 0.43140  0.93910  0.49510  Biso   1.000  C
  C70      1.0000 0.06860  0.06090  0.99510  Biso   1.000  C
  C71      1.0000 0.81090  0.68140  0.24510  Biso   1.000  C
  C72      1.0000 0.18910  0.81860  0.24510  Biso   1.000  C
  C73      1.0000 0.93140  0.56090  0.50490  Biso   1.000  C
  C74      1.0000 0.68910  0.68140  0.75490  Biso   1.000  C
  C75      1.0000 0.06860  0.93910  0.50490  Biso   1.000  C
  C76      1.0000 0.81090  0.31860  0.25490  Biso   1.000  C
  C77      1.0000 0.93140  0.43910  0.99510  Biso   1.000  C
  C78      1.0000 0.56860  0.56090  0.49510  Biso   1.000  C
  C79      1.0000 0.31090  0.18140  0.74510  Biso   1.000  C
  C80      1.0000 0.68910  0.31860  0.74510  Biso   1.000  C
  C81      1.0000 0.56860  0.93910  0.99510  Biso   1.000  C
  C82      1.0000 0.31090  0.31860  0.24510  Biso   1.000  C
  C83      1.0000 0.43140  0.56090  0.99510  Biso   1.000  C
  C84      1.0000 0.18910  0.68140  0.74510  Biso   1.000  C
  C85      1.0000 0.56860  0.06090  0.50490  Biso   1.000  C
  C86      1.0000 0.93140  0.93910  0.00490  Biso   1.000  C
  C87      1.0000 0.68910  0.81860  0.25490  Biso   1.000  C
  C88      1.0000 0.31090  0.68140  0.25490  Biso   1.000  C
  C89      1.0000 0.06860  0.43910  0.49510  Biso   1.000  C
  C90      1.0000 0.81090  0.81860  0.74510  Biso   1.000  C
  C91      1.0000 0.93140  0.06090  0.49510  Biso   1.000  C
  C92      1.0000 0.68910  0.18140  0.24510  Biso   1.000  C
  C93      1.0000 0.06860  0.56090  0.00490  Biso   1.000  C
  C94      1.0000 0.43140  0.43910  0.50490  Biso   1.000  C
  C95      1.0000 0.18910  0.31860  0.75490  Biso   1.000  C
  C96      1.0000 0.81090  0.18140  0.75490  Biso   1.000  C
  H65      1.0000 0.40800  0.05160  0.04770  Biso   1.000  H
  H66      1.0000 0.19840  0.15800  0.29770  Biso   1.000  H
  H67      1.0000 0.59200  0.44840  0.04770  Biso   1.000  H
  H68      1.0000 0.30160  0.84200  0.79770  Biso   1.000  H
  H69      1.0000 0.40800  0.94840  0.45230  Biso   1.000  H
  H70      1.0000 0.09200  0.05160  0.95230  Biso   1.000  H
  H71      1.0000 0.80160  0.65800  0.20230  Biso   1.000  H
  H72      1.0000 0.19840  0.84200  0.20230  Biso   1.000  H
  H73      1.0000 0.90800  0.55160  0.54770  Biso   1.000  H
  H74      1.0000 0.69840  0.65800  0.79770  Biso   1.000  H
  H75      1.0000 0.09200  0.94840  0.54770  Biso   1.000  H
  H76      1.0000 0.80160  0.34200  0.29770  Biso   1.000  H
  H77      1.0000 0.90800  0.44840  0.95230  Biso   1.000  H
  H78      1.0000 0.59200  0.55160  0.45230  Biso   1.000  H
  H79      1.0000 0.30160  0.15800  0.70230  Biso   1.000  H
  H80      1.0000 0.69840  0.34200  0.70230  Biso   1.000  H
  H81      1.0000 0.59200  0.94840  0.95230  Biso   1.000  H
  H82      1.0000 0.30160  0.34200  0.20230  Biso   1.000  H
  H83      1.0000 0.40800  0.55160  0.95230  Biso   1.000  H
  H84      1.0000 0.19840  0.65800  0.70230  Biso   1.000  H
  H85      1.0000 0.59200  0.05160  0.54770  Biso   1.000  H
  H86      1.0000 0.90800  0.94840  0.04770  Biso   1.000  H
  H87      1.0000 0.69840  0.84200  0.29770  Biso   1.000  H
  H88      1.0000 0.30160  0.65800  0.29770  Biso   1.000  H
  H89      1.0000 0.09200  0.44840  0.45230  Biso   1.000  H
  H90      1.0000 0.80160  0.84200  0.70230  Biso   1.000  H
  H91      1.0000 0.90800  0.05160  0.45230  Biso   1.000  H
  H92      1.0000 0.69840  0.15800  0.20230  Biso   1.000  H
  H93      1.0000 0.09200  0.55160  0.04770  Biso   1.000  H
  H94      1.0000 0.40800  0.44840  0.54770  Biso   1.000  H
  H95      1.0000 0.19840  0.34200  0.79770  Biso   1.000  H
  H96      1.0000 0.80160  0.15800  0.79770  Biso   1.000  H
  C97      1.0000 0.38090  0.96580  0.93280  Biso   1.000  C
  C98      1.0000 0.28420  0.13090  0.18280  Biso   1.000  C
  C99      1.0000 0.61910  0.53420  0.93280  Biso   1.000  C
  C100     1.0000 0.21580  0.86910  0.68280  Biso   1.000  C
  C101     1.0000 0.38090  0.03420  0.56720  Biso   1.000  C
  C102     1.0000 0.11910  0.96580  0.06720  Biso   1.000  C
  C103     1.0000 0.71580  0.63090  0.31720  Biso   1.000  C
  C104     1.0000 0.28420  0.86910  0.31720  Biso   1.000  C
  C105     1.0000 0.88090  0.46580  0.43280  Biso   1.000  C
  C106     1.0000 0.78420  0.63090  0.68280  Biso   1.000  C
  C107     1.0000 0.11910  0.03420  0.43280  Biso   1.000  C
  C108     1.0000 0.71580  0.36910  0.18280  Biso   1.000  C
  C109     1.0000 0.88090  0.53420  0.06720  Biso   1.000  C
  C110     1.0000 0.61910  0.46580  0.56720  Biso   1.000  C
  C111     1.0000 0.21580  0.13090  0.81720  Biso   1.000  C
  C112     1.0000 0.78420  0.36910  0.81720  Biso   1.000  C
  C113     1.0000 0.61910  0.03420  0.06720  Biso   1.000  C
  C114     1.0000 0.21580  0.36910  0.31720  Biso   1.000  C
  C115     1.0000 0.38090  0.46580  0.06720  Biso   1.000  C
  C116     1.0000 0.28420  0.63090  0.81720  Biso   1.000  C
  C117     1.0000 0.61910  0.96580  0.43280  Biso   1.000  C
  C118     1.0000 0.88090  0.03420  0.93280  Biso   1.000  C
  C119     1.0000 0.78420  0.86910  0.18280  Biso   1.000  C
  C120     1.0000 0.21580  0.63090  0.18280  Biso   1.000  C
  C121     1.0000 0.11910  0.53420  0.56720  Biso   1.000  C
  C122     1.0000 0.71580  0.86910  0.81720  Biso   1.000  C
  C123     1.0000 0.88090  0.96580  0.56720  Biso   1.000  C
  C124     1.0000 0.78420  0.13090  0.31720  Biso   1.000  C
  C125     1.0000 0.11910  0.46580  0.93280  Biso   1.000  C
  C126     1.0000 0.38090  0.53420  0.43280  Biso   1.000  C
  C127     1.0000 0.28420  0.36910  0.68280  Biso   1.000  C
  C128     1.0000 0.71580  0.13090  0.68280  Biso   1.000  C
  H97      1.0000 0.37540  0.94220  0.97870  Biso   1.000  H
  H98      1.0000 0.30780  0.12540  0.22870  Biso   1.000  H
  H99      1.0000 0.62460  0.55780  0.97870  Biso   1.000  H
  H100     1.0000 0.19220  0.87460  0.72870  Biso   1.000  H
  H101     1.0000 0.37540  0.05780  0.52130  Biso   1.000  H
  H102     1.0000 0.12460  0.94220  0.02130  Biso   1.000  H
  H103     1.0000 0.69220  0.62540  0.27130  Biso   1.000  H
  H104     1.0000 0.30780  0.87460  0.27130  Biso   1.000  H
  H105     1.0000 0.87540  0.44220  0.47870  Biso   1.000  H
  H106     1.0000 0.80780  0.62540  0.72870  Biso   1.000  H
  H107     1.0000 0.12460  0.05780  0.47870  Biso   1.000  H
  H108     1.0000 0.69220  0.37460  0.22870  Biso   1.000  H
  H109     1.0000 0.87540  0.55780  0.02130  Biso   1.000  H
  H110     1.0000 0.62460  0.44220  0.52130  Biso   1.000  H
  H111     1.0000 0.19220  0.12540  0.77130  Biso   1.000  H
  H112     1.0000 0.80780  0.37460  0.77130  Biso   1.000  H
  H113     1.0000 0.62460  0.05780  0.02130  Biso   1.000  H
  H114     1.0000 0.19220  0.37460  0.27130  Biso   1.000  H
  H115     1.0000 0.37540  0.44220  0.02130  Biso   1.000  H
  H116     1.0000 0.30780  0.62540  0.77130  Biso   1.000  H
  H117     1.0000 0.62460  0.94220  0.47870  Biso   1.000  H
  H118     1.0000 0.87540  0.05780  0.97870  Biso   1.000  H
  H119     1.0000 0.80780  0.87460  0.22870  Biso   1.000  H
  H120     1.0000 0.19220  0.62540  0.22870  Biso   1.000  H
  H121     1.0000 0.12460  0.55780  0.52130  Biso   1.000  H
  H122     1.0000 0.69220  0.87460  0.77130  Biso   1.000  H
  H123     1.0000 0.87540  0.94220  0.52130  Biso   1.000  H
  H124     1.0000 0.80780  0.12540  0.27130  Biso   1.000  H
  H125     1.0000 0.12460  0.44220  0.97870  Biso   1.000  H
  H126     1.0000 0.37540  0.55780  0.47870  Biso   1.000  H
  H127     1.0000 0.30780  0.37460  0.72870  Biso   1.000  H
  H128     1.0000 0.69220  0.12540  0.72870  Biso   1.000  H
  H129     1.0000 0.40250  0.93490  0.89890  Biso   1.000  H
  H130     1.0000 0.31510  0.15250  0.14890  Biso   1.000  H
  H131     1.0000 0.59750  0.56510  0.89890  Biso   1.000  H
  H132     1.0000 0.18490  0.84750  0.64890  Biso   1.000  H
  H133     1.0000 0.40250  0.06510  0.60110  Biso   1.000  H
  H134     1.0000 0.09750  0.93490  0.10110  Biso   1.000  H
  H135     1.0000 0.68490  0.65250  0.35110  Biso   1.000  H
  H136     1.0000 0.31510  0.84750  0.35110  Biso   1.000  H
  H137     1.0000 0.90250  0.43490  0.39890  Biso   1.000  H
  H138     1.0000 0.81510  0.65250  0.64890  Biso   1.000  H
  H139     1.0000 0.09750  0.06510  0.39890  Biso   1.000  H
  H140     1.0000 0.68490  0.34750  0.14890  Biso   1.000  H
  H141     1.0000 0.90250  0.56510  0.10110  Biso   1.000  H
  H142     1.0000 0.59750  0.43490  0.60110  Biso   1.000  H
  H143     1.0000 0.18490  0.15250  0.85110  Biso   1.000  H
  H144     1.0000 0.81510  0.34750  0.85110  Biso   1.000  H
  H145     1.0000 0.59750  0.06510  0.10110  Biso   1.000  H
  H146     1.0000 0.18490  0.34750  0.35110  Biso   1.000  H
  H147     1.0000 0.40250  0.43490  0.10110  Biso   1.000  H
  H148     1.0000 0.31510  0.65250  0.85110  Biso   1.000  H
  H149     1.0000 0.59750  0.93490  0.39890  Biso   1.000  H
  H150     1.0000 0.90250  0.06510  0.89890  Biso   1.000  H
  H151     1.0000 0.81510  0.84750  0.14890  Biso   1.000  H
  H152     1.0000 0.18490  0.65250  0.14890  Biso   1.000  H
  H153     1.0000 0.09750  0.56510  0.60110  Biso   1.000  H
  H154     1.0000 0.68490  0.84750  0.85110  Biso   1.000  H
  H155     1.0000 0.90250  0.93490  0.60110  Biso   1.000  H
  H156     1.0000 0.81510  0.15250  0.35110  Biso   1.000  H
  H157     1.0000 0.09750  0.43490  0.89890  Biso   1.000  H
  H158     1.0000 0.40250  0.56510  0.39890  Biso   1.000  H
  H159     1.0000 0.31510  0.34750  0.64890  Biso   1.000  H
  H160     1.0000 0.68490  0.15250  0.64890  Biso   1.000  H
  C129     1.0000 0.19920  0.94920  0.87500  Biso   1.000  C
  C130     1.0000 0.30080  0.94920  0.12500  Biso   1.000  C
  C131     1.0000 0.80080  0.55080  0.87500  Biso   1.000  C
  C132     1.0000 0.19920  0.05080  0.62500  Biso   1.000  C
  C133     1.0000 0.69920  0.44920  0.37500  Biso   1.000  C
  C134     1.0000 0.30080  0.05080  0.37500  Biso   1.000  C
  C135     1.0000 0.80080  0.44920  0.62500  Biso   1.000  C
  C136     1.0000 0.69920  0.55080  0.12500  Biso   1.000  C
  C137     1.0000 0.80080  0.05080  0.12500  Biso   1.000  C
  C138     1.0000 0.19920  0.55080  0.37500  Biso   1.000  C
  C139     1.0000 0.19920  0.44920  0.12500  Biso   1.000  C
  C140     1.0000 0.30080  0.44920  0.87500  Biso   1.000  C
  C141     1.0000 0.80080  0.94920  0.37500  Biso   1.000  C
  C142     1.0000 0.69920  0.05080  0.87500  Biso   1.000  C
  C143     1.0000 0.30080  0.55080  0.62500  Biso   1.000  C
  C144     1.0000 0.69920  0.94920  0.62500  Biso   1.000  C
  H161     1.0000 0.16590  0.91590  0.87500  Biso   1.000  H
  H162     1.0000 0.33410  0.91590  0.12500  Biso   1.000  H
  H163     1.0000 0.83410  0.58410  0.87500  Biso   1.000  H
  H164     1.0000 0.16590  0.08410  0.62500  Biso   1.000  H
  H165     1.0000 0.66590  0.41590  0.37500  Biso   1.000  H
  H166     1.0000 0.33410  0.08410  0.37500  Biso   1.000  H
  H167     1.0000 0.83410  0.41590  0.62500  Biso   1.000  H
  H168     1.0000 0.66590  0.58410  0.12500  Biso   1.000  H
  H169     1.0000 0.83410  0.08410  0.12500  Biso   1.000  H
  H170     1.0000 0.16590  0.58410  0.37500  Biso   1.000  H
  H171     1.0000 0.16590  0.41590  0.12500  Biso   1.000  H
  H172     1.0000 0.33410  0.41590  0.87500  Biso   1.000  H
  H173     1.0000 0.83410  0.91590  0.37500  Biso   1.000  H
  H174     1.0000 0.66590  0.08410  0.87500  Biso   1.000  H
  H175     1.0000 0.33410  0.58410  0.62500  Biso   1.000  H
  H176     1.0000 0.66590  0.91590  0.62500  Biso   1.000  H
  C145     1.0000 0.26220  0.93490  0.90410  Biso   1.000  C
  C146     1.0000 0.31510  0.01220  0.15410  Biso   1.000  C
  C147     1.0000 0.73780  0.56510  0.90410  Biso   1.000  C
  C148     1.0000 0.18490  0.98780  0.65410  Biso   1.000  C
  C149     1.0000 0.26220  0.06510  0.59590  Biso   1.000  C
  C150     1.0000 0.23780  0.93490  0.09590  Biso   1.000  C
  C151     1.0000 0.68490  0.51220  0.34590  Biso   1.000  C
  C152     1.0000 0.31510  0.98780  0.34590  Biso   1.000  C
  C153     1.0000 0.76220  0.43490  0.40410  Biso   1.000  C
  C154     1.0000 0.81510  0.51220  0.65410  Biso   1.000  C
  C155     1.0000 0.23780  0.06510  0.40410  Biso   1.000  C
  C156     1.0000 0.68490  0.48780  0.15410  Biso   1.000  C
  C157     1.0000 0.76220  0.56510  0.09590  Biso   1.000  C
  C158     1.0000 0.73780  0.43490  0.59590  Biso   1.000  C
  C159     1.0000 0.18490  0.01220  0.84590  Biso   1.000  C
  C160     1.0000 0.81510  0.48780  0.84590  Biso   1.000  C
  C161     1.0000 0.73780  0.06510  0.09590  Biso   1.000  C
  C162     1.0000 0.18490  0.48780  0.34590  Biso   1.000  C
  C163     1.0000 0.26220  0.43490  0.09590  Biso   1.000  C
  C164     1.0000 0.31510  0.51220  0.84590  Biso   1.000  C
  C165     1.0000 0.73780  0.93490  0.40410  Biso   1.000  C
  C166     1.0000 0.76220  0.06510  0.90410  Biso   1.000  C
  C167     1.0000 0.81510  0.98780  0.15410  Biso   1.000  C
  C168     1.0000 0.18490  0.51220  0.15410  Biso   1.000  C
  C169     1.0000 0.23780  0.56510  0.59590  Biso   1.000  C
  C170     1.0000 0.68490  0.98780  0.84590  Biso   1.000  C
  C171     1.0000 0.76220  0.93490  0.59590  Biso   1.000  C
  C172     1.0000 0.81510  0.01220  0.34590  Biso   1.000  C
  C173     1.0000 0.23780  0.43490  0.90410  Biso   1.000  C
  C174     1.0000 0.26220  0.56510  0.40410  Biso   1.000  C
  C175     1.0000 0.31510  0.48780  0.65410  Biso   1.000  C
  C176     1.0000 0.68490  0.01220  0.65410  Biso   1.000  C
  H177     1.0000 0.27110  0.89260  0.92390  Biso   1.000  H
  H178     1.0000 0.35740  0.02110  0.17390  Biso   1.000  H
  H179     1.0000 0.72890  0.60740  0.92390  Biso   1.000  H
  H180     1.0000 0.14260  0.97890  0.67390  Biso   1.000  H
  H181     1.0000 0.27110  0.10740  0.57610  Biso   1.000  H
  H182     1.0000 0.22890  0.89260  0.07610  Biso   1.000  H
  H183     1.0000 0.64260  0.52110  0.32610  Biso   1.000  H
  H184     1.0000 0.35740  0.97890  0.32610  Biso   1.000  H
  H185     1.0000 0.77110  0.39260  0.42390  Biso   1.000  H
  H186     1.0000 0.85740  0.52110  0.67390  Biso   1.000  H
  H187     1.0000 0.22890  0.10740  0.42390  Biso   1.000  H
  H188     1.0000 0.64260  0.47890  0.17390  Biso   1.000  H
  H189     1.0000 0.77110  0.60740  0.07610  Biso   1.000  H
  H190     1.0000 0.72890  0.39260  0.57610  Biso   1.000  H
  H191     1.0000 0.14260  0.02110  0.82610  Biso   1.000  H
  H192     1.0000 0.85740  0.47890  0.82610  Biso   1.000  H
  H193     1.0000 0.72890  0.10740  0.07610  Biso   1.000  H
  H194     1.0000 0.14260  0.47890  0.32610  Biso   1.000  H
  H195     1.0000 0.27110  0.39260  0.07610  Biso   1.000  H
  H196     1.0000 0.35740  0.52110  0.82610  Biso   1.000  H
  H197     1.0000 0.72890  0.89260  0.42390  Biso   1.000  H
  H198     1.0000 0.77110  0.10740  0.92390  Biso   1.000  H
  H199     1.0000 0.85740  0.97890  0.17390  Biso   1.000  H
  H200     1.0000 0.14260  0.52110  0.17390  Biso   1.000  H
  H201     1.0000 0.22890  0.60740  0.57610  Biso   1.000  H
  H202     1.0000 0.64260  0.97890  0.82610  Biso   1.000  H
  H203     1.0000 0.77110  0.89260  0.57610  Biso   1.000  H
  H204     1.0000 0.85740  0.02110  0.32610  Biso   1.000  H
  H205     1.0000 0.22890  0.39260  0.92390  Biso   1.000  H
  H206     1.0000 0.27110  0.60740  0.42390  Biso   1.000  H
  H207     1.0000 0.35740  0.47890  0.67390  Biso   1.000  H
  H208     1.0000 0.64260  0.02110  0.67390  Biso   1.000  H
  C177     1.0000 0.31160  0.98410  0.90360  Biso   1.000  C
  C178     1.0000 0.26590  0.06160  0.15360  Biso   1.000  C
  C179     1.0000 0.68840  0.51590  0.90360  Biso   1.000  C
  C180     1.0000 0.23410  0.93840  0.65360  Biso   1.000  C
  C181     1.0000 0.31160  0.01590  0.59640  Biso   1.000  C
  C182     1.0000 0.18840  0.98410  0.09640  Biso   1.000  C
  C183     1.0000 0.73410  0.56160  0.34640  Biso   1.000  C
  C184     1.0000 0.26590  0.93840  0.34640  Biso   1.000  C
  C185     1.0000 0.81160  0.48410  0.40360  Biso   1.000  C
  C186     1.0000 0.76590  0.56160  0.65360  Biso   1.000  C
  C187     1.0000 0.18840  0.01590  0.40360  Biso   1.000  C
  C188     1.0000 0.73410  0.43840  0.15360  Biso   1.000  C
  C189     1.0000 0.81160  0.51590  0.09640  Biso   1.000  C
  C190     1.0000 0.68840  0.48410  0.59640  Biso   1.000  C
  C191     1.0000 0.23410  0.06160  0.84640  Biso   1.000  C
  C192     1.0000 0.76590  0.43840  0.84640  Biso   1.000  C
  C193     1.0000 0.68840  0.01590  0.09640  Biso   1.000  C
  C194     1.0000 0.23410  0.43840  0.34640  Biso   1.000  C
  C195     1.0000 0.31160  0.48410  0.09640  Biso   1.000  C
  C196     1.0000 0.26590  0.56160  0.84640  Biso   1.000  C
  C197     1.0000 0.68840  0.98410  0.40360  Biso   1.000  C
  C198     1.0000 0.81160  0.01590  0.90360  Biso   1.000  C
  C199     1.0000 0.76590  0.93840  0.15360  Biso   1.000  C
  C200     1.0000 0.23410  0.56160  0.15360  Biso   1.000  C
  C201     1.0000 0.18840  0.51590  0.59640  Biso   1.000  C
  C202     1.0000 0.73410  0.93840  0.84640  Biso   1.000  C
  C203     1.0000 0.81160  0.98410  0.59640  Biso   1.000  C
  C204     1.0000 0.76590  0.06160  0.34640  Biso   1.000  C
  C205     1.0000 0.18840  0.48410  0.90360  Biso   1.000  C
  C206     1.0000 0.31160  0.51590  0.40360  Biso   1.000  C
  C207     1.0000 0.26590  0.43840  0.65360  Biso   1.000  C
  C208     1.0000 0.73410  0.06160  0.65360  Biso   1.000  C
  C209     1.0000 0.29660  0.04660  0.87500  Biso   1.000  C
  C210     1.0000 0.20340  0.04660  0.12500  Biso   1.000  C
  C211     1.0000 0.70340  0.45340  0.87500  Biso   1.000  C
  C212     1.0000 0.29660  0.95340  0.62500  Biso   1.000  C
  C213     1.0000 0.79660  0.54660  0.37500  Biso   1.000  C
  C214     1.0000 0.20340  0.95340  0.37500  Biso   1.000  C
  C215     1.0000 0.70340  0.54660  0.62500  Biso   1.000  C
  C216     1.0000 0.79660  0.45340  0.12500  Biso   1.000  C
  C217     1.0000 0.70340  0.95340  0.12500  Biso   1.000  C
  C218     1.0000 0.29660  0.45340  0.37500  Biso   1.000  C
  C219     1.0000 0.29660  0.54660  0.12500  Biso   1.000  C
  C220     1.0000 0.20340  0.54660  0.87500  Biso   1.000  C
  C221     1.0000 0.70340  0.04660  0.37500  Biso   1.000  C
  C222     1.0000 0.79660  0.95340  0.87500  Biso   1.000  C
  C223     1.0000 0.20340  0.45340  0.62500  Biso   1.000  C
  C224     1.0000 0.79660  0.04660  0.62500  Biso   1.000  C
  H209     1.0000 0.32990  0.07990  0.87500  Biso   1.000  H
  H210     1.0000 0.17010  0.07990  0.12500  Biso   1.000  H
  H211     1.0000 0.67010  0.42010  0.87500  Biso   1.000  H
  H212     1.0000 0.32990  0.92010  0.62500  Biso   1.000  H
  H213     1.0000 0.82990  0.57990  0.37500  Biso   1.000  H
  H214     1.0000 0.17010  0.92010  0.37500  Biso   1.000  H
  H215     1.0000 0.67010  0.57990  0.62500  Biso   1.000  H
  H216     1.0000 0.82990  0.42010  0.12500  Biso   1.000  H
  H217     1.0000 0.67010  0.92010  0.12500  Biso   1.000  H
  H218     1.0000 0.32990  0.42010  0.37500  Biso   1.000  H
  H219     1.0000 0.32990  0.57990  0.12500  Biso   1.000  H
  H220     1.0000 0.17010  0.57990  0.87500  Biso   1.000  H
  H221     1.0000 0.67010  0.07990  0.37500  Biso   1.000  H
  H222     1.0000 0.82990  0.92010  0.87500  Biso   1.000  H
  H223     1.0000 0.17010  0.42010  0.62500  Biso   1.000  H
  H224     1.0000 0.82990  0.07990  0.62500  Biso   1.000  H
