data_image0
_cell_length_a       11.339
_cell_length_b       21.987
_cell_length_c       7.976
_cell_angle_alpha    90
_cell_angle_beta     103.857
_cell_angle_gamma    90

_symmetry_space_group_name_H-M    "P 1"
_symmetry_int_tables_number       1

loop_
  _symmetry_equiv_pos_as_xyz
  'x, y, z'

loop_
  _atom_site_label
  _atom_site_occupancy
  _atom_site_fract_x
  _atom_site_fract_y
  _atom_site_fract_z
  _atom_site_thermal_displace_type
  _atom_site_B_iso_or_equiv
  _atom_site_type_symbol
  Cu1      1.0000 0.26298  0.31012  0.79762  Biso   1.000  Cu
  Cu2      1.0000 0.73702  0.81012  0.70238  Biso   1.000  Cu
  Cu3      1.0000 0.73702  0.68988  0.20238  Biso   1.000  Cu
  Cu4      1.0000 0.26298  0.18988  0.29762  Biso   1.000  Cu
  Cu5      1.0000 0.47802  0.26932  0.04471  Biso   1.000  Cu
  Cu6      1.0000 0.52198  0.76932  0.45529  Biso   1.000  Cu
  Cu7      1.0000 0.52198  0.73068  0.95529  Biso   1.000  Cu
  Cu8      1.0000 0.47802  0.23068  0.54471  Biso   1.000  Cu
  Cu9      1.0000 0.49598  0.33938  0.76916  Biso   1.000  Cu
  Cu10     1.0000 0.50402  0.83938  0.73084  Biso   1.000  Cu
  Cu11     1.0000 0.50402  0.66062  0.23084  Biso   1.000  Cu
  Cu12     1.0000 0.49598  0.16062  0.26916  Biso   1.000  Cu
  I1       1.0000 0.40186  0.38359  0.02269  Biso   1.000  I
  I2       1.0000 0.59814  0.88359  0.47731  Biso   1.000  I
  I3       1.0000 0.59814  0.61641  0.97731  Biso   1.000  I
  I4       1.0000 0.40186  0.11641  0.52269  Biso   1.000  I
  I5       1.0000 0.62939  0.25963  0.35317  Biso   1.000  I
  I6       1.0000 0.37061  0.75963  0.14683  Biso   1.000  I
  I7       1.0000 0.37061  0.74037  0.64683  Biso   1.000  I
  I8       1.0000 0.62939  0.24037  0.85317  Biso   1.000  I
  I9       1.0000 0.29794  0.31190  0.48945  Biso   1.000  I
  I10      1.0000 0.70206  0.81190  0.01055  Biso   1.000  I
  I11      1.0000 0.70206  0.68810  0.51055  Biso   1.000  I
  I12      1.0000 0.29794  0.18810  0.98945  Biso   1.000  I
  C1       1.0000 0.07390  0.31560  0.98640  Biso   1.000  C
  C2       1.0000 0.92610  0.81560  0.51360  Biso   1.000  C
  C3       1.0000 0.92610  0.68440  0.01360  Biso   1.000  C
  C4       1.0000 0.07390  0.18440  0.48640  Biso   1.000  C
  H1       1.0000 0.13300  0.30500  0.09200  Biso   1.000  H
  H2       1.0000 0.86700  0.80500  0.40800  Biso   1.000  H
  H3       1.0000 0.86700  0.69500  0.90800  Biso   1.000  H
  H4       1.0000 0.13300  0.19500  0.59200  Biso   1.000  H
  C5       1.0000 0.98520  0.33150  0.72140  Biso   1.000  C
  C6       1.0000 0.01480  0.83150  0.77860  Biso   1.000  C
  C7       1.0000 0.01480  0.66850  0.27860  Biso   1.000  C
  C8       1.0000 0.98520  0.16850  0.22140  Biso   1.000  C
  H5       1.0000 0.97300  0.34300  0.59400  Biso   1.000  H
  H6       1.0000 0.02700  0.84300  0.90600  Biso   1.000  H
  H7       1.0000 0.02700  0.65700  0.40600  Biso   1.000  H
  H8       1.0000 0.97300  0.15700  0.09400  Biso   1.000  H
  C9       1.0000 0.89990  0.33840  0.81330  Biso   1.000  C
  C10      1.0000 0.10010  0.83840  0.68670  Biso   1.000  C
  C11      1.0000 0.10010  0.66160  0.18670  Biso   1.000  C
  C12      1.0000 0.89990  0.16160  0.31330  Biso   1.000  C
  H9       1.0000 0.81850  0.34820  0.77040  Biso   1.000  H
  H10      1.0000 0.18150  0.84820  0.72960  Biso   1.000  H
  H11      1.0000 0.18150  0.65180  0.22960  Biso   1.000  H
  H12      1.0000 0.81850  0.15180  0.27040  Biso   1.000  H
  C13      1.0000 0.90790  0.33300  0.13610  Biso   1.000  C
  C14      1.0000 0.09210  0.83300  0.36390  Biso   1.000  C
  C15      1.0000 0.09210  0.66700  0.86390  Biso   1.000  C
  C16      1.0000 0.90790  0.16700  0.63610  Biso   1.000  C
  H13      1.0000 0.96400  0.31080  0.23100  Biso   1.000  H
  H14      1.0000 0.03600  0.81080  0.26900  Biso   1.000  H
  H15      1.0000 0.03600  0.68920  0.76900  Biso   1.000  H
  H16      1.0000 0.96400  0.18920  0.73100  Biso   1.000  H
  H17      1.0000 0.83500  0.31600  0.10200  Biso   1.000  H
  H18      1.0000 0.16500  0.81600  0.39800  Biso   1.000  H
  H19      1.0000 0.16500  0.68400  0.89800  Biso   1.000  H
  H20      1.0000 0.83500  0.18400  0.60200  Biso   1.000  H
  C17      1.0000 0.89400  0.39790  0.18970  Biso   1.000  C
  C18      1.0000 0.10600  0.89790  0.31030  Biso   1.000  C
  C19      1.0000 0.10600  0.60210  0.81030  Biso   1.000  C
  C20      1.0000 0.89400  0.10210  0.68970  Biso   1.000  C
  C21      1.0000 0.98340  0.44130  0.19040  Biso   1.000  C
  C22      1.0000 0.01660  0.94130  0.30960  Biso   1.000  C
  C23      1.0000 0.01660  0.55870  0.80960  Biso   1.000  C
  C24      1.0000 0.98340  0.05870  0.69040  Biso   1.000  C
  H21      1.0000 0.04900  0.42900  0.16200  Biso   1.000  H
  H22      1.0000 0.95100  0.92900  0.33800  Biso   1.000  H
  H23      1.0000 0.95100  0.57100  0.83800  Biso   1.000  H
  H24      1.0000 0.04900  0.07100  0.66200  Biso   1.000  H
  C25      1.0000 0.96920  0.49940  0.24110  Biso   1.000  C
  C26      1.0000 0.03080  0.99940  0.25890  Biso   1.000  C
  C27      1.0000 0.03080  0.50060  0.75890  Biso   1.000  C
  C28      1.0000 0.96920  0.00060  0.74110  Biso   1.000  C
  H25      1.0000 0.03020  0.52780  0.24170  Biso   1.000  H
  H26      1.0000 0.96980  0.02780  0.25830  Biso   1.000  H
  H27      1.0000 0.96980  0.47220  0.75830  Biso   1.000  H
  H28      1.0000 0.03020  0.97220  0.74170  Biso   1.000  H
  C29      1.0000 0.86620  0.51710  0.29170  Biso   1.000  C
  C30      1.0000 0.13380  0.01710  0.20830  Biso   1.000  C
  C31      1.0000 0.13380  0.48290  0.70830  Biso   1.000  C
  C32      1.0000 0.86620  0.98290  0.79170  Biso   1.000  C
  H29      1.0000 0.86200  0.55800  0.34100  Biso   1.000  H
  H30      1.0000 0.13800  0.05800  0.15900  Biso   1.000  H
  H31      1.0000 0.13800  0.44200  0.65900  Biso   1.000  H
  H32      1.0000 0.86200  0.94200  0.84100  Biso   1.000  H
  C33      1.0000 0.77610  0.47498  0.29270  Biso   1.000  C
  C34      1.0000 0.22390  0.97498  0.20730  Biso   1.000  C
  C35      1.0000 0.22390  0.52502  0.70730  Biso   1.000  C
  C36      1.0000 0.77610  0.02502  0.79270  Biso   1.000  C
  C37      1.0000 0.79060  0.41580  0.23960  Biso   1.000  C
  C38      1.0000 0.20940  0.91580  0.26040  Biso   1.000  C
  C39      1.0000 0.20940  0.58420  0.76040  Biso   1.000  C
  C40      1.0000 0.79060  0.08420  0.73960  Biso   1.000  C
  H33      1.0000 0.73700  0.38800  0.23700  Biso   1.000  H
  H34      1.0000 0.26300  0.88800  0.26300  Biso   1.000  H
  H35      1.0000 0.26300  0.61200  0.76300  Biso   1.000  H
  H36      1.0000 0.73700  0.11200  0.73700  Biso   1.000  H
  C41      1.0000 0.58070  0.41864  0.51870  Biso   1.000  C
  C42      1.0000 0.41930  0.91864  0.98130  Biso   1.000  C
  C43      1.0000 0.41930  0.58136  0.48130  Biso   1.000  C
  C44      1.0000 0.58070  0.08136  0.01870  Biso   1.000  C
  H37      1.0000 0.54300  0.39600  0.42400  Biso   1.000  H
  H38      1.0000 0.45700  0.89600  0.07600  Biso   1.000  H
  H39      1.0000 0.45700  0.60400  0.57600  Biso   1.000  H
  H40      1.0000 0.54300  0.10400  0.92400  Biso   1.000  H
  C45      1.0000 0.64860  0.45380  0.77050  Biso   1.000  C
  C46      1.0000 0.35140  0.95380  0.72950  Biso   1.000  C
  C47      1.0000 0.35140  0.54620  0.22950  Biso   1.000  C
  C48      1.0000 0.64860  0.04620  0.27050  Biso   1.000  C
  H41      1.0000 0.65900  0.45600  0.89200  Biso   1.000  H
  H42      1.0000 0.34100  0.95600  0.60800  Biso   1.000  H
  H43      1.0000 0.34100  0.54400  0.10800  Biso   1.000  H
  H44      1.0000 0.65900  0.04400  0.39200  Biso   1.000  H
  C49      1.0000 0.68750  0.49190  0.66380  Biso   1.000  C
  C50      1.0000 0.31250  0.99190  0.83620  Biso   1.000  C
  C51      1.0000 0.31250  0.50810  0.33620  Biso   1.000  C
  C52      1.0000 0.68750  0.00810  0.16380  Biso   1.000  C
  H45      1.0000 0.73900  0.52600  0.68200  Biso   1.000  H
  H46      1.0000 0.26100  0.02600  0.81800  Biso   1.000  H
  H47      1.0000 0.26100  0.47400  0.31800  Biso   1.000  H
  H48      1.0000 0.73900  0.97400  0.18200  Biso   1.000  H
  C53      1.0000 0.65910  0.49470  0.33790  Biso   1.000  C
  C54      1.0000 0.34090  0.99470  0.16210  Biso   1.000  C
  C55      1.0000 0.34090  0.50530  0.66210  Biso   1.000  C
  C56      1.0000 0.65910  0.00530  0.83790  Biso   1.000  C
  H49      1.0000 0.65500  0.53900  0.34500  Biso   1.000  H
  H50      1.0000 0.34500  0.03900  0.15500  Biso   1.000  H
  H51      1.0000 0.34500  0.46100  0.65500  Biso   1.000  H
  H52      1.0000 0.65500  0.96100  0.84500  Biso   1.000  H
  H53      1.0000 0.58800  0.48450  0.24600  Biso   1.000  H
  H54      1.0000 0.41200  0.98450  0.25400  Biso   1.000  H
  H55      1.0000 0.41200  0.51550  0.75400  Biso   1.000  H
  H56      1.0000 0.58800  0.01550  0.74600  Biso   1.000  H
  N1       1.0000 0.09550  0.31691  0.83180  Biso   1.000  N
  N2       1.0000 0.90450  0.81691  0.66820  Biso   1.000  N
  N3       1.0000 0.90450  0.68309  0.16820  Biso   1.000  N
  N4       1.0000 0.09550  0.18309  0.33180  Biso   1.000  N
  N5       1.0000 0.95820  0.32809  0.98250  Biso   1.000  N
  N6       1.0000 0.04180  0.82809  0.51750  Biso   1.000  N
  N7       1.0000 0.04180  0.67191  0.01750  Biso   1.000  N
  N8       1.0000 0.95820  0.17191  0.48250  Biso   1.000  N
  N9       1.0000 0.58180  0.40762  0.67980  Biso   1.000  N
  N10      1.0000 0.41820  0.90762  0.82020  Biso   1.000  N
  N11      1.0000 0.41820  0.59238  0.32020  Biso   1.000  N
  N12      1.0000 0.58180  0.09238  0.17980  Biso   1.000  N
  N13      1.0000 0.64310  0.46885  0.50060  Biso   1.000  N
  N14      1.0000 0.35690  0.96885  0.99940  Biso   1.000  N
  N15      1.0000 0.35690  0.53115  0.49940  Biso   1.000  N
  N16      1.0000 0.64310  0.03115  0.00060  Biso   1.000  N
