data_image0
_cell_length_a       17.156
_cell_length_b       7.9076
_cell_length_c       20.6059
_cell_angle_alpha    90
_cell_angle_beta     107.411
_cell_angle_gamma    90

_symmetry_space_group_name_H-M    "P 1"
_symmetry_int_tables_number       1

loop_
  _symmetry_equiv_pos_as_xyz
  'x, y, z'

loop_
  _atom_site_label
  _atom_site_occupancy
  _atom_site_fract_x
  _atom_site_fract_y
  _atom_site_fract_z
  _atom_site_thermal_displace_type
  _atom_site_B_iso_or_equiv
  _atom_site_type_symbol
  U1       1.0000 0.62565  0.14079  0.31598  Biso   1.000  U
  U2       1.0000 0.87435  0.14079  0.18402  Biso   1.000  U
  U3       1.0000 0.37435  0.85921  0.68402  Biso   1.000  U
  U4       1.0000 0.12565  0.85921  0.81598  Biso   1.000  U
  O1       1.0000 0.63842  0.23580  0.24223  Biso   1.000  O
  O2       1.0000 0.86158  0.23580  0.25777  Biso   1.000  O
  O3       1.0000 0.36158  0.76420  0.75777  Biso   1.000  O
  O4       1.0000 0.13842  0.76420  0.74223  Biso   1.000  O
  O5       1.0000 0.61120  0.04400  0.38909  Biso   1.000  O
  O6       1.0000 0.88880  0.04400  0.11091  Biso   1.000  O
  O7       1.0000 0.38880  0.95600  0.61091  Biso   1.000  O
  O8       1.0000 0.11120  0.95600  0.88909  Biso   1.000  O
  O9       1.0000 0.75992  0.23740  0.38505  Biso   1.000  O
  O10      1.0000 0.74008  0.23740  0.11495  Biso   1.000  O
  O11      1.0000 0.24008  0.76260  0.61495  Biso   1.000  O
  O12      1.0000 0.25992  0.76260  0.88505  Biso   1.000  O
  O13      1.0000 0.75666  0.98830  0.33767  Biso   1.000  O
  O14      1.0000 0.74334  0.98830  0.16233  Biso   1.000  O
  O15      1.0000 0.24334  0.01170  0.66233  Biso   1.000  O
  O16      1.0000 0.25666  0.01170  0.83767  Biso   1.000  O
  O17      1.0000 0.10935  0.14300  0.76169  Biso   1.000  O
  O18      1.0000 0.39065  0.14300  0.73831  Biso   1.000  O
  O19      1.0000 0.89065  0.85700  0.23831  Biso   1.000  O
  O20      1.0000 0.60935  0.85700  0.26169  Biso   1.000  O
  O21      1.0000 0.99777  0.99610  0.74549  Biso   1.000  O
  O22      1.0000 0.50223  0.99610  0.75451  Biso   1.000  O
  O23      1.0000 0.00223  0.00390  0.25451  Biso   1.000  O
  O24      1.0000 0.49777  0.00390  0.24549  Biso   1.000  O
  O25      1.0000 0.50580  0.31930  0.30698  Biso   1.000  O
  O26      1.0000 0.99420  0.31930  0.19302  Biso   1.000  O
  O27      1.0000 0.49420  0.68070  0.69302  Biso   1.000  O
  O28      1.0000 0.00580  0.68070  0.80698  Biso   1.000  O
  O29      1.0000 0.62501  0.42520  0.36409  Biso   1.000  O
  O30      1.0000 0.87499  0.42520  0.13591  Biso   1.000  O
  O31      1.0000 0.37499  0.57480  0.63591  Biso   1.000  O
  O32      1.0000 0.12501  0.57480  0.86409  Biso   1.000  O
  C1       1.0000 0.91240  0.14220  0.48280  Biso   1.000  C
  C2       1.0000 0.58760  0.14220  0.01720  Biso   1.000  C
  C3       1.0000 0.08760  0.85780  0.51720  Biso   1.000  C
  C4       1.0000 0.41240  0.85780  0.98280  Biso   1.000  C
  C5       1.0000 0.87600  0.06610  0.52750  Biso   1.000  C
  C6       1.0000 0.62400  0.06610  0.97250  Biso   1.000  C
  C7       1.0000 0.12400  0.93390  0.47250  Biso   1.000  C
  C8       1.0000 0.37600  0.93390  0.02750  Biso   1.000  C
  H1       1.0000 0.83520  0.98230  0.51090  Biso   1.000  H
  H2       1.0000 0.66480  0.98230  0.98910  Biso   1.000  H
  H3       1.0000 0.16480  0.01770  0.48910  Biso   1.000  H
  H4       1.0000 0.33520  0.01770  0.01090  Biso   1.000  H
  C9       1.0000 0.89830  0.11040  0.59550  Biso   1.000  C
  C10      1.0000 0.60170  0.11040  0.90450  Biso   1.000  C
  C11      1.0000 0.10170  0.88960  0.40450  Biso   1.000  C
  C12      1.0000 0.39830  0.88960  0.09550  Biso   1.000  C
  H5       1.0000 0.87260  0.05710  0.62500  Biso   1.000  H
  H6       1.0000 0.62740  0.05710  0.87500  Biso   1.000  H
  H7       1.0000 0.12740  0.94290  0.37500  Biso   1.000  H
  H8       1.0000 0.37260  0.94290  0.12500  Biso   1.000  H
  C13      1.0000 0.95790  0.23200  0.62100  Biso   1.000  C
  C14      1.0000 0.54210  0.23200  0.87900  Biso   1.000  C
  C15      1.0000 0.04210  0.76800  0.37900  Biso   1.000  C
  C16      1.0000 0.45790  0.76800  0.12100  Biso   1.000  C
  C17      1.0000 0.99330  0.31050  0.57690  Biso   1.000  C
  C18      1.0000 0.50670  0.31050  0.92310  Biso   1.000  C
  C19      1.0000 0.00670  0.68950  0.42310  Biso   1.000  C
  C20      1.0000 0.49330  0.68950  0.07690  Biso   1.000  C
  H9       1.0000 0.03370  0.39510  0.59360  Biso   1.000  H
  H10      1.0000 0.46630  0.39510  0.90640  Biso   1.000  H
  H11      1.0000 0.96630  0.60490  0.40640  Biso   1.000  H
  H12      1.0000 0.53370  0.60490  0.09360  Biso   1.000  H
  C21      1.0000 0.97060  0.26700  0.50810  Biso   1.000  C
  C22      1.0000 0.52940  0.26700  0.99190  Biso   1.000  C
  C23      1.0000 0.02940  0.73300  0.49190  Biso   1.000  C
  C24      1.0000 0.47060  0.73300  0.00810  Biso   1.000  C
  H13      1.0000 0.99510  0.32310  0.47840  Biso   1.000  H
  H14      1.0000 0.50490  0.32310  0.02160  Biso   1.000  H
  H15      1.0000 0.00490  0.67690  0.52160  Biso   1.000  H
  H16      1.0000 0.49510  0.67690  0.97840  Biso   1.000  H
  C25      1.0000 0.88770  0.09060  0.40890  Biso   1.000  C
  C26      1.0000 0.61230  0.09060  0.09110  Biso   1.000  C
  C27      1.0000 0.11230  0.90940  0.59110  Biso   1.000  C
  C28      1.0000 0.38770  0.90940  0.90890  Biso   1.000  C
  H17      1.0000 0.90450  0.97200  0.40550  Biso   1.000  H
  H18      1.0000 0.59550  0.97200  0.09450  Biso   1.000  H
  H19      1.0000 0.09550  0.02800  0.59450  Biso   1.000  H
  H20      1.0000 0.40450  0.02800  0.90550  Biso   1.000  H
  H21      1.0000 0.91680  0.16260  0.38440  Biso   1.000  H
  H22      1.0000 0.58320  0.16260  0.11560  Biso   1.000  H
  H23      1.0000 0.08320  0.83740  0.61560  Biso   1.000  H
  H24      1.0000 0.41680  0.83740  0.88440  Biso   1.000  H
  C29      1.0000 0.79590  0.10660  0.37520  Biso   1.000  C
  C30      1.0000 0.70410  0.10660  0.12480  Biso   1.000  C
  C31      1.0000 0.20410  0.89340  0.62480  Biso   1.000  C
  C32      1.0000 0.29590  0.89340  0.87520  Biso   1.000  C
  C33      1.0000 0.98460  0.27380  0.69660  Biso   1.000  C
  C34      1.0000 0.51540  0.27380  0.80340  Biso   1.000  C
  C35      1.0000 0.01540  0.72620  0.30340  Biso   1.000  C
  C36      1.0000 0.48460  0.72620  0.19660  Biso   1.000  C
  H25      1.0000 0.01860  0.37740  0.70480  Biso   1.000  H
  H26      1.0000 0.48140  0.37740  0.79520  Biso   1.000  H
  H27      1.0000 0.98140  0.62260  0.29520  Biso   1.000  H
  H28      1.0000 0.51860  0.62260  0.20480  Biso   1.000  H
  H29      1.0000 0.93590  0.29560  0.71170  Biso   1.000  H
  H30      1.0000 0.56410  0.29560  0.78830  Biso   1.000  H
  H31      1.0000 0.06410  0.70440  0.28830  Biso   1.000  H
  H32      1.0000 0.43590  0.70440  0.21170  Biso   1.000  H
  C37      1.0000 0.03270  0.12980  0.73670  Biso   1.000  C
  C38      1.0000 0.46730  0.12980  0.76330  Biso   1.000  C
  C39      1.0000 0.96730  0.87020  0.26330  Biso   1.000  C
  C40      1.0000 0.53270  0.87020  0.23670  Biso   1.000  C
  C41      1.0000 0.50210  0.54630  0.43490  Biso   1.000  C
  C42      1.0000 0.99790  0.54630  0.06510  Biso   1.000  C
  C43      1.0000 0.49790  0.45370  0.56510  Biso   1.000  C
  C44      1.0000 0.00210  0.45370  0.93490  Biso   1.000  C
  C45      1.0000 0.43930  0.44410  0.44340  Biso   1.000  C
  C46      1.0000 0.06070  0.44410  0.05660  Biso   1.000  C
  C47      1.0000 0.56070  0.55590  0.55660  Biso   1.000  C
  C48      1.0000 0.93930  0.55590  0.94340  Biso   1.000  C
  H33      1.0000 0.39810  0.40430  0.40450  Biso   1.000  H
  H34      1.0000 0.10190  0.40430  0.09550  Biso   1.000  H
  H35      1.0000 0.60190  0.59570  0.59550  Biso   1.000  H
  H36      1.0000 0.89810  0.59570  0.90450  Biso   1.000  H
  C49      1.0000 0.43650  0.40040  0.50760  Biso   1.000  C
  C50      1.0000 0.06350  0.40040  0.99240  Biso   1.000  C
  C51      1.0000 0.56350  0.59960  0.49240  Biso   1.000  C
  C52      1.0000 0.93650  0.59960  0.00760  Biso   1.000  C
  H37      1.0000 0.39260  0.33380  0.51260  Biso   1.000  H
  H38      1.0000 0.10740  0.33380  0.98740  Biso   1.000  H
  H39      1.0000 0.60740  0.66620  0.48740  Biso   1.000  H
  H40      1.0000 0.89260  0.66620  0.01260  Biso   1.000  H
  C53      1.0000 0.50730  0.58620  0.36450  Biso   1.000  C
  C54      1.0000 0.99270  0.58620  0.13550  Biso   1.000  C
  C55      1.0000 0.49270  0.41380  0.63550  Biso   1.000  C
  C56      1.0000 0.00730  0.41380  0.86450  Biso   1.000  C
  H41      1.0000 0.45200  0.60360  0.33250  Biso   1.000  H
  H42      1.0000 0.04800  0.60360  0.16750  Biso   1.000  H
  H43      1.0000 0.54800  0.39640  0.66750  Biso   1.000  H
  H44      1.0000 0.95200  0.39640  0.83250  Biso   1.000  H
  H45      1.0000 0.53970  0.69020  0.36550  Biso   1.000  H
  H46      1.0000 0.96030  0.69020  0.13450  Biso   1.000  H
  H47      1.0000 0.46030  0.30980  0.63450  Biso   1.000  H
  H48      1.0000 0.03970  0.30980  0.86550  Biso   1.000  H
  C57      1.0000 0.54800  0.43710  0.34260  Biso   1.000  C
  C58      1.0000 0.95200  0.43710  0.15740  Biso   1.000  C
  C59      1.0000 0.45200  0.56290  0.65740  Biso   1.000  C
  C60      1.0000 0.04800  0.56290  0.84260  Biso   1.000  C
  Cu1      1.0000 0.25000  0.65572  0.25000  Biso   1.000  Cu
  Cu2      1.0000 0.75000  0.34428  0.75000  Biso   1.000  Cu
  N1       1.0000 0.28920  0.53570  0.17910  Biso   1.000  N
  N2       1.0000 0.21080  0.53570  0.32090  Biso   1.000  N
  N3       1.0000 0.71080  0.46430  0.82090  Biso   1.000  N
  N4       1.0000 0.78920  0.46430  0.67910  Biso   1.000  N
  N5       1.0000 0.18630  0.79000  0.16760  Biso   1.000  N
  N6       1.0000 0.31370  0.79000  0.33240  Biso   1.000  N
  N7       1.0000 0.81370  0.21000  0.83240  Biso   1.000  N
  N8       1.0000 0.68630  0.21000  0.66760  Biso   1.000  N
  C61      1.0000 0.34090  0.40320  0.18780  Biso   1.000  C
  C62      1.0000 0.15910  0.40320  0.31220  Biso   1.000  C
  C63      1.0000 0.65910  0.59680  0.81220  Biso   1.000  C
  C64      1.0000 0.84090  0.59680  0.68780  Biso   1.000  C
  H49      1.0000 0.36230  0.35690  0.23210  Biso   1.000  H
  H50      1.0000 0.13770  0.35690  0.26790  Biso   1.000  H
  H51      1.0000 0.63770  0.64310  0.76790  Biso   1.000  H
  H52      1.0000 0.86230  0.64310  0.73210  Biso   1.000  H
  C65      1.0000 0.36390  0.33200  0.13530  Biso   1.000  C
  C66      1.0000 0.13610  0.33200  0.36470  Biso   1.000  C
  C67      1.0000 0.63610  0.66800  0.86470  Biso   1.000  C
  C68      1.0000 0.86390  0.66800  0.63530  Biso   1.000  C
  H53      1.0000 0.40180  0.24100  0.14380  Biso   1.000  H
  H54      1.0000 0.09820  0.24100  0.35620  Biso   1.000  H
  H55      1.0000 0.59820  0.75900  0.85620  Biso   1.000  H
  H56      1.0000 0.90180  0.75900  0.64380  Biso   1.000  H
  C69      1.0000 0.33170  0.39380  0.07050  Biso   1.000  C
  C70      1.0000 0.16830  0.39380  0.42950  Biso   1.000  C
  C71      1.0000 0.66830  0.60620  0.92950  Biso   1.000  C
  C72      1.0000 0.83170  0.60620  0.57050  Biso   1.000  C
  H57      1.0000 0.34630  0.34410  0.03370  Biso   1.000  H
  H58      1.0000 0.15370  0.34410  0.46630  Biso   1.000  H
  H59      1.0000 0.65370  0.65590  0.96630  Biso   1.000  H
  H60      1.0000 0.84630  0.65590  0.53370  Biso   1.000  H
  C73      1.0000 0.27740  0.52970  0.05880  Biso   1.000  C
  C74      1.0000 0.22260  0.52970  0.44120  Biso   1.000  C
  C75      1.0000 0.72260  0.47030  0.94120  Biso   1.000  C
  C76      1.0000 0.77740  0.47030  0.55880  Biso   1.000  C
  H61      1.0000 0.25420  0.57400  0.01430  Biso   1.000  H
  H62      1.0000 0.24580  0.57400  0.48570  Biso   1.000  H
  H63      1.0000 0.74580  0.42600  0.98570  Biso   1.000  H
  H64      1.0000 0.75420  0.42600  0.51430  Biso   1.000  H
  C77      1.0000 0.25810  0.59880  0.11480  Biso   1.000  C
  C78      1.0000 0.24190  0.59880  0.38520  Biso   1.000  C
  C79      1.0000 0.74190  0.40120  0.88520  Biso   1.000  C
  C80      1.0000 0.75810  0.40120  0.61480  Biso   1.000  C
  C81      1.0000 0.20140  0.74570  0.10880  Biso   1.000  C
  C82      1.0000 0.29860  0.74570  0.39120  Biso   1.000  C
  C83      1.0000 0.79860  0.25430  0.89120  Biso   1.000  C
  C84      1.0000 0.70140  0.25430  0.60880  Biso   1.000  C
  C85      1.0000 0.16540  0.82750  0.04810  Biso   1.000  C
  C86      1.0000 0.33460  0.82750  0.45190  Biso   1.000  C
  C87      1.0000 0.83460  0.17250  0.95190  Biso   1.000  C
  C88      1.0000 0.66540  0.17250  0.54810  Biso   1.000  C
  H65      1.0000 0.17710  0.79390  0.00770  Biso   1.000  H
  H66      1.0000 0.32290  0.79390  0.49230  Biso   1.000  H
  H67      1.0000 0.82290  0.20610  0.99230  Biso   1.000  H
  H68      1.0000 0.67710  0.20610  0.50770  Biso   1.000  H
  C89      1.0000 0.11220  0.95870  0.04700  Biso   1.000  C
  C90      1.0000 0.38780  0.95870  0.45300  Biso   1.000  C
  C91      1.0000 0.88780  0.04130  0.95300  Biso   1.000  C
  C92      1.0000 0.61220  0.04130  0.54700  Biso   1.000  C
  H69      1.0000 0.08700  0.01660  0.00560  Biso   1.000  H
  H70      1.0000 0.41300  0.01660  0.49440  Biso   1.000  H
  H71      1.0000 0.91300  0.98340  0.99440  Biso   1.000  H
  H72      1.0000 0.58700  0.98340  0.50560  Biso   1.000  H
  C93      1.0000 0.09560  0.00570  0.10560  Biso   1.000  C
  C94      1.0000 0.40440  0.00570  0.39440  Biso   1.000  C
  C95      1.0000 0.90440  0.99430  0.89440  Biso   1.000  C
  C96      1.0000 0.59560  0.99430  0.60560  Biso   1.000  C
  H73      1.0000 0.05840  0.09480  0.10540  Biso   1.000  H
  H74      1.0000 0.44160  0.09480  0.39460  Biso   1.000  H
  H75      1.0000 0.94160  0.90520  0.89460  Biso   1.000  H
  H76      1.0000 0.55840  0.90520  0.60540  Biso   1.000  H
  C97      1.0000 0.13450  0.91980  0.16510  Biso   1.000  C
  C98      1.0000 0.36550  0.91980  0.33490  Biso   1.000  C
  C99      1.0000 0.86550  0.08020  0.83490  Biso   1.000  C
  C100     1.0000 0.63450  0.08020  0.66510  Biso   1.000  C
  H77      1.0000 0.12410  0.95390  0.20590  Biso   1.000  H
  H78      1.0000 0.37590  0.95390  0.29410  Biso   1.000  H
  H79      1.0000 0.87590  0.04610  0.79410  Biso   1.000  H
  H80      1.0000 0.62410  0.04610  0.70590  Biso   1.000  H
  N9       1.0000 0.25000  0.30870  0.75000  Biso   1.000  N
  N10      1.0000 0.75000  0.69130  0.25000  Biso   1.000  N
  H81      1.0000 0.20600  0.24570  0.75470  Biso   1.000  H
  H82      1.0000 0.29400  0.24570  0.74530  Biso   1.000  H
  H83      1.0000 0.79400  0.75430  0.24530  Biso   1.000  H
  H84      1.0000 0.70600  0.75430  0.25470  Biso   1.000  H
  C101     1.0000 0.21550  0.41020  0.68750  Biso   1.000  C
  C102     1.0000 0.28450  0.41020  0.81250  Biso   1.000  C
  C103     1.0000 0.78450  0.58980  0.31250  Biso   1.000  C
  C104     1.0000 0.71550  0.58980  0.18750  Biso   1.000  C
  H85      1.0000 0.25910  0.47630  0.67790  Biso   1.000  H
  H86      1.0000 0.24090  0.47630  0.82210  Biso   1.000  H
  H87      1.0000 0.74090  0.52370  0.32210  Biso   1.000  H
  H88      1.0000 0.75910  0.52370  0.17790  Biso   1.000  H
  H89      1.0000 0.17360  0.48680  0.69400  Biso   1.000  H
  H90      1.0000 0.32640  0.48680  0.80600  Biso   1.000  H
  H91      1.0000 0.82640  0.51320  0.30600  Biso   1.000  H
  H92      1.0000 0.67360  0.51320  0.19400  Biso   1.000  H
  H93      1.0000 0.19100  0.33440  0.64910  Biso   1.000  H
  H94      1.0000 0.30900  0.33440  0.85090  Biso   1.000  H
  H95      1.0000 0.80900  0.66560  0.35090  Biso   1.000  H
  H96      1.0000 0.69100  0.66560  0.14910  Biso   1.000  H
