data_image0
_cell_length_a       12.314
_cell_length_b       12.481
_cell_length_c       12.932
_cell_angle_alpha    93.653
_cell_angle_beta     116.46
_cell_angle_gamma    101.651

_symmetry_space_group_name_H-M    "P 1"
_symmetry_int_tables_number       1

loop_
  _symmetry_equiv_pos_as_xyz
  'x, y, z'

loop_
  _atom_site_label
  _atom_site_occupancy
  _atom_site_fract_x
  _atom_site_fract_y
  _atom_site_fract_z
  _atom_site_thermal_displace_type
  _atom_site_B_iso_or_equiv
  _atom_site_type_symbol
  C1       1.0000 0.44300  0.52510  0.61100  Biso   1.000  C
  C2       1.0000 0.55700  0.47490  0.38900  Biso   1.000  C
  C3       1.0000 0.27620  0.35720  0.53390  Biso   1.000  C
  C4       1.0000 0.72380  0.64280  0.46610  Biso   1.000  C
  H1       1.0000 0.19280  0.32110  0.48270  Biso   1.000  H
  H2       1.0000 0.80720  0.67890  0.51730  Biso   1.000  H
  C5       1.0000 0.35160  0.30020  0.60900  Biso   1.000  C
  C6       1.0000 0.64840  0.69980  0.39100  Biso   1.000  C
  C7       1.0000 0.47560  0.35850  0.68570  Biso   1.000  C
  C8       1.0000 0.52440  0.64150  0.31430  Biso   1.000  C
  H3       1.0000 0.52900  0.32120  0.73710  Biso   1.000  H
  H4       1.0000 0.47100  0.67880  0.26290  Biso   1.000  H
  C9       1.0000 0.32110  0.46760  0.53260  Biso   1.000  C
  C10      1.0000 0.67890  0.53240  0.46740  Biso   1.000  C
  H5       1.0000 0.26880  0.50360  0.47830  Biso   1.000  H
  H6       1.0000 0.73120  0.49640  0.52170  Biso   1.000  H
  C11      1.0000 0.52030  0.46650  0.68770  Biso   1.000  C
  C12      1.0000 0.47970  0.53350  0.31230  Biso   1.000  C
  H7       1.0000 0.60320  0.50260  0.74050  Biso   1.000  H
  H8       1.0000 0.39680  0.49740  0.25950  Biso   1.000  H
  C13      1.0000 0.34800  0.74000  0.47430  Biso   1.000  C
  C14      1.0000 0.65200  0.26000  0.52570  Biso   1.000  C
  H9       1.0000 0.35720  0.71970  0.40870  Biso   1.000  H
  H10      1.0000 0.64280  0.28030  0.59130  Biso   1.000  H
  C15      1.0000 0.36780  0.75470  0.64730  Biso   1.000  C
  C16      1.0000 0.63220  0.24530  0.35270  Biso   1.000  C
  H11      1.0000 0.39530  0.74760  0.72550  Biso   1.000  H
  H12      1.0000 0.60470  0.25240  0.27450  Biso   1.000  H
  C17      1.0000 0.46100  0.08010  0.70130  Biso   1.000  C
  C18      1.0000 0.53900  0.91990  0.29870  Biso   1.000  C
  H13      1.0000 0.47430  0.06340  0.63740  Biso   1.000  H
  H14      1.0000 0.52570  0.93660  0.36260  Biso   1.000  H
  C19      1.0000 0.39360  0.14880  0.81170  Biso   1.000  C
  C20      1.0000 0.60640  0.85120  0.18830  Biso   1.000  C
  H15      1.0000 0.35230  0.18770  0.83960  Biso   1.000  H
  H16      1.0000 0.64770  0.81230  0.16040  Biso   1.000  H
  C21      1.0000 0.48000  0.09600  0.87270  Biso   1.000  C
  C22      1.0000 0.52000  0.90400  0.12730  Biso   1.000  C
  H17      1.0000 0.50720  0.08970  0.95120  Biso   1.000  H
  H18      1.0000 0.49280  0.91030  0.04880  Biso   1.000  H
  C23      1.0000 0.49720  0.64340  0.61140  Biso   1.000  C
  C24      1.0000 0.50280  0.35660  0.38860  Biso   1.000  C
  H19      1.0000 0.56600  0.67590  0.68910  Biso   1.000  H
  H20      1.0000 0.43400  0.32410  0.31090  Biso   1.000  H
  H21      1.0000 0.53140  0.64580  0.55670  Biso   1.000  H
  H22      1.0000 0.46860  0.35420  0.44330  Biso   1.000  H
  C25      1.0000 0.29740  0.17990  0.60320  Biso   1.000  C
  C26      1.0000 0.70260  0.82010  0.39680  Biso   1.000  C
  H23      1.0000 0.21710  0.17120  0.60280  Biso   1.000  H
  H24      1.0000 0.78290  0.82880  0.39720  Biso   1.000  H
  H25      1.0000 0.28240  0.13800  0.53020  Biso   1.000  H
  H26      1.0000 0.71760  0.86200  0.46980  Biso   1.000  H
  C27      1.0000 0.27500  0.80100  0.48100  Biso   1.000  C
  C28      1.0000 0.72500  0.19900  0.51900  Biso   1.000  C
  H27      1.0000 0.22410  0.83360  0.42170  Biso   1.000  H
  H28      1.0000 0.77590  0.16640  0.57830  Biso   1.000  H
  N1       1.0000 0.28920  0.80740  0.59300  Biso   1.000  N
  N2       1.0000 0.71080  0.19260  0.40700  Biso   1.000  N
  N3       1.0000 0.37850  0.13400  0.70060  Biso   1.000  N
  N4       1.0000 0.62150  0.86600  0.29940  Biso   1.000  N
  N5       1.0000 0.52070  0.05400  0.80370  Biso   1.000  N
  N6       1.0000 0.47930  0.94600  0.19630  Biso   1.000  N
  N7       1.0000 0.40550  0.71140  0.57950  Biso   1.000  N
  N8       1.0000 0.59450  0.28860  0.42050  Biso   1.000  N
  C29      1.0000 0.84400  0.46800  0.08500  Biso   1.000  C
  C30      1.0000 0.15600  0.53200  0.91500  Biso   1.000  C
  C31      1.0000 0.76100  0.53800  0.17300  Biso   1.000  C
  C32      1.0000 0.23900  0.46200  0.82700  Biso   1.000  C
  C33      1.0000 0.99330  0.52920  0.39540  Biso   1.000  C
  C34      1.0000 0.00670  0.47080  0.60460  Biso   1.000  C
  C35      1.0000 0.01610  0.60830  0.48700  Biso   1.000  C
  C36      1.0000 0.98390  0.39170  0.51300  Biso   1.000  C
  H29      1.0000 0.02590  0.68230  0.47750  Biso   1.000  H
  H30      1.0000 0.97410  0.31770  0.52250  Biso   1.000  H
  C37      1.0000 0.97520  0.41790  0.41100  Biso   1.000  C
  C38      1.0000 0.02480  0.58210  0.58900  Biso   1.000  C
  H31      1.0000 0.95700  0.36190  0.35030  Biso   1.000  H
  H32      1.0000 0.04300  0.63810  0.64970  Biso   1.000  H
  C39      1.0000 0.99100  0.55900  0.28270  Biso   1.000  C
  C40      1.0000 0.00900  0.44100  0.71730  Biso   1.000  C
  H33      1.0000 0.01890  0.63900  0.29210  Biso   1.000  H
  H34      1.0000 0.98110  0.36100  0.70790  Biso   1.000  H
  H35      1.0000 0.04880  0.52670  0.26790  Biso   1.000  H
  H36      1.0000 0.95120  0.47330  0.73210  Biso   1.000  H
  N9       1.0000 0.66300  0.49400  0.06400  Biso   1.000  N
  N10      1.0000 0.33700  0.50600  0.93600  Biso   1.000  N
  N11      1.0000 0.86690  0.52040  0.18250  Biso   1.000  N
  N12      1.0000 0.13310  0.47960  0.81750  Biso   1.000  N
  C41      1.0000 0.71600  0.45100  0.01200  Biso   1.000  C
  C42      1.0000 0.28400  0.54900  0.98800  Biso   1.000  C
  Cu1      1.0000 0.50000  0.50000  0.00000  Biso   1.000  Cu
  O1       1.0000 0.89570  0.01280  0.22340  Biso   1.000  O
  O2       1.0000 0.10430  0.98720  0.77660  Biso   1.000  O
  O3       1.0000 0.73740  0.14990  0.17010  Biso   1.000  O
  O4       1.0000 0.26260  0.85010  0.82990  Biso   1.000  O
  O5       1.0000 0.91270  0.95960  0.04870  Biso   1.000  O
  O6       1.0000 0.08730  0.04040  0.95130  Biso   1.000  O
  O7       1.0000 0.76990  0.73320  0.88960  Biso   1.000  O
  O8       1.0000 0.23010  0.26680  0.11040  Biso   1.000  O
  O9       1.0000 0.70550  0.97330  0.01080  Biso   1.000  O
  O10      1.0000 0.29450  0.02670  0.98920  Biso   1.000  O
  O11      1.0000 0.03650  0.78880  0.18580  Biso   1.000  O
  O12      1.0000 0.96350  0.21120  0.81420  Biso   1.000  O
  O13      1.0000 0.25370  0.91220  0.22660  Biso   1.000  O
  O14      1.0000 0.74630  0.08780  0.77340  Biso   1.000  O
  O15      1.0000 0.20550  0.18620  0.28020  Biso   1.000  O
  O16      1.0000 0.79450  0.81380  0.71980  Biso   1.000  O
  O17      1.0000 0.81050  0.81320  0.09680  Biso   1.000  O
  O18      1.0000 0.18950  0.18680  0.90320  Biso   1.000  O
  O19      1.0000 0.37630  0.08120  0.41450  Biso   1.000  O
  O20      1.0000 0.62370  0.91880  0.58550  Biso   1.000  O
  O21      1.0000 0.17030  0.39750  0.25020  Biso   1.000  O
  O22      1.0000 0.82970  0.60250  0.74980  Biso   1.000  O
  O23      1.0000 0.94440  0.83500  0.33580  Biso   1.000  O
  O24      1.0000 0.05560  0.16500  0.66420  Biso   1.000  O
  O25      1.0000 0.56730  0.75420  0.91930  Biso   1.000  O
  O26      1.0000 0.43270  0.24580  0.08070  Biso   1.000  O
  O27      1.0000 0.12600  0.98540  0.31490  Biso   1.000  O
  O28      1.0000 0.87400  0.01460  0.68510  Biso   1.000  O
  O29      1.0000 0.88290  0.91930  0.91280  Biso   1.000  O
  O30      1.0000 0.11710  0.08070  0.08720  Biso   1.000  O
  O31      1.0000 0.96560  0.10870  0.03130  Biso   1.000  O
  O32      1.0000 0.03440  0.89130  0.96870  Biso   1.000  O
  O33      1.0000 0.06090  0.95980  0.11200  Biso   1.000  O
  O34      1.0000 0.93910  0.04020  0.88800  Biso   1.000  O
  O35      1.0000 0.78630  0.17160  0.98470  Biso   1.000  O
  O36      1.0000 0.21370  0.82840  0.01530  Biso   1.000  O
  O37      1.0000 0.33700  0.11110  0.19460  Biso   1.000  O
  O38      1.0000 0.66300  0.88890  0.80540  Biso   1.000  O
  P1       1.0000 0.00000  0.00000  0.00000  Biso   1.000  P
  W1       1.0000 0.25611  0.05560  0.28467  Biso   1.000  W
  W2       1.0000 0.74389  0.94440  0.71533  Biso   1.000  W
  W3       1.0000 0.82166  0.10334  0.11537  Biso   1.000  W
  W4       1.0000 0.17834  0.89666  0.88463  Biso   1.000  W
  W5       1.0000 0.70663  0.83177  0.94593  Biso   1.000  W
  W6       1.0000 0.29337  0.16823  0.05407  Biso   1.000  W
  W7       1.0000 0.11539  0.27004  0.16908  Biso   1.000  W
  W8       1.0000 0.88461  0.72996  0.83092  Biso   1.000  W
  W9       1.0000 0.85819  0.21512  0.88497  Biso   1.000  W
  W10      1.0000 0.14181  0.78488  0.11503  Biso   1.000  W
  W11      1.0000 0.96351  0.88769  0.22848  Biso   1.000  W
  W12      1.0000 0.03649  0.11231  0.77152  Biso   1.000  W
  O39      1.0000 0.97740  0.21330  0.19490  Biso   1.000  O
  O40      1.0000 0.02260  0.78670  0.80510  Biso   1.000  O
  O41      1.0000 0.78920  0.31320  0.82710  Biso   1.000  O
  O42      1.0000 0.21080  0.68680  0.17290  Biso   1.000  O
  O43      1.0000 0.00530  0.29410  0.02060  Biso   1.000  O
  O44      1.0000 0.99470  0.70590  0.97940  Biso   1.000  O
  O45      1.0000 0.12500  0.92800  0.57850  Biso   1.000  O
  O46      1.0000 0.87500  0.07200  0.42150  Biso   1.000  O
  H37      1.0000 0.15360  0.95710  0.64980  Biso   1.000  H
  H38      1.0000 0.84640  0.04290  0.35020  Biso   1.000  H
  H39      1.0000 0.05230  0.93890  0.54390  Biso   1.000  H
  H40      1.0000 0.94770  0.06110  0.45610  Biso   1.000  H
