data_image0
_cell_length_a       22.4063
_cell_length_b       8.1045
_cell_length_c       22.5896
_cell_angle_alpha    90
_cell_angle_beta     100.771
_cell_angle_gamma    90

_symmetry_space_group_name_H-M    "P 1"
_symmetry_int_tables_number       1

loop_
  _symmetry_equiv_pos_as_xyz
  'x, y, z'

loop_
  _atom_site_label
  _atom_site_occupancy
  _atom_site_fract_x
  _atom_site_fract_y
  _atom_site_fract_z
  _atom_site_thermal_displace_type
  _atom_site_B_iso_or_equiv
  _atom_site_type_symbol
  Cu1      1.0000 0.19745  0.61533  0.10848  Biso   1.000  Cu
  Cu2      1.0000 0.69745  0.11533  0.10848  Biso   1.000  Cu
  Cu3      1.0000 0.19745  0.38467  0.60848  Biso   1.000  Cu
  Cu4      1.0000 0.69745  0.88467  0.60848  Biso   1.000  Cu
  Cu5      1.0000 0.80255  0.38467  0.89152  Biso   1.000  Cu
  Cu6      1.0000 0.30255  0.88467  0.89152  Biso   1.000  Cu
  Cu7      1.0000 0.80255  0.61533  0.39152  Biso   1.000  Cu
  Cu8      1.0000 0.30255  0.11533  0.39152  Biso   1.000  Cu
  N1       1.0000 0.27243  0.75800  0.14427  Biso   1.000  N
  N2       1.0000 0.77243  0.25800  0.14427  Biso   1.000  N
  N3       1.0000 0.27243  0.24200  0.64427  Biso   1.000  N
  N4       1.0000 0.77243  0.74200  0.64427  Biso   1.000  N
  N5       1.0000 0.72757  0.24200  0.85573  Biso   1.000  N
  N6       1.0000 0.22757  0.74200  0.85573  Biso   1.000  N
  N7       1.0000 0.72757  0.75800  0.35573  Biso   1.000  N
  N8       1.0000 0.22757  0.25800  0.35573  Biso   1.000  N
  C1       1.0000 0.32123  0.72100  0.12163  Biso   1.000  C
  C2       1.0000 0.82123  0.22100  0.12163  Biso   1.000  C
  C3       1.0000 0.32123  0.27900  0.62163  Biso   1.000  C
  C4       1.0000 0.82123  0.77900  0.62163  Biso   1.000  C
  C5       1.0000 0.67877  0.27900  0.87837  Biso   1.000  C
  C6       1.0000 0.17877  0.77900  0.87837  Biso   1.000  C
  C7       1.0000 0.67877  0.72100  0.37837  Biso   1.000  C
  C8       1.0000 0.17877  0.22100  0.37837  Biso   1.000  C
  C9       1.0000 0.38065  0.76050  0.15093  Biso   1.000  C
  C10      1.0000 0.88065  0.26050  0.15093  Biso   1.000  C
  C11      1.0000 0.38065  0.23950  0.65093  Biso   1.000  C
  C12      1.0000 0.88065  0.73950  0.65093  Biso   1.000  C
  C13      1.0000 0.61935  0.23950  0.84907  Biso   1.000  C
  C14      1.0000 0.11935  0.73950  0.84907  Biso   1.000  C
  C15      1.0000 0.61935  0.76050  0.34907  Biso   1.000  C
  C16      1.0000 0.11935  0.26050  0.34907  Biso   1.000  C
  H1       1.0000 0.41260  0.73300  0.13330  Biso   1.000  H
  H2       1.0000 0.91260  0.23300  0.13330  Biso   1.000  H
  H3       1.0000 0.41260  0.26700  0.63330  Biso   1.000  H
  H4       1.0000 0.91260  0.76700  0.63330  Biso   1.000  H
  H5       1.0000 0.58740  0.26700  0.86670  Biso   1.000  H
  H6       1.0000 0.08740  0.76700  0.86670  Biso   1.000  H
  H7       1.0000 0.58740  0.73300  0.36670  Biso   1.000  H
  H8       1.0000 0.08740  0.23300  0.36670  Biso   1.000  H
  C17      1.0000 0.38926  0.83570  0.20579  Biso   1.000  C
  C18      1.0000 0.88926  0.33570  0.20579  Biso   1.000  C
  C19      1.0000 0.38926  0.16430  0.70579  Biso   1.000  C
  C20      1.0000 0.88926  0.66430  0.70579  Biso   1.000  C
  C21      1.0000 0.61074  0.16430  0.79421  Biso   1.000  C
  C22      1.0000 0.11074  0.66430  0.79421  Biso   1.000  C
  C23      1.0000 0.61074  0.83570  0.29421  Biso   1.000  C
  C24      1.0000 0.11074  0.33570  0.29421  Biso   1.000  C
  H9       1.0000 0.42760  0.86400  0.22480  Biso   1.000  H
  H10      1.0000 0.92760  0.36400  0.22480  Biso   1.000  H
  H11      1.0000 0.42760  0.13600  0.72480  Biso   1.000  H
  H12      1.0000 0.92760  0.63600  0.72480  Biso   1.000  H
  H13      1.0000 0.57240  0.13600  0.77520  Biso   1.000  H
  H14      1.0000 0.07240  0.63600  0.77520  Biso   1.000  H
  H15      1.0000 0.57240  0.86400  0.27520  Biso   1.000  H
  H16      1.0000 0.07240  0.36400  0.27520  Biso   1.000  H
  C25      1.0000 0.34254  0.94170  0.28950  Biso   1.000  C
  C26      1.0000 0.84254  0.44170  0.28950  Biso   1.000  C
  C27      1.0000 0.34254  0.05830  0.78950  Biso   1.000  C
  C28      1.0000 0.84254  0.55830  0.78950  Biso   1.000  C
  C29      1.0000 0.65746  0.05830  0.71050  Biso   1.000  C
  C30      1.0000 0.15746  0.55830  0.71050  Biso   1.000  C
  C31      1.0000 0.65746  0.94170  0.21050  Biso   1.000  C
  C32      1.0000 0.15746  0.44170  0.21050  Biso   1.000  C
  H17      1.0000 0.37950  0.96400  0.31140  Biso   1.000  H
  H18      1.0000 0.87950  0.46400  0.31140  Biso   1.000  H
  H19      1.0000 0.37950  0.03600  0.81140  Biso   1.000  H
  H20      1.0000 0.87950  0.53600  0.81140  Biso   1.000  H
  H21      1.0000 0.62050  0.03600  0.68860  Biso   1.000  H
  H22      1.0000 0.12050  0.53600  0.68860  Biso   1.000  H
  H23      1.0000 0.62050  0.96400  0.18860  Biso   1.000  H
  H24      1.0000 0.12050  0.46400  0.18860  Biso   1.000  H
  N9       1.0000 0.29515  0.97120  0.31464  Biso   1.000  N
  N10      1.0000 0.79515  0.47120  0.31464  Biso   1.000  N
  N11      1.0000 0.29515  0.02880  0.81464  Biso   1.000  N
  N12      1.0000 0.79515  0.52880  0.81464  Biso   1.000  N
  N13      1.0000 0.70485  0.02880  0.68536  Biso   1.000  N
  N14      1.0000 0.20485  0.52880  0.68536  Biso   1.000  N
  N15      1.0000 0.70485  0.97120  0.18536  Biso   1.000  N
  N16      1.0000 0.20485  0.47120  0.18536  Biso   1.000  N
  C33      1.0000 0.23878  0.93260  0.28210  Biso   1.000  C
  C34      1.0000 0.73878  0.43260  0.28210  Biso   1.000  C
  C35      1.0000 0.23878  0.06740  0.78210  Biso   1.000  C
  C36      1.0000 0.73878  0.56740  0.78210  Biso   1.000  C
  C37      1.0000 0.76122  0.06740  0.71790  Biso   1.000  C
  C38      1.0000 0.26122  0.56740  0.71790  Biso   1.000  C
  C39      1.0000 0.76122  0.93260  0.21790  Biso   1.000  C
  C40      1.0000 0.26122  0.43260  0.21790  Biso   1.000  C
  H25      1.0000 0.20290  0.94800  0.30150  Biso   1.000  H
  H26      1.0000 0.70290  0.44800  0.30150  Biso   1.000  H
  H27      1.0000 0.20290  0.05200  0.80150  Biso   1.000  H
  H28      1.0000 0.70290  0.55200  0.80150  Biso   1.000  H
  H29      1.0000 0.79710  0.05200  0.69850  Biso   1.000  H
  H30      1.0000 0.29710  0.55200  0.69850  Biso   1.000  H
  H31      1.0000 0.79710  0.94800  0.19850  Biso   1.000  H
  H32      1.0000 0.29710  0.44800  0.19850  Biso   1.000  H
  C41      1.0000 0.22964  0.86760  0.22593  Biso   1.000  C
  C42      1.0000 0.72964  0.36760  0.22593  Biso   1.000  C
  C43      1.0000 0.22964  0.13240  0.72593  Biso   1.000  C
  C44      1.0000 0.72964  0.63240  0.72593  Biso   1.000  C
  C45      1.0000 0.77036  0.13240  0.77407  Biso   1.000  C
  C46      1.0000 0.27036  0.63240  0.77407  Biso   1.000  C
  C47      1.0000 0.77036  0.86760  0.27407  Biso   1.000  C
  C48      1.0000 0.27036  0.36760  0.27407  Biso   1.000  C
  H33      1.0000 0.18810  0.84000  0.20380  Biso   1.000  H
  H34      1.0000 0.68810  0.34000  0.20380  Biso   1.000  H
  H35      1.0000 0.18810  0.16000  0.70380  Biso   1.000  H
  H36      1.0000 0.68810  0.66000  0.70380  Biso   1.000  H
  H37      1.0000 0.81190  0.16000  0.79620  Biso   1.000  H
  H38      1.0000 0.31190  0.66000  0.79620  Biso   1.000  H
  H39      1.0000 0.81190  0.84000  0.29620  Biso   1.000  H
  H40      1.0000 0.31190  0.34000  0.29620  Biso   1.000  H
  C49      1.0000 0.28015  0.83270  0.19931  Biso   1.000  C
  C50      1.0000 0.78015  0.33270  0.19931  Biso   1.000  C
  C51      1.0000 0.28015  0.16730  0.69931  Biso   1.000  C
  C52      1.0000 0.78015  0.66730  0.69931  Biso   1.000  C
  C53      1.0000 0.71985  0.16730  0.80069  Biso   1.000  C
  C54      1.0000 0.21985  0.66730  0.80069  Biso   1.000  C
  C55      1.0000 0.71985  0.83270  0.30069  Biso   1.000  C
  C56      1.0000 0.21985  0.33270  0.30069  Biso   1.000  C
  C57      1.0000 0.33856  0.87230  0.23201  Biso   1.000  C
  C58      1.0000 0.83856  0.37230  0.23201  Biso   1.000  C
  C59      1.0000 0.33856  0.12770  0.73201  Biso   1.000  C
  C60      1.0000 0.83856  0.62770  0.73201  Biso   1.000  C
  C61      1.0000 0.66144  0.12770  0.76799  Biso   1.000  C
  C62      1.0000 0.16144  0.62770  0.76799  Biso   1.000  C
  C63      1.0000 0.66144  0.87230  0.26799  Biso   1.000  C
  C64      1.0000 0.16144  0.37230  0.26799  Biso   1.000  C
  N17      1.0000 0.25255  0.56760  0.04866  Biso   1.000  N
  N18      1.0000 0.75255  0.06760  0.04866  Biso   1.000  N
  N19      1.0000 0.25255  0.43240  0.54866  Biso   1.000  N
  N20      1.0000 0.75255  0.93240  0.54866  Biso   1.000  N
  N21      1.0000 0.74745  0.43240  0.95134  Biso   1.000  N
  N22      1.0000 0.24745  0.93240  0.95134  Biso   1.000  N
  N23      1.0000 0.74745  0.56760  0.45134  Biso   1.000  N
  N24      1.0000 0.24745  0.06760  0.45134  Biso   1.000  N
  C65      1.0000 0.30877  0.62700  0.06395  Biso   1.000  C
  C66      1.0000 0.80877  0.12700  0.06395  Biso   1.000  C
  C67      1.0000 0.30877  0.37300  0.56395  Biso   1.000  C
  C68      1.0000 0.80877  0.87300  0.56395  Biso   1.000  C
  C69      1.0000 0.69123  0.37300  0.93605  Biso   1.000  C
  C70      1.0000 0.19123  0.87300  0.93605  Biso   1.000  C
  C71      1.0000 0.69123  0.62700  0.43605  Biso   1.000  C
  C72      1.0000 0.19123  0.12700  0.43605  Biso   1.000  C
  C73      1.0000 0.35374  0.60160  0.02870  Biso   1.000  C
  C74      1.0000 0.85374  0.10160  0.02870  Biso   1.000  C
  C75      1.0000 0.35374  0.39840  0.52870  Biso   1.000  C
  C76      1.0000 0.85374  0.89840  0.52870  Biso   1.000  C
  C77      1.0000 0.64626  0.39840  0.97130  Biso   1.000  C
  C78      1.0000 0.14626  0.89840  0.97130  Biso   1.000  C
  C79      1.0000 0.64626  0.60160  0.47130  Biso   1.000  C
  C80      1.0000 0.14626  0.10160  0.47130  Biso   1.000  C
  H41      1.0000 0.38990  0.64700  0.04130  Biso   1.000  H
  H42      1.0000 0.88990  0.14700  0.04130  Biso   1.000  H
  H43      1.0000 0.38990  0.35300  0.54130  Biso   1.000  H
  H44      1.0000 0.88990  0.85300  0.54130  Biso   1.000  H
  H45      1.0000 0.61010  0.35300  0.95870  Biso   1.000  H
  H46      1.0000 0.11010  0.85300  0.95870  Biso   1.000  H
  H47      1.0000 0.61010  0.64700  0.45870  Biso   1.000  H
  H48      1.0000 0.11010  0.14700  0.45870  Biso   1.000  H
  C81      1.0000 0.33992  0.51410  0.97680  Biso   1.000  C
  C82      1.0000 0.83992  0.01410  0.97680  Biso   1.000  C
  C83      1.0000 0.33992  0.48590  0.47680  Biso   1.000  C
  C84      1.0000 0.83992  0.98590  0.47680  Biso   1.000  C
  C85      1.0000 0.66008  0.48590  0.02320  Biso   1.000  C
  C86      1.0000 0.16008  0.98590  0.02320  Biso   1.000  C
  C87      1.0000 0.66008  0.51410  0.52320  Biso   1.000  C
  C88      1.0000 0.16008  0.01410  0.52320  Biso   1.000  C
  H49      1.0000 0.36980  0.49600  0.95390  Biso   1.000  H
  H50      1.0000 0.86980  0.99600  0.95390  Biso   1.000  H
  H51      1.0000 0.36980  0.50400  0.45390  Biso   1.000  H
  H52      1.0000 0.86980  0.00400  0.45390  Biso   1.000  H
  H53      1.0000 0.63020  0.50400  0.04610  Biso   1.000  H
  H54      1.0000 0.13020  0.00400  0.04610  Biso   1.000  H
  H55      1.0000 0.63020  0.49600  0.54610  Biso   1.000  H
  H56      1.0000 0.13020  0.99600  0.54610  Biso   1.000  H
  C89      1.0000 0.26168  0.36020  0.90493  Biso   1.000  C
  C90      1.0000 0.76168  0.86020  0.90493  Biso   1.000  C
  C91      1.0000 0.26168  0.63980  0.40493  Biso   1.000  C
  C92      1.0000 0.76168  0.13980  0.40493  Biso   1.000  C
  C93      1.0000 0.73832  0.63980  0.09507  Biso   1.000  C
  C94      1.0000 0.23832  0.13980  0.09507  Biso   1.000  C
  C95      1.0000 0.73832  0.36020  0.59507  Biso   1.000  C
  C96      1.0000 0.23832  0.86020  0.59507  Biso   1.000  C
  H57      1.0000 0.29270  0.33800  0.88110  Biso   1.000  H
  H58      1.0000 0.79270  0.83800  0.88110  Biso   1.000  H
  H59      1.0000 0.29270  0.66200  0.38110  Biso   1.000  H
  H60      1.0000 0.79270  0.16200  0.38110  Biso   1.000  H
  H61      1.0000 0.70730  0.66200  0.11890  Biso   1.000  H
  H62      1.0000 0.20730  0.16200  0.11890  Biso   1.000  H
  H63      1.0000 0.70730  0.33800  0.61890  Biso   1.000  H
  H64      1.0000 0.20730  0.83800  0.61890  Biso   1.000  H
  N25      1.0000 0.20667  0.30420  0.88721  Biso   1.000  N
  N26      1.0000 0.70667  0.80420  0.88721  Biso   1.000  N
  N27      1.0000 0.20667  0.69580  0.38721  Biso   1.000  N
  N28      1.0000 0.70667  0.19580  0.38721  Biso   1.000  N
  N29      1.0000 0.79333  0.69580  0.11279  Biso   1.000  N
  N30      1.0000 0.29333  0.19580  0.11279  Biso   1.000  N
  N31      1.0000 0.79333  0.30420  0.61279  Biso   1.000  N
  N32      1.0000 0.29333  0.80420  0.61279  Biso   1.000  N
  C97      1.0000 0.16590  0.33540  0.92361  Biso   1.000  C
  C98      1.0000 0.66590  0.83540  0.92361  Biso   1.000  C
  C99      1.0000 0.16590  0.66460  0.42361  Biso   1.000  C
  C100     1.0000 0.66590  0.16460  0.42361  Biso   1.000  C
  C101     1.0000 0.83410  0.66460  0.07639  Biso   1.000  C
  C102     1.0000 0.33410  0.16460  0.07639  Biso   1.000  C
  C103     1.0000 0.83410  0.33540  0.57639  Biso   1.000  C
  C104     1.0000 0.33410  0.83540  0.57639  Biso   1.000  C
  H65      1.0000 0.12570  0.29100  0.90870  Biso   1.000  H
  H66      1.0000 0.62570  0.79100  0.90870  Biso   1.000  H
  H67      1.0000 0.12570  0.70900  0.40870  Biso   1.000  H
  H68      1.0000 0.62570  0.20900  0.40870  Biso   1.000  H
  H69      1.0000 0.87430  0.70900  0.09130  Biso   1.000  H
  H70      1.0000 0.37430  0.20900  0.09130  Biso   1.000  H
  H71      1.0000 0.87430  0.29100  0.59130  Biso   1.000  H
  H72      1.0000 0.37430  0.79100  0.59130  Biso   1.000  H
  C105     1.0000 0.17876  0.41910  0.97660  Biso   1.000  C
  C106     1.0000 0.67876  0.91910  0.97660  Biso   1.000  C
  C107     1.0000 0.17876  0.58090  0.47660  Biso   1.000  C
  C108     1.0000 0.67876  0.08090  0.47660  Biso   1.000  C
  C109     1.0000 0.82124  0.58090  0.02340  Biso   1.000  C
  C110     1.0000 0.32124  0.08090  0.02340  Biso   1.000  C
  C111     1.0000 0.82124  0.41910  0.52340  Biso   1.000  C
  C112     1.0000 0.32124  0.91910  0.52340  Biso   1.000  C
  H73      1.0000 0.15040  0.43800  0.99890  Biso   1.000  H
  H74      1.0000 0.65040  0.93800  0.99890  Biso   1.000  H
  H75      1.0000 0.15040  0.56200  0.49890  Biso   1.000  H
  H76      1.0000 0.65040  0.06200  0.49890  Biso   1.000  H
  H77      1.0000 0.84960  0.56200  0.00110  Biso   1.000  H
  H78      1.0000 0.34960  0.06200  0.00110  Biso   1.000  H
  H79      1.0000 0.84960  0.43800  0.50110  Biso   1.000  H
  H80      1.0000 0.34960  0.93800  0.50110  Biso   1.000  H
  C113     1.0000 0.23801  0.48160  0.99559  Biso   1.000  C
  C114     1.0000 0.73801  0.98160  0.99559  Biso   1.000  C
  C115     1.0000 0.23801  0.51840  0.49559  Biso   1.000  C
  C116     1.0000 0.73801  0.01840  0.49559  Biso   1.000  C
  C117     1.0000 0.76199  0.51840  0.00441  Biso   1.000  C
  C118     1.0000 0.26199  0.01840  0.00441  Biso   1.000  C
  C119     1.0000 0.76199  0.48160  0.50441  Biso   1.000  C
  C120     1.0000 0.26199  0.98160  0.50441  Biso   1.000  C
  C121     1.0000 0.28071  0.45130  0.95889  Biso   1.000  C
  C122     1.0000 0.78071  0.95130  0.95889  Biso   1.000  C
  C123     1.0000 0.28071  0.54870  0.45889  Biso   1.000  C
  C124     1.0000 0.78071  0.04870  0.45889  Biso   1.000  C
  C125     1.0000 0.71929  0.54870  0.04111  Biso   1.000  C
  C126     1.0000 0.21929  0.04870  0.04111  Biso   1.000  C
  C127     1.0000 0.71929  0.45130  0.54111  Biso   1.000  C
  C128     1.0000 0.21929  0.95130  0.54111  Biso   1.000  C
  N33      1.0000 0.11240  0.66570  0.08813  Biso   1.000  N
  N34      1.0000 0.61240  0.16570  0.08813  Biso   1.000  N
  N35      1.0000 0.11240  0.33430  0.58813  Biso   1.000  N
  N36      1.0000 0.61240  0.83430  0.58813  Biso   1.000  N
  N37      1.0000 0.88760  0.33430  0.91187  Biso   1.000  N
  N38      1.0000 0.38760  0.83430  0.91187  Biso   1.000  N
  N39      1.0000 0.88760  0.66570  0.41187  Biso   1.000  N
  N40      1.0000 0.38760  0.16570  0.41187  Biso   1.000  N
  C129     1.0000 0.06156  0.67980  0.07999  Biso   1.000  C
  C130     1.0000 0.56156  0.17980  0.07999  Biso   1.000  C
  C131     1.0000 0.06156  0.32020  0.57999  Biso   1.000  C
  C132     1.0000 0.56156  0.82020  0.57999  Biso   1.000  C
  C133     1.0000 0.93844  0.32020  0.92001  Biso   1.000  C
  C134     1.0000 0.43844  0.82020  0.92001  Biso   1.000  C
  C135     1.0000 0.93844  0.67980  0.42001  Biso   1.000  C
  C136     1.0000 0.43844  0.17980  0.42001  Biso   1.000  C
  C137     1.0000 0.99578  0.69540  0.07090  Biso   1.000  C
  C138     1.0000 0.49578  0.19540  0.07090  Biso   1.000  C
  C139     1.0000 0.99578  0.30460  0.57090  Biso   1.000  C
  C140     1.0000 0.49578  0.80460  0.57090  Biso   1.000  C
  C141     1.0000 0.00422  0.30460  0.92910  Biso   1.000  C
  C142     1.0000 0.50422  0.80460  0.92910  Biso   1.000  C
  C143     1.0000 0.00422  0.69540  0.42910  Biso   1.000  C
  C144     1.0000 0.50422  0.19540  0.42910  Biso   1.000  C
  H81      1.0000 0.97810  0.59020  0.08040  Biso   1.000  H
  H82      1.0000 0.47810  0.09020  0.08040  Biso   1.000  H
  H83      1.0000 0.97810  0.40980  0.58040  Biso   1.000  H
  H84      1.0000 0.47810  0.90980  0.58040  Biso   1.000  H
  H85      1.0000 0.02190  0.40980  0.91960  Biso   1.000  H
  H86      1.0000 0.52190  0.90980  0.91960  Biso   1.000  H
  H87      1.0000 0.02190  0.59020  0.41960  Biso   1.000  H
  H88      1.0000 0.52190  0.09020  0.41960  Biso   1.000  H
  H89      1.0000 0.97990  0.72460  0.02880  Biso   1.000  H
  H90      1.0000 0.47990  0.22460  0.02880  Biso   1.000  H
  H91      1.0000 0.97990  0.27540  0.52880  Biso   1.000  H
  H92      1.0000 0.47990  0.77540  0.52880  Biso   1.000  H
  H93      1.0000 0.02010  0.27540  0.97120  Biso   1.000  H
  H94      1.0000 0.52010  0.77540  0.97120  Biso   1.000  H
  H95      1.0000 0.02010  0.72460  0.47120  Biso   1.000  H
  H96      1.0000 0.52010  0.22460  0.47120  Biso   1.000  H
  H97      1.0000 0.98510  0.78190  0.09740  Biso   1.000  H
  H98      1.0000 0.48510  0.28190  0.09740  Biso   1.000  H
  H99      1.0000 0.98510  0.21810  0.59740  Biso   1.000  H
  H100     1.0000 0.48510  0.71810  0.59740  Biso   1.000  H
  H101     1.0000 0.01490  0.21810  0.90260  Biso   1.000  H
  H102     1.0000 0.51490  0.71810  0.90260  Biso   1.000  H
  H103     1.0000 0.01490  0.78190  0.40260  Biso   1.000  H
  H104     1.0000 0.51490  0.28190  0.40260  Biso   1.000  H
  Cl1      1.0000 0.56539  0.31050  0.27675  Biso   1.000  Cl
  Cl2      1.0000 0.06539  0.81050  0.27675  Biso   1.000  Cl
  Cl3      1.0000 0.56539  0.68950  0.77675  Biso   1.000  Cl
  Cl4      1.0000 0.06539  0.18950  0.77675  Biso   1.000  Cl
  Cl5      1.0000 0.43461  0.68950  0.72325  Biso   1.000  Cl
  Cl6      1.0000 0.93461  0.18950  0.72325  Biso   1.000  Cl
  Cl7      1.0000 0.43461  0.31050  0.22325  Biso   1.000  Cl
  Cl8      1.0000 0.93461  0.81050  0.22325  Biso   1.000  Cl
  C145     1.0000 0.50000  0.42750  0.25000  Biso   1.000  C
  C146     1.0000 0.00000  0.92750  0.25000  Biso   1.000  C
  C147     1.0000 0.50000  0.57250  0.75000  Biso   1.000  C
  C148     1.0000 0.00000  0.07250  0.75000  Biso   1.000  C
  H105     1.0000 0.50900  0.49000  0.21620  Biso   1.000  H
  H106     1.0000 0.00900  0.99000  0.21620  Biso   1.000  H
  H107     1.0000 0.50900  0.51000  0.71620  Biso   1.000  H
  H108     1.0000 0.00900  0.01000  0.71620  Biso   1.000  H
  H109     1.0000 0.49100  0.51000  0.78380  Biso   1.000  H
  H110     1.0000 0.99100  0.01000  0.78380  Biso   1.000  H
  H111     1.0000 0.49100  0.49000  0.28380  Biso   1.000  H
  H112     1.0000 0.99100  0.99000  0.28380  Biso   1.000  H
  B1       1.0000 0.45886  0.70440  0.38800  Biso   1.000  B
  B2       1.0000 0.95886  0.20440  0.38800  Biso   1.000  B
  B3       1.0000 0.45886  0.29560  0.88800  Biso   1.000  B
  B4       1.0000 0.95886  0.79560  0.88800  Biso   1.000  B
  B5       1.0000 0.54114  0.29560  0.61200  Biso   1.000  B
  B6       1.0000 0.04114  0.79560  0.61200  Biso   1.000  B
  B7       1.0000 0.54114  0.70440  0.11200  Biso   1.000  B
  B8       1.0000 0.04114  0.20440  0.11200  Biso   1.000  B
  F1       1.0000 0.47550  0.80900  0.34740  Biso   1.000  F
  F2       1.0000 0.97550  0.30900  0.34740  Biso   1.000  F
  F3       1.0000 0.47550  0.19100  0.84740  Biso   1.000  F
  F4       1.0000 0.97550  0.69100  0.84740  Biso   1.000  F
  F5       1.0000 0.52450  0.19100  0.65260  Biso   1.000  F
  F6       1.0000 0.02450  0.69100  0.65260  Biso   1.000  F
  F7       1.0000 0.52450  0.80900  0.15260  Biso   1.000  F
  F8       1.0000 0.02450  0.30900  0.15260  Biso   1.000  F
  F9       1.0000 0.42290  0.77850  0.42000  Biso   1.000  F
  F10      1.0000 0.92290  0.27850  0.42000  Biso   1.000  F
  F11      1.0000 0.42290  0.22150  0.92000  Biso   1.000  F
  F12      1.0000 0.92290  0.72150  0.92000  Biso   1.000  F
  F13      1.0000 0.57710  0.22150  0.58000  Biso   1.000  F
  F14      1.0000 0.07710  0.72150  0.58000  Biso   1.000  F
  F15      1.0000 0.57710  0.77850  0.08000  Biso   1.000  F
  F16      1.0000 0.07710  0.27850  0.08000  Biso   1.000  F
  F17      1.0000 0.50130  0.61570  0.41980  Biso   1.000  F
  F18      1.0000 0.00130  0.11570  0.41980  Biso   1.000  F
  F19      1.0000 0.50130  0.38430  0.91980  Biso   1.000  F
  F20      1.0000 0.00130  0.88430  0.91980  Biso   1.000  F
  F21      1.0000 0.49870  0.38430  0.58020  Biso   1.000  F
  F22      1.0000 0.99870  0.88430  0.58020  Biso   1.000  F
  F23      1.0000 0.49870  0.61570  0.08020  Biso   1.000  F
  F24      1.0000 0.99870  0.11570  0.08020  Biso   1.000  F
  F25      1.0000 0.41500  0.58820  0.35500  Biso   1.000  F
  F26      1.0000 0.91500  0.08820  0.35500  Biso   1.000  F
  F27      1.0000 0.41500  0.41180  0.85500  Biso   1.000  F
  F28      1.0000 0.91500  0.91180  0.85500  Biso   1.000  F
  F29      1.0000 0.58500  0.41180  0.64500  Biso   1.000  F
  F30      1.0000 0.08500  0.91180  0.64500  Biso   1.000  F
  F31      1.0000 0.58500  0.58820  0.14500  Biso   1.000  F
  F32      1.0000 0.08500  0.08820  0.14500  Biso   1.000  F
  F33      1.0000 0.50930  0.78630  0.43640  Biso   1.000  F
  F34      1.0000 0.00930  0.28630  0.43640  Biso   1.000  F
  F35      1.0000 0.50930  0.21370  0.93640  Biso   1.000  F
  F36      1.0000 0.00930  0.71370  0.93640  Biso   1.000  F
  F37      1.0000 0.49070  0.21370  0.56360  Biso   1.000  F
  F38      1.0000 0.99070  0.71370  0.56360  Biso   1.000  F
  F39      1.0000 0.49070  0.78630  0.06360  Biso   1.000  F
  F40      1.0000 0.99070  0.28630  0.06360  Biso   1.000  F
  F41      1.0000 0.48220  0.55910  0.39110  Biso   1.000  F
  F42      1.0000 0.98220  0.05910  0.39110  Biso   1.000  F
  F43      1.0000 0.48220  0.44090  0.89110  Biso   1.000  F
  F44      1.0000 0.98220  0.94090  0.89110  Biso   1.000  F
  F45      1.0000 0.51780  0.44090  0.60890  Biso   1.000  F
  F46      1.0000 0.01780  0.94090  0.60890  Biso   1.000  F
  F47      1.0000 0.51780  0.55910  0.10890  Biso   1.000  F
  F48      1.0000 0.01780  0.05910  0.10890  Biso   1.000  F
  F49      1.0000 0.47310  0.77800  0.33870  Biso   1.000  F
  F50      1.0000 0.97310  0.27800  0.33870  Biso   1.000  F
  F51      1.0000 0.47310  0.22200  0.83870  Biso   1.000  F
  F52      1.0000 0.97310  0.72200  0.83870  Biso   1.000  F
  F53      1.0000 0.52690  0.22200  0.66130  Biso   1.000  F
  F54      1.0000 0.02690  0.72200  0.66130  Biso   1.000  F
  F55      1.0000 0.52690  0.77800  0.16130  Biso   1.000  F
  F56      1.0000 0.02690  0.27800  0.16130  Biso   1.000  F
  F57      1.0000 0.41140  0.74950  0.40660  Biso   1.000  F
  F58      1.0000 0.91140  0.24950  0.40660  Biso   1.000  F
  F59      1.0000 0.41140  0.25050  0.90660  Biso   1.000  F
  F60      1.0000 0.91140  0.75050  0.90660  Biso   1.000  F
  F61      1.0000 0.58860  0.25050  0.59340  Biso   1.000  F
  F62      1.0000 0.08860  0.75050  0.59340  Biso   1.000  F
  F63      1.0000 0.58860  0.74950  0.09340  Biso   1.000  F
  F64      1.0000 0.08860  0.24950  0.09340  Biso   1.000  F
