data_image0
_cell_length_a       7.996
_cell_length_b       7.862
_cell_length_c       15.6
_cell_angle_alpha    90
_cell_angle_beta     90
_cell_angle_gamma    100.47

_symmetry_space_group_name_H-M    "P 1"
_symmetry_int_tables_number       1

loop_
  _symmetry_equiv_pos_as_xyz
  'x, y, z'

loop_
  _atom_site_label
  _atom_site_occupancy
  _atom_site_fract_x
  _atom_site_fract_y
  _atom_site_fract_z
  _atom_site_thermal_displace_type
  _atom_site_B_iso_or_equiv
  _atom_site_type_symbol
  Cu1      1.0000 0.18160  0.05490  0.04930  Biso   1.000  Cu
  Cu2      1.0000 0.31840  0.94510  0.54930  Biso   1.000  Cu
  Cu3      1.0000 0.81840  0.94510  0.95070  Biso   1.000  Cu
  Cu4      1.0000 0.68160  0.05490  0.45070  Biso   1.000  Cu
  Br1      1.0000 0.14760  0.97430  0.89980  Biso   1.000  Br
  Br2      1.0000 0.35240  0.02570  0.39980  Biso   1.000  Br
  Br3      1.0000 0.85240  0.02570  0.10020  Biso   1.000  Br
  Br4      1.0000 0.64760  0.97430  0.60020  Biso   1.000  Br
  N1       1.0000 0.26270  0.30300  0.06010  Biso   1.000  N
  N2       1.0000 0.23730  0.69700  0.56010  Biso   1.000  N
  N3       1.0000 0.73730  0.69700  0.93990  Biso   1.000  N
  N4       1.0000 0.76270  0.30300  0.43990  Biso   1.000  N
  N5       1.0000 0.41060  0.59870  0.09250  Biso   1.000  N
  N6       1.0000 0.08940  0.40130  0.59250  Biso   1.000  N
  N7       1.0000 0.58940  0.40130  0.90750  Biso   1.000  N
  N8       1.0000 0.91060  0.59870  0.40750  Biso   1.000  N
  C1       1.0000 0.32790  0.43930  0.07510  Biso   1.000  C
  C2       1.0000 0.17210  0.56070  0.57510  Biso   1.000  C
  C3       1.0000 0.67210  0.56070  0.92490  Biso   1.000  C
  C4       1.0000 0.82790  0.43930  0.42490  Biso   1.000  C
  C5       1.0000 0.29670  0.96470  0.15810  Biso   1.000  C
  C6       1.0000 0.20330  0.03530  0.65810  Biso   1.000  C
  C7       1.0000 0.70330  0.03530  0.84190  Biso   1.000  C
  C8       1.0000 0.79670  0.96470  0.34190  Biso   1.000  C
  C9       1.0000 0.23690  0.82610  0.10690  Biso   1.000  C
  C10      1.0000 0.26310  0.17390  0.60690  Biso   1.000  C
  C11      1.0000 0.76310  0.17390  0.89310  Biso   1.000  C
  C12      1.0000 0.73690  0.82610  0.39310  Biso   1.000  C
  C13      1.0000 0.35510  0.74980  0.05080  Biso   1.000  C
  C14      1.0000 0.14490  0.25020  0.55080  Biso   1.000  C
  C15      1.0000 0.64490  0.25020  0.94920  Biso   1.000  C
  C16      1.0000 0.85510  0.74980  0.44920  Biso   1.000  C
  C17      1.0000 0.52170  0.62750  0.16860  Biso   1.000  C
  C18      1.0000 0.97830  0.37250  0.66860  Biso   1.000  C
  C19      1.0000 0.47830  0.37250  0.83140  Biso   1.000  C
  C20      1.0000 0.02170  0.62750  0.33140  Biso   1.000  C
  C21      1.0000 0.62630  0.49050  0.17510  Biso   1.000  C
  C22      1.0000 0.87370  0.50950  0.67510  Biso   1.000  C
  C23      1.0000 0.37370  0.50950  0.82490  Biso   1.000  C
  C24      1.0000 0.12630  0.49050  0.32490  Biso   1.000  C
  C25      1.0000 0.61370  0.37710  0.23140  Biso   1.000  C
  C26      1.0000 0.88630  0.62290  0.73140  Biso   1.000  C
  C27      1.0000 0.38630  0.62290  0.76860  Biso   1.000  C
  C28      1.0000 0.11370  0.37710  0.26860  Biso   1.000  C
  H1       1.0000 0.22500  0.99600  0.18700  Biso   1.000  H
  H2       1.0000 0.27500  0.00400  0.68700  Biso   1.000  H
  H3       1.0000 0.77500  0.00400  0.81300  Biso   1.000  H
  H4       1.0000 0.72500  0.99600  0.31300  Biso   1.000  H
  H5       1.0000 0.42000  0.04500  0.16900  Biso   1.000  H
  H6       1.0000 0.08000  0.95500  0.66900  Biso   1.000  H
  H7       1.0000 0.58000  0.95500  0.83100  Biso   1.000  H
  H8       1.0000 0.92000  0.04500  0.33100  Biso   1.000  H
  H9       1.0000 0.11600  0.73200  0.11500  Biso   1.000  H
  H10      1.0000 0.38400  0.26800  0.61500  Biso   1.000  H
  H11      1.0000 0.88400  0.26800  0.88500  Biso   1.000  H
  H12      1.0000 0.61600  0.73200  0.38500  Biso   1.000  H
  H13      1.0000 0.29200  0.70500  0.99600  Biso   1.000  H
  H14      1.0000 0.20800  0.29500  0.49600  Biso   1.000  H
  H15      1.0000 0.70800  0.29500  0.00400  Biso   1.000  H
  H16      1.0000 0.79200  0.70500  0.50400  Biso   1.000  H
  H17      1.0000 0.45500  0.81100  0.03900  Biso   1.000  H
  H18      1.0000 0.04500  0.18900  0.53900  Biso   1.000  H
  H19      1.0000 0.54500  0.18900  0.96100  Biso   1.000  H
  H20      1.0000 0.95500  0.81100  0.46100  Biso   1.000  H
  H21      1.0000 0.60600  0.75100  0.15500  Biso   1.000  H
  H22      1.0000 0.89400  0.24900  0.65500  Biso   1.000  H
  H23      1.0000 0.39400  0.24900  0.84500  Biso   1.000  H
  H24      1.0000 0.10600  0.75100  0.34500  Biso   1.000  H
  H25      1.0000 0.45100  0.62700  0.22200  Biso   1.000  H
  H26      1.0000 0.04900  0.37300  0.72200  Biso   1.000  H
  H27      1.0000 0.54900  0.37300  0.77800  Biso   1.000  H
  H28      1.0000 0.95100  0.62700  0.27800  Biso   1.000  H
  H29      1.0000 0.72400  0.49200  0.13500  Biso   1.000  H
  H30      1.0000 0.77600  0.50800  0.63500  Biso   1.000  H
  H31      1.0000 0.27600  0.50800  0.86500  Biso   1.000  H
  H32      1.0000 0.22400  0.49200  0.36500  Biso   1.000  H
  H33      1.0000 0.68600  0.30000  0.23400  Biso   1.000  H
  H34      1.0000 0.81400  0.70000  0.73400  Biso   1.000  H
  H35      1.0000 0.31400  0.70000  0.76600  Biso   1.000  H
  H36      1.0000 0.18600  0.30000  0.26600  Biso   1.000  H
  H37      1.0000 0.52300  0.38000  0.27100  Biso   1.000  H
  H38      1.0000 0.97700  0.62000  0.77100  Biso   1.000  H
  H39      1.0000 0.47700  0.62000  0.72900  Biso   1.000  H
  H40      1.0000 0.02300  0.38000  0.22900  Biso   1.000  H
