data_image0
_cell_length_a       8.9
_cell_length_b       12.537
_cell_length_c       12.887
_cell_angle_alpha    72.34
_cell_angle_beta     78.06
_cell_angle_gamma    88.23

_symmetry_space_group_name_H-M    "P 1"
_symmetry_int_tables_number       1

loop_
  _symmetry_equiv_pos_as_xyz
  'x, y, z'

loop_
  _atom_site_label
  _atom_site_occupancy
  _atom_site_fract_x
  _atom_site_fract_y
  _atom_site_fract_z
  _atom_site_thermal_displace_type
  _atom_site_B_iso_or_equiv
  _atom_site_type_symbol
  Cu1      1.0000 0.22230  0.85600  0.24420  Biso   1.000  Cu
  Cu2      1.0000 0.77770  0.14400  0.75580  Biso   1.000  Cu
  Cu3      1.0000 0.33660  0.72450  0.11990  Biso   1.000  Cu
  Cu4      1.0000 0.66340  0.27550  0.88010  Biso   1.000  Cu
  Cu5      1.0000 0.25100  0.62500  0.34880  Biso   1.000  Cu
  Cu6      1.0000 0.74900  0.37500  0.65120  Biso   1.000  Cu
  Cu7      1.0000 0.55040  0.67460  0.25760  Biso   1.000  Cu
  Cu8      1.0000 0.44960  0.32540  0.74240  Biso   1.000  Cu
  C1       1.0000 0.54700  0.92050  0.13130  Biso   1.000  C
  C2       1.0000 0.45300  0.07950  0.86870  Biso   1.000  C
  C3       1.0000 0.60400  0.09690  0.17760  Biso   1.000  C
  C4       1.0000 0.39600  0.90310  0.82240  Biso   1.000  C
  C5       1.0000 0.44050  0.04970  0.21690  Biso   1.000  C
  C6       1.0000 0.55950  0.95030  0.78310  Biso   1.000  C
  C7       1.0000 0.00290  0.64710  0.23500  Biso   1.000  C
  C8       1.0000 0.99710  0.35290  0.76500  Biso   1.000  C
  C9       1.0000 0.82380  0.47710  0.33000  Biso   1.000  C
  C10      1.0000 0.17620  0.52290  0.67000  Biso   1.000  C
  C11      1.0000 0.97530  0.47590  0.36610  Biso   1.000  C
  C12      1.0000 0.02470  0.52410  0.63390  Biso   1.000  C
  C13      1.0000 0.44280  0.77570  0.43540  Biso   1.000  C
  C14      1.0000 0.55720  0.22430  0.56460  Biso   1.000  C
  C15      1.0000 0.70520  0.76730  0.40680  Biso   1.000  C
  C16      1.0000 0.29480  0.23270  0.59320  Biso   1.000  C
  C17      1.0000 0.67280  0.84090  0.47970  Biso   1.000  C
  C18      1.0000 0.32720  0.15910  0.52030  Biso   1.000  C
  C19      1.0000 0.36960  0.48460  0.19600  Biso   1.000  C
  C20      1.0000 0.63040  0.51540  0.80400  Biso   1.000  C
  C21      1.0000 0.26950  0.52660  0.03820  Biso   1.000  C
  C22      1.0000 0.73050  0.47340  0.96180  Biso   1.000  C
  C23      1.0000 0.28780  0.40150  0.05800  Biso   1.000  C
  C24      1.0000 0.71220  0.59850  0.94200  Biso   1.000  C
  C25      1.0000 0.06140  0.06770  0.15410  Biso   1.000  C
  C26      1.0000 0.93860  0.93230  0.84590  Biso   1.000  C
  C27      1.0000 0.99330  0.16890  0.14480  Biso   1.000  C
  C28      1.0000 0.00670  0.83110  0.85520  Biso   1.000  C
  C29      1.0000 0.94360  0.20080  0.23810  Biso   1.000  C
  C30      1.0000 0.05640  0.79920  0.76190  Biso   1.000  C
  C31      1.0000 0.96530  0.13060  0.33560  Biso   1.000  C
  C32      1.0000 0.03470  0.86940  0.66440  Biso   1.000  C
  C33      1.0000 0.03530  0.02990  0.34140  Biso   1.000  C
  C34      1.0000 0.96470  0.97010  0.65860  Biso   1.000  C
  N1       1.0000 0.42000  0.94990  0.18100  Biso   1.000  N
  N2       1.0000 0.58000  0.05010  0.81900  Biso   1.000  N
  N3       1.0000 0.05910  0.58330  0.31640  Biso   1.000  N
  N4       1.0000 0.94090  0.41670  0.68360  Biso   1.000  N
  N5       1.0000 0.56230  0.74500  0.37690  Biso   1.000  N
  N6       1.0000 0.43770  0.25500  0.62310  Biso   1.000  N
  N7       1.0000 0.33570  0.56470  0.11570  Biso   1.000  N
  N8       1.0000 0.66430  0.43530  0.88430  Biso   1.000  N
  N9       1.0000 0.07980  0.99750  0.25090  Biso   1.000  N
  N10      1.0000 0.92020  0.00250  0.74910  Biso   1.000  N
  S1       1.0000 0.56980  0.80490  0.08260  Biso   1.000  S
  S2       1.0000 0.43020  0.19510  0.91740  Biso   1.000  S
  S3       1.0000 0.71260  0.00040  0.11310  Biso   1.000  S
  S4       1.0000 0.28740  0.99960  0.88690  Biso   1.000  S
  S5       1.0000 0.08480  0.77650  0.14720  Biso   1.000  S
  S6       1.0000 0.91520  0.22350  0.85280  Biso   1.000  S
  S7       1.0000 0.83590  0.59660  0.20700  Biso   1.000  S
  S8       1.0000 0.16410  0.40340  0.79300  Biso   1.000  S
  S9       1.0000 0.25040  0.75700  0.42970  Biso   1.000  S
  S10      1.0000 0.74960  0.24300  0.57030  Biso   1.000  S
  S11      1.0000 0.47390  0.84530  0.52870  Biso   1.000  S
  S12      1.0000 0.52610  0.15470  0.47130  Biso   1.000  S
  S13      1.0000 0.43550  0.50000  0.30950  Biso   1.000  S
  S14      1.0000 0.56450  0.50000  0.69050  Biso   1.000  S
  S15      1.0000 0.34220  0.34770  0.19200  Biso   1.000  S
  S16      1.0000 0.65780  0.65230  0.80800  Biso   1.000  S
