data_image0
_cell_length_a       11.449
_cell_length_b       9.079
_cell_length_c       13.13
_cell_angle_alpha    90
_cell_angle_beta     113.93
_cell_angle_gamma    90

_symmetry_space_group_name_H-M    "P 1"
_symmetry_int_tables_number       1

loop_
  _symmetry_equiv_pos_as_xyz
  'x, y, z'

loop_
  _atom_site_label
  _atom_site_occupancy
  _atom_site_fract_x
  _atom_site_fract_y
  _atom_site_fract_z
  _atom_site_thermal_displace_type
  _atom_site_B_iso_or_equiv
  _atom_site_type_symbol
  Cu1      1.0000 0.29243  0.27525  0.57369  Biso   1.000  Cu
  Cu2      1.0000 0.70757  0.77525  0.92631  Biso   1.000  Cu
  Cu3      1.0000 0.70757  0.72475  0.42631  Biso   1.000  Cu
  Cu4      1.0000 0.29243  0.22475  0.07369  Biso   1.000  Cu
  S1       1.0000 0.72937  0.51720  0.17657  Biso   1.000  S
  S2       1.0000 0.27063  0.01720  0.32343  Biso   1.000  S
  S3       1.0000 0.27063  0.48280  0.82343  Biso   1.000  S
  S4       1.0000 0.72937  0.98280  0.67657  Biso   1.000  S
  N1       1.0000 0.10500  0.28460  0.51380  Biso   1.000  N
  N2       1.0000 0.89500  0.78460  0.98620  Biso   1.000  N
  N3       1.0000 0.89500  0.71540  0.48620  Biso   1.000  N
  N4       1.0000 0.10500  0.21540  0.01380  Biso   1.000  N
  C1       1.0000 0.02520  0.21020  0.54310  Biso   1.000  C
  C2       1.0000 0.97480  0.71020  0.95690  Biso   1.000  C
  C3       1.0000 0.97480  0.78980  0.45690  Biso   1.000  C
  C4       1.0000 0.02520  0.28980  0.04310  Biso   1.000  C
  C5       1.0000 0.89290  0.22250  0.48390  Biso   1.000  C
  C6       1.0000 0.10710  0.72250  0.01610  Biso   1.000  C
  C7       1.0000 0.10710  0.77750  0.51610  Biso   1.000  C
  C8       1.0000 0.89290  0.27750  0.98390  Biso   1.000  C
  C9       1.0000 0.84340  0.31160  0.39270  Biso   1.000  C
  C10      1.0000 0.15660  0.81160  0.10730  Biso   1.000  C
  C11      1.0000 0.15660  0.68840  0.60730  Biso   1.000  C
  C12      1.0000 0.84340  0.18840  0.89270  Biso   1.000  C
  C13      1.0000 0.89110  0.48640  0.26430  Biso   1.000  C
  C14      1.0000 0.10890  0.98640  0.23570  Biso   1.000  C
  C15      1.0000 0.10890  0.51360  0.73570  Biso   1.000  C
  C16      1.0000 0.89110  0.01360  0.76430  Biso   1.000  C
  C17      1.0000 0.98470  0.55790  0.24250  Biso   1.000  C
  C18      1.0000 0.01530  0.05790  0.25750  Biso   1.000  C
  C19      1.0000 0.01530  0.44210  0.75750  Biso   1.000  C
  C20      1.0000 0.98470  0.94210  0.74250  Biso   1.000  C
  C21      1.0000 0.11400  0.54400  0.30990  Biso   1.000  C
  C22      1.0000 0.88600  0.04400  0.19010  Biso   1.000  C
  C23      1.0000 0.88600  0.45600  0.69010  Biso   1.000  C
  C24      1.0000 0.11400  0.95600  0.80990  Biso   1.000  C
  C25      1.0000 0.15480  0.45440  0.40250  Biso   1.000  C
  C26      1.0000 0.84520  0.95440  0.09750  Biso   1.000  C
  C27      1.0000 0.84520  0.54560  0.59750  Biso   1.000  C
  C28      1.0000 0.15480  0.04560  0.90250  Biso   1.000  C
  C29      1.0000 0.05840  0.37690  0.42390  Biso   1.000  C
  C30      1.0000 0.94160  0.87690  0.07610  Biso   1.000  C
  C31      1.0000 0.94160  0.62310  0.57610  Biso   1.000  C
  C32      1.0000 0.05840  0.12310  0.92390  Biso   1.000  C
  C33      1.0000 0.92720  0.39190  0.35830  Biso   1.000  C
  C34      1.0000 0.07280  0.89190  0.14170  Biso   1.000  C
  C35      1.0000 0.07280  0.60810  0.64170  Biso   1.000  C
  C36      1.0000 0.92720  0.10810  0.85830  Biso   1.000  C
  O1       1.0000 0.27420  0.43650  0.47190  Biso   1.000  O
  O2       1.0000 0.72580  0.93650  0.02810  Biso   1.000  O
  O3       1.0000 0.72580  0.56350  0.52810  Biso   1.000  O
  O4       1.0000 0.27420  0.06350  0.97190  Biso   1.000  O
  O5       1.0000 0.67250  0.37320  0.13630  Biso   1.000  O
  O6       1.0000 0.32750  0.87320  0.36370  Biso   1.000  O
  O7       1.0000 0.32750  0.62680  0.86370  Biso   1.000  O
  O8       1.0000 0.67250  0.12680  0.63630  Biso   1.000  O
  O9       1.0000 0.72780  0.60740  0.08600  Biso   1.000  O
  O10      1.0000 0.27220  0.10740  0.41400  Biso   1.000  O
  O11      1.0000 0.27220  0.39260  0.91400  Biso   1.000  O
  O12      1.0000 0.72780  0.89260  0.58600  Biso   1.000  O
  O13      1.0000 0.67080  0.58660  0.24400  Biso   1.000  O
  O14      1.0000 0.32920  0.08660  0.25600  Biso   1.000  O
  O15      1.0000 0.32920  0.41340  0.75600  Biso   1.000  O
  O16      1.0000 0.67080  0.91340  0.74400  Biso   1.000  O
  O17      1.0000 0.47690  0.29530  0.63320  Biso   1.000  O
  O18      1.0000 0.52310  0.79530  0.86680  Biso   1.000  O
  O19      1.0000 0.52310  0.70470  0.36680  Biso   1.000  O
  O20      1.0000 0.47690  0.20470  0.13320  Biso   1.000  O
  O21      1.0000 0.30130  0.09110  0.65440  Biso   1.000  O
  O22      1.0000 0.69870  0.59110  0.84560  Biso   1.000  O
  O23      1.0000 0.69870  0.90890  0.34560  Biso   1.000  O
  O24      1.0000 0.30130  0.40890  0.15440  Biso   1.000  O
  O25      1.0000 0.56200  0.93220  0.12760  Biso   1.000  O
  O26      1.0000 0.43800  0.43220  0.37240  Biso   1.000  O
  O27      1.0000 0.43800  0.06780  0.87240  Biso   1.000  O
  O28      1.0000 0.56200  0.56780  0.62760  Biso   1.000  O
  O29      1.0000 0.41470  0.65530  0.09980  Biso   1.000  O
  O30      1.0000 0.58530  0.15530  0.40020  Biso   1.000  O
  O31      1.0000 0.58530  0.34470  0.90020  Biso   1.000  O
  O32      1.0000 0.41470  0.84470  0.59980  Biso   1.000  O
  H1       1.0000 0.07100  0.14560  0.61220  Biso   1.000  H
  H2       1.0000 0.92900  0.64560  0.88780  Biso   1.000  H
  H3       1.0000 0.92900  0.85440  0.38780  Biso   1.000  H
  H4       1.0000 0.07100  0.35440  0.11220  Biso   1.000  H
  H5       1.0000 0.83900  0.16990  0.51080  Biso   1.000  H
  H6       1.0000 0.16100  0.66990  0.98920  Biso   1.000  H
  H7       1.0000 0.16100  0.83010  0.48920  Biso   1.000  H
  H8       1.0000 0.83900  0.33010  0.01080  Biso   1.000  H
  H9       1.0000 0.74920  0.31540  0.34320  Biso   1.000  H
  H10      1.0000 0.25080  0.81540  0.15680  Biso   1.000  H
  H11      1.0000 0.25080  0.68460  0.65680  Biso   1.000  H
  H12      1.0000 0.74920  0.18460  0.84320  Biso   1.000  H
  H13      1.0000 0.94860  0.62280  0.17180  Biso   1.000  H
  H14      1.0000 0.05140  0.12280  0.32820  Biso   1.000  H
  H15      1.0000 0.05140  0.37720  0.82820  Biso   1.000  H
  H16      1.0000 0.94860  0.87720  0.67180  Biso   1.000  H
  H17      1.0000 0.16650  0.59790  0.29350  Biso   1.000  H
  H18      1.0000 0.83350  0.09790  0.20650  Biso   1.000  H
  H19      1.0000 0.83350  0.40210  0.70650  Biso   1.000  H
  H20      1.0000 0.16650  0.90210  0.79350  Biso   1.000  H
  H21      1.0000 0.49580  0.37750  0.63010  Biso   1.000  H
  H22      1.0000 0.50420  0.87750  0.86990  Biso   1.000  H
  H23      1.0000 0.50420  0.62250  0.36990  Biso   1.000  H
  H24      1.0000 0.49580  0.12250  0.13010  Biso   1.000  H
  H25      1.0000 0.53540  0.21900  0.64370  Biso   1.000  H
  H26      1.0000 0.46460  0.71900  0.85630  Biso   1.000  H
  H27      1.0000 0.46460  0.78100  0.35630  Biso   1.000  H
  H28      1.0000 0.53540  0.28100  0.14370  Biso   1.000  H
  H29      1.0000 0.34850  0.08740  0.72380  Biso   1.000  H
  H30      1.0000 0.65150  0.58740  0.77620  Biso   1.000  H
  H31      1.0000 0.65150  0.91260  0.27620  Biso   1.000  H
  H32      1.0000 0.34850  0.41260  0.22380  Biso   1.000  H
  H33      1.0000 0.32370  0.03430  0.63420  Biso   1.000  H
  H34      1.0000 0.67630  0.53430  0.86580  Biso   1.000  H
  H35      1.0000 0.67630  0.96570  0.36580  Biso   1.000  H
  H36      1.0000 0.32370  0.46570  0.13420  Biso   1.000  H
  H37      1.0000 0.50170  0.87400  0.10100  Biso   1.000  H
  H38      1.0000 0.49830  0.37400  0.39900  Biso   1.000  H
  H39      1.0000 0.49830  0.12600  0.89900  Biso   1.000  H
  H40      1.0000 0.50170  0.62600  0.60100  Biso   1.000  H
  H41      1.0000 0.60260  0.92860  0.09350  Biso   1.000  H
  H42      1.0000 0.39740  0.42860  0.40650  Biso   1.000  H
  H43      1.0000 0.39740  0.07140  0.90650  Biso   1.000  H
  H44      1.0000 0.60260  0.57140  0.59350  Biso   1.000  H
  H45      1.0000 0.49710  0.63530  0.14490  Biso   1.000  H
  H46      1.0000 0.50290  0.13530  0.35510  Biso   1.000  H
  H47      1.0000 0.50290  0.36470  0.85510  Biso   1.000  H
  H48      1.0000 0.49710  0.86470  0.64490  Biso   1.000  H
  H49      1.0000 0.40940  0.63770  0.04040  Biso   1.000  H
  H50      1.0000 0.59060  0.13770  0.45960  Biso   1.000  H
  H51      1.0000 0.59060  0.36230  0.95960  Biso   1.000  H
  H52      1.0000 0.40940  0.86230  0.54040  Biso   1.000  H
