data_image0
_cell_length_a       11.632
_cell_length_b       11.632
_cell_length_c       15.554
_cell_angle_alpha    90
_cell_angle_beta     90
_cell_angle_gamma    120

_symmetry_space_group_name_H-M    "P 1"
_symmetry_int_tables_number       1

loop_
  _symmetry_equiv_pos_as_xyz
  'x, y, z'

loop_
  _atom_site_label
  _atom_site_occupancy
  _atom_site_fract_x
  _atom_site_fract_y
  _atom_site_fract_z
  _atom_site_thermal_displace_type
  _atom_site_B_iso_or_equiv
  _atom_site_type_symbol
  Cu1      1.0000 0.19650  0.19650  0.00000  Biso   1.000  Cu
  Cu2      1.0000 0.80350  0.00000  0.33333  Biso   1.000  Cu
  Cu3      1.0000 0.00000  0.80350  0.66667  Biso   1.000  Cu
  O1       1.0000 0.92500  0.28460  0.08650  Biso   1.000  O
  O2       1.0000 0.71540  0.64040  0.41983  Biso   1.000  O
  O3       1.0000 0.35960  0.07500  0.75317  Biso   1.000  O
  O4       1.0000 0.28460  0.92500  0.91350  Biso   1.000  O
  O5       1.0000 0.64040  0.71540  0.58017  Biso   1.000  O
  O6       1.0000 0.07500  0.35960  0.24683  Biso   1.000  O
  N1       1.0000 0.09410  0.27530  0.02600  Biso   1.000  N
  N2       1.0000 0.72470  0.81880  0.35933  Biso   1.000  N
  N3       1.0000 0.18120  0.90590  0.69267  Biso   1.000  N
  N4       1.0000 0.27530  0.09410  0.97400  Biso   1.000  N
  N5       1.0000 0.81880  0.72470  0.64067  Biso   1.000  N
  N6       1.0000 0.90590  0.18120  0.30733  Biso   1.000  N
  C1       1.0000 0.00000  0.16210  0.16670  Biso   1.000  C
  C2       1.0000 0.83790  0.83790  0.50003  Biso   1.000  C
  C3       1.0000 0.16210  0.00000  0.83337  Biso   1.000  C
  C4       1.0000 0.87750  0.02650  0.15090  Biso   1.000  C
  C5       1.0000 0.97350  0.85100  0.48423  Biso   1.000  C
  C6       1.0000 0.14900  0.12250  0.81757  Biso   1.000  C
  C7       1.0000 0.02650  0.87750  0.84910  Biso   1.000  C
  C8       1.0000 0.85100  0.97350  0.51577  Biso   1.000  C
  C9       1.0000 0.12250  0.14900  0.18243  Biso   1.000  C
  C10      1.0000 0.01270  0.24440  0.08850  Biso   1.000  C
  C11      1.0000 0.75560  0.76830  0.42183  Biso   1.000  C
  C12      1.0000 0.23170  0.98730  0.75517  Biso   1.000  C
  C13      1.0000 0.24440  0.01270  0.91150  Biso   1.000  C
  C14      1.0000 0.76830  0.75560  0.57817  Biso   1.000  C
  C15      1.0000 0.98730  0.23170  0.24483  Biso   1.000  C
  C16      1.0000 0.94380  0.35460  0.00680  Biso   1.000  C
  C17      1.0000 0.64540  0.58920  0.34013  Biso   1.000  C
  C18      1.0000 0.41080  0.05620  0.67347  Biso   1.000  C
  C19      1.0000 0.35460  0.94380  0.99320  Biso   1.000  C
  C20      1.0000 0.58920  0.64540  0.65987  Biso   1.000  C
  C21      1.0000 0.05620  0.41080  0.32653  Biso   1.000  C
  C22      1.0000 0.06300  0.35710  0.96440  Biso   1.000  C
  C23      1.0000 0.64290  0.70590  0.29773  Biso   1.000  C
  C24      1.0000 0.29410  0.93700  0.63107  Biso   1.000  C
  C25      1.0000 0.35710  0.06300  0.03560  Biso   1.000  C
  C26      1.0000 0.70590  0.64290  0.70227  Biso   1.000  C
  C27      1.0000 0.93700  0.29410  0.36893  Biso   1.000  C
  C28      1.0000 0.18430  0.49300  0.94820  Biso   1.000  C
  C29      1.0000 0.50700  0.69130  0.28153  Biso   1.000  C
  C30      1.0000 0.30870  0.81570  0.61487  Biso   1.000  C
  C31      1.0000 0.49300  0.18430  0.05180  Biso   1.000  C
  C32      1.0000 0.69130  0.50700  0.71847  Biso   1.000  C
  C33      1.0000 0.81570  0.30870  0.38513  Biso   1.000  C
  C34      1.0000 0.14020  0.57110  0.89270  Biso   1.000  C
  C35      1.0000 0.42890  0.56910  0.22603  Biso   1.000  C
  C36      1.0000 0.43090  0.85980  0.55937  Biso   1.000  C
  C37      1.0000 0.57110  0.14020  0.10730  Biso   1.000  C
  C38      1.0000 0.56910  0.42890  0.77397  Biso   1.000  C
  C39      1.0000 0.85980  0.43090  0.44063  Biso   1.000  C
  C40      1.0000 0.24000  0.56560  0.03180  Biso   1.000  C
  C41      1.0000 0.43440  0.67440  0.36513  Biso   1.000  C
  C42      1.0000 0.32560  0.76000  0.69847  Biso   1.000  C
  C43      1.0000 0.56560  0.24000  0.96820  Biso   1.000  C
  C44      1.0000 0.67440  0.43440  0.63487  Biso   1.000  C
  C45      1.0000 0.76000  0.32560  0.30153  Biso   1.000  C
  C46      1.0000 0.29090  0.47950  0.89800  Biso   1.000  C
  C47      1.0000 0.52050  0.81140  0.23133  Biso   1.000  C
  C48      1.0000 0.18860  0.70910  0.56467  Biso   1.000  C
  C49      1.0000 0.47950  0.29090  0.10200  Biso   1.000  C
  C50      1.0000 0.81140  0.52050  0.76867  Biso   1.000  C
  C51      1.0000 0.70910  0.18860  0.43533  Biso   1.000  C
  S1       1.0000 0.00000  0.74000  0.16670  Biso   1.000  S
  S2       1.0000 0.26000  0.26000  0.50003  Biso   1.000  S
  S3       1.0000 0.74000  0.00000  0.83337  Biso   1.000  S
  C52      1.0000 0.86080  0.65140  0.09560  Biso   1.000  C
  C53      1.0000 0.34860  0.20940  0.42893  Biso   1.000  C
  C54      1.0000 0.79060  0.13920  0.76227  Biso   1.000  C
  C55      1.0000 0.65140  0.86080  0.90440  Biso   1.000  C
  C56      1.0000 0.20940  0.34860  0.57107  Biso   1.000  C
  C57      1.0000 0.13920  0.79060  0.23773  Biso   1.000  C
  O7       1.0000 0.03640  0.81620  0.08530  Biso   1.000  O
  O8       1.0000 0.18380  0.22020  0.41863  Biso   1.000  O
  O9       1.0000 0.77980  0.96360  0.75197  Biso   1.000  O
  O10      1.0000 0.81620  0.03640  0.91470  Biso   1.000  O
  O11      1.0000 0.22020  0.18380  0.58137  Biso   1.000  O
  O12      1.0000 0.96360  0.77980  0.24803  Biso   1.000  O
  O13      1.0000 0.93150  0.59620  0.14750  Biso   1.000  O
  O14      1.0000 0.40380  0.33530  0.48083  Biso   1.000  O
  O15      1.0000 0.66470  0.06850  0.81417  Biso   1.000  O
  O16      1.0000 0.59620  0.93150  0.85250  Biso   1.000  O
  O17      1.0000 0.33530  0.40380  0.51917  Biso   1.000  O
  O18      1.0000 0.06850  0.66470  0.18583  Biso   1.000  O
  O19      1.0000 0.91100  0.77090  0.21720  Biso   1.000  O
  O20      1.0000 0.22910  0.14010  0.55053  Biso   1.000  O
  O21      1.0000 0.85990  0.08900  0.88387  Biso   1.000  O
  O22      1.0000 0.77090  0.91100  0.78280  Biso   1.000  O
  O23      1.0000 0.14010  0.22910  0.44947  Biso   1.000  O
  O24      1.0000 0.08900  0.85990  0.11613  Biso   1.000  O
  F1       1.0000 0.80950  0.71930  0.08190  Biso   1.000  F
  F2       1.0000 0.28070  0.09020  0.41523  Biso   1.000  F
  F3       1.0000 0.90980  0.19050  0.74857  Biso   1.000  F
  F4       1.0000 0.71930  0.80950  0.91810  Biso   1.000  F
  F5       1.0000 0.09020  0.28070  0.58477  Biso   1.000  F
  F6       1.0000 0.19050  0.90980  0.25143  Biso   1.000  F
  F7       1.0000 0.89580  0.62590  0.02750  Biso   1.000  F
  F8       1.0000 0.37410  0.26990  0.36083  Biso   1.000  F
  F9       1.0000 0.73010  0.10420  0.69417  Biso   1.000  F
  F10      1.0000 0.62590  0.89580  0.97250  Biso   1.000  F
  F11      1.0000 0.26990  0.37410  0.63917  Biso   1.000  F
  F12      1.0000 0.10420  0.73010  0.30583  Biso   1.000  F
  F13      1.0000 0.78050  0.54800  0.13090  Biso   1.000  F
  F14      1.0000 0.45200  0.23250  0.46423  Biso   1.000  F
  F15      1.0000 0.76750  0.21950  0.79757  Biso   1.000  F
  F16      1.0000 0.54800  0.78050  0.86910  Biso   1.000  F
  F17      1.0000 0.23250  0.45200  0.53577  Biso   1.000  F
  F18      1.0000 0.21950  0.76750  0.20243  Biso   1.000  F
