data_image0
_cell_length_a       9.048
_cell_length_b       11.705
_cell_length_c       8.543
_cell_angle_alpha    112.36
_cell_angle_beta     99.66
_cell_angle_gamma    65.04

_symmetry_space_group_name_H-M    "P 1"
_symmetry_int_tables_number       1

loop_
  _symmetry_equiv_pos_as_xyz
  'x, y, z'

loop_
  _atom_site_label
  _atom_site_occupancy
  _atom_site_fract_x
  _atom_site_fract_y
  _atom_site_fract_z
  _atom_site_thermal_displace_type
  _atom_site_B_iso_or_equiv
  _atom_site_type_symbol
  Cu1      1.0000 0.89820  0.83733  0.59820  Biso   1.000  Cu
  Cu2      1.0000 0.10180  0.16267  0.40180  Biso   1.000  Cu
  P1       1.0000 0.35290  0.28130  0.99730  Biso   1.000  P
  P2       1.0000 0.64710  0.71870  0.00270  Biso   1.000  P
  F1       1.0000 0.35700  0.29700  0.82900  Biso   1.000  F
  F2       1.0000 0.64300  0.70300  0.17100  Biso   1.000  F
  F3       1.0000 0.33600  0.24800  0.14700  Biso   1.000  F
  F4       1.0000 0.66400  0.75200  0.85300  Biso   1.000  F
  F5       1.0000 0.19300  0.26600  0.92700  Biso   1.000  F
  F6       1.0000 0.80700  0.73400  0.07300  Biso   1.000  F
  F7       1.0000 0.27300  0.42300  0.12500  Biso   1.000  F
  F8       1.0000 0.72700  0.57700  0.87500  Biso   1.000  F
  F9       1.0000 0.51300  0.30600  0.06200  Biso   1.000  F
  F10      1.0000 0.48700  0.69400  0.93800  Biso   1.000  F
  F11      1.0000 0.46300  0.14200  0.90200  Biso   1.000  F
  F12      1.0000 0.53700  0.85800  0.09800  Biso   1.000  F
  F13      1.0000 0.17700  0.40600  0.01200  Biso   1.000  F
  F14      1.0000 0.82300  0.59400  0.98800  Biso   1.000  F
  F15      1.0000 0.39300  0.39600  0.03100  Biso   1.000  F
  F16      1.0000 0.60700  0.60400  0.96900  Biso   1.000  F
  F17      1.0000 0.51100  0.20200  0.01300  Biso   1.000  F
  F18      1.0000 0.48900  0.79800  0.98700  Biso   1.000  F
  F19      1.0000 0.25700  0.20000  0.96400  Biso   1.000  F
  F20      1.0000 0.74300  0.80000  0.03600  Biso   1.000  F
  O1       1.0000 0.63200  0.31000  0.44400  Biso   1.000  O
  O2       1.0000 0.36800  0.69000  0.55600  Biso   1.000  O
  N1       1.0000 0.33800  0.06400  0.45390  Biso   1.000  N
  N2       1.0000 0.66200  0.93600  0.54610  Biso   1.000  N
  N3       1.0000 0.96130  0.92930  0.83810  Biso   1.000  N
  N4       1.0000 0.03870  0.07070  0.16190  Biso   1.000  N
  N5       1.0000 0.04660  0.36290  0.45930  Biso   1.000  N
  N6       1.0000 0.95340  0.63710  0.54070  Biso   1.000  N
  N7       1.0000 0.96340  0.17610  0.57800  Biso   1.000  N
  N8       1.0000 0.03660  0.82390  0.42200  Biso   1.000  N
  C1       1.0000 0.38290  0.97150  0.52870  Biso   1.000  C
  C2       1.0000 0.61710  0.02850  0.47130  Biso   1.000  C
  C3       1.0000 0.45860  0.08880  0.42640  Biso   1.000  C
  C4       1.0000 0.54140  0.91120  0.57360  Biso   1.000  C
  C5       1.0000 0.10270  0.94280  0.87420  Biso   1.000  C
  C6       1.0000 0.89730  0.05720  0.12580  Biso   1.000  C
  C7       1.0000 0.14150  0.01330  0.03450  Biso   1.000  C
  C8       1.0000 0.85850  0.98670  0.96550  Biso   1.000  C
  C9       1.0000 0.03490  0.44310  0.61540  Biso   1.000  C
  C10      1.0000 0.96510  0.55690  0.38460  Biso   1.000  C
  C11      1.0000 0.98730  0.58160  0.65870  Biso   1.000  C
  C12      1.0000 0.01270  0.41840  0.34130  Biso   1.000  C
  C13      1.0000 0.88900  0.21780  0.69300  Biso   1.000  C
  C14      1.0000 0.11100  0.78220  0.30700  Biso   1.000  C
  C15      1.0000 0.79300  0.27460  0.84200  Biso   1.000  C
  C16      1.0000 0.20700  0.72540  0.15800  Biso   1.000  C
  C17      1.0000 0.55000  0.42400  0.47000  Biso   1.000  C
  C18      1.0000 0.45000  0.57600  0.53000  Biso   1.000  C
  C19      1.0000 0.59900  0.50700  0.41800  Biso   1.000  C
  C20      1.0000 0.40100  0.49300  0.58200  Biso   1.000  C
  H1       1.0000 0.30360  0.95110  0.55730  Biso   1.000  H
  H2       1.0000 0.69640  0.04890  0.44270  Biso   1.000  H
  H3       1.0000 0.43710  0.15560  0.37950  Biso   1.000  H
  H4       1.0000 0.56290  0.84440  0.62050  Biso   1.000  H
  H5       1.0000 0.82180  0.09100  0.21120  Biso   1.000  H
  H6       1.0000 0.17820  0.90900  0.78880  Biso   1.000  H
  H7       1.0000 0.75270  0.98580  0.94620  Biso   1.000  H
  H8       1.0000 0.24730  0.01420  0.05380  Biso   1.000  H
  H9       1.0000 0.94890  0.58850  0.29400  Biso   1.000  H
  H10      1.0000 0.05110  0.41150  0.70600  Biso   1.000  H
  H11      1.0000 0.01230  0.36730  0.22560  Biso   1.000  H
  H12      1.0000 0.98770  0.63270  0.77440  Biso   1.000  H
  H13      1.0000 0.81990  0.34420  0.92300  Biso   1.000  H
  H14      1.0000 0.18010  0.65580  0.07700  Biso   1.000  H
  H15      1.0000 0.68060  0.30840  0.81190  Biso   1.000  H
  H16      1.0000 0.31940  0.69160  0.18810  Biso   1.000  H
  H17      1.0000 0.81450  0.20550  0.88580  Biso   1.000  H
  H18      1.0000 0.18550  0.79450  0.11420  Biso   1.000  H
  H19      1.0000 0.70120  0.50370  0.46230  Biso   1.000  H
  H20      1.0000 0.29880  0.49630  0.53770  Biso   1.000  H
  H21      1.0000 0.60160  0.47270  0.29650  Biso   1.000  H
  H22      1.0000 0.39840  0.52730  0.70350  Biso   1.000  H
  H23      1.0000 0.51910  0.59650  0.45390  Biso   1.000  H
  H24      1.0000 0.48090  0.40350  0.54610  Biso   1.000  H
