data_image0
_cell_length_a       15.641
_cell_length_b       16.009
_cell_length_c       12.108
_cell_angle_alpha    90
_cell_angle_beta     90
_cell_angle_gamma    90

_symmetry_space_group_name_H-M    "P 1"
_symmetry_int_tables_number       1

loop_
  _symmetry_equiv_pos_as_xyz
  'x, y, z'

loop_
  _atom_site_label
  _atom_site_occupancy
  _atom_site_fract_x
  _atom_site_fract_y
  _atom_site_fract_z
  _atom_site_thermal_displace_type
  _atom_site_B_iso_or_equiv
  _atom_site_type_symbol
  Cu1      1.0000 0.00000  0.10340  0.75000  Biso   1.000  Cu
  Cu2      1.0000 0.50000  0.39660  0.25000  Biso   1.000  Cu
  Cu3      1.0000 0.00000  0.89660  0.25000  Biso   1.000  Cu
  Cu4      1.0000 0.50000  0.60340  0.75000  Biso   1.000  Cu
  Cu5      1.0000 0.00000  0.52110  0.75000  Biso   1.000  Cu
  Cu6      1.0000 0.50000  0.97890  0.25000  Biso   1.000  Cu
  Cu7      1.0000 0.00000  0.47890  0.25000  Biso   1.000  Cu
  Cu8      1.0000 0.50000  0.02110  0.75000  Biso   1.000  Cu
  Cl1      1.0000 0.33560  0.11820  0.51780  Biso   1.000  Cl
  Cl2      1.0000 0.16440  0.38180  0.01780  Biso   1.000  Cl
  Cl3      1.0000 0.83560  0.38180  0.48220  Biso   1.000  Cl
  Cl4      1.0000 0.66440  0.11820  0.98220  Biso   1.000  Cl
  Cl5      1.0000 0.66440  0.88180  0.48220  Biso   1.000  Cl
  Cl6      1.0000 0.83560  0.61820  0.98220  Biso   1.000  Cl
  Cl7      1.0000 0.16440  0.61820  0.51780  Biso   1.000  Cl
  Cl8      1.0000 0.33560  0.88180  0.01780  Biso   1.000  Cl
  O1       1.0000 0.31600  0.12500  0.63080  Biso   1.000  O
  O2       1.0000 0.18400  0.37500  0.13080  Biso   1.000  O
  O3       1.0000 0.81600  0.37500  0.36920  Biso   1.000  O
  O4       1.0000 0.68400  0.12500  0.86920  Biso   1.000  O
  O5       1.0000 0.68400  0.87500  0.36920  Biso   1.000  O
  O6       1.0000 0.81600  0.62500  0.86920  Biso   1.000  O
  O7       1.0000 0.18400  0.62500  0.63080  Biso   1.000  O
  O8       1.0000 0.31600  0.87500  0.13080  Biso   1.000  O
  O9       1.0000 0.27460  0.06000  0.46920  Biso   1.000  O
  O10      1.0000 0.22540  0.44000  0.96920  Biso   1.000  O
  O11      1.0000 0.77460  0.44000  0.53080  Biso   1.000  O
  O12      1.0000 0.72540  0.06000  0.03080  Biso   1.000  O
  O13      1.0000 0.72540  0.94000  0.53080  Biso   1.000  O
  O14      1.0000 0.77460  0.56000  0.03080  Biso   1.000  O
  O15      1.0000 0.22540  0.56000  0.46920  Biso   1.000  O
  O16      1.0000 0.27460  0.94000  0.96920  Biso   1.000  O
  O17      1.0000 0.41580  0.08300  0.50440  Biso   1.000  O
  O18      1.0000 0.08420  0.41700  0.00440  Biso   1.000  O
  O19      1.0000 0.91580  0.41700  0.49560  Biso   1.000  O
  O20      1.0000 0.58420  0.08300  0.99560  Biso   1.000  O
  O21      1.0000 0.58420  0.91700  0.49560  Biso   1.000  O
  O22      1.0000 0.91580  0.58300  0.99560  Biso   1.000  O
  O23      1.0000 0.08420  0.58300  0.50440  Biso   1.000  O
  O24      1.0000 0.41580  0.91700  0.00440  Biso   1.000  O
  O25      1.0000 0.32500  0.19250  0.46400  Biso   1.000  O
  O26      1.0000 0.17500  0.30750  0.96400  Biso   1.000  O
  O27      1.0000 0.82500  0.30750  0.53600  Biso   1.000  O
  O28      1.0000 0.67500  0.19250  0.03600  Biso   1.000  O
  O29      1.0000 0.67500  0.80750  0.53600  Biso   1.000  O
  O30      1.0000 0.82500  0.69250  0.03600  Biso   1.000  O
  O31      1.0000 0.17500  0.69250  0.46400  Biso   1.000  O
  O32      1.0000 0.32500  0.80750  0.96400  Biso   1.000  O
  N1       1.0000 0.00000  0.23060  0.75000  Biso   1.000  N
  N2       1.0000 0.50000  0.26940  0.25000  Biso   1.000  N
  N3       1.0000 0.00000  0.76940  0.25000  Biso   1.000  N
  N4       1.0000 0.50000  0.73060  0.75000  Biso   1.000  N
  N5       1.0000 0.00000  0.40250  0.75000  Biso   1.000  N
  N6       1.0000 0.50000  0.09750  0.25000  Biso   1.000  N
  N7       1.0000 0.00000  0.59750  0.25000  Biso   1.000  N
  N8       1.0000 0.50000  0.90250  0.75000  Biso   1.000  N
  N9       1.0000 0.99840  0.04100  0.60130  Biso   1.000  N
  N10      1.0000 0.50160  0.45900  0.10130  Biso   1.000  N
  N11      1.0000 0.49840  0.45900  0.39870  Biso   1.000  N
  N12      1.0000 0.00160  0.04100  0.89870  Biso   1.000  N
  N13      1.0000 0.00160  0.95900  0.39870  Biso   1.000  N
  N14      1.0000 0.49840  0.54100  0.89870  Biso   1.000  N
  N15      1.0000 0.50160  0.54100  0.60130  Biso   1.000  N
  N16      1.0000 0.99840  0.95900  0.10130  Biso   1.000  N
  N17      1.0000 0.00000  0.63960  0.75000  Biso   1.000  N
  N18      1.0000 0.50000  0.86040  0.25000  Biso   1.000  N
  N19      1.0000 0.00000  0.36040  0.25000  Biso   1.000  N
  N20      1.0000 0.50000  0.13960  0.75000  Biso   1.000  N
  N21      1.0000 0.00000  0.81030  0.75000  Biso   1.000  N
  N22      1.0000 0.50000  0.68970  0.25000  Biso   1.000  N
  N23      1.0000 0.00000  0.18970  0.25000  Biso   1.000  N
  N24      1.0000 0.50000  0.31030  0.75000  Biso   1.000  N
  C1       1.0000 0.07100  0.27360  0.72250  Biso   1.000  C
  C2       1.0000 0.42900  0.22640  0.22250  Biso   1.000  C
  C3       1.0000 0.57100  0.22640  0.27750  Biso   1.000  C
  C4       1.0000 0.92900  0.27360  0.77750  Biso   1.000  C
  C5       1.0000 0.92900  0.72640  0.27750  Biso   1.000  C
  C6       1.0000 0.57100  0.77360  0.77750  Biso   1.000  C
  C7       1.0000 0.42900  0.77360  0.72250  Biso   1.000  C
  C8       1.0000 0.07100  0.72640  0.22250  Biso   1.000  C
  C9       1.0000 0.07110  0.35960  0.72470  Biso   1.000  C
  C10      1.0000 0.42890  0.14040  0.22470  Biso   1.000  C
  C11      1.0000 0.57110  0.14040  0.27530  Biso   1.000  C
  C12      1.0000 0.92890  0.35960  0.77530  Biso   1.000  C
  C13      1.0000 0.92890  0.64040  0.27530  Biso   1.000  C
  C14      1.0000 0.57110  0.85960  0.77530  Biso   1.000  C
  C15      1.0000 0.42890  0.85960  0.72470  Biso   1.000  C
  C16      1.0000 0.07110  0.64040  0.22470  Biso   1.000  C
  C17      1.0000 0.15050  0.22570  0.69410  Biso   1.000  C
  C18      1.0000 0.34950  0.27430  0.19410  Biso   1.000  C
  C19      1.0000 0.65050  0.27430  0.30590  Biso   1.000  C
  C20      1.0000 0.84950  0.22570  0.80590  Biso   1.000  C
  C21      1.0000 0.84950  0.77430  0.30590  Biso   1.000  C
  C22      1.0000 0.65050  0.72570  0.80590  Biso   1.000  C
  C23      1.0000 0.34950  0.72570  0.69410  Biso   1.000  C
  C24      1.0000 0.15050  0.77430  0.19410  Biso   1.000  C
  C25      1.0000 0.15010  0.40970  0.70100  Biso   1.000  C
  C26      1.0000 0.34990  0.09030  0.20100  Biso   1.000  C
  C27      1.0000 0.65010  0.09030  0.29900  Biso   1.000  C
  C28      1.0000 0.84990  0.40970  0.79900  Biso   1.000  C
  C29      1.0000 0.84990  0.59030  0.29900  Biso   1.000  C
  C30      1.0000 0.65010  0.90970  0.79900  Biso   1.000  C
  C31      1.0000 0.34990  0.90970  0.70100  Biso   1.000  C
  C32      1.0000 0.15010  0.59030  0.20100  Biso   1.000  C
  C33      1.0000 0.93490  0.05210  0.52730  Biso   1.000  C
  C34      1.0000 0.56510  0.44790  0.02730  Biso   1.000  C
  C35      1.0000 0.43490  0.44790  0.47270  Biso   1.000  C
  C36      1.0000 0.06510  0.05210  0.97270  Biso   1.000  C
  C37      1.0000 0.06510  0.94790  0.47270  Biso   1.000  C
  C38      1.0000 0.43490  0.55210  0.97270  Biso   1.000  C
  C39      1.0000 0.56510  0.55210  0.52730  Biso   1.000  C
  C40      1.0000 0.93490  0.94790  0.02730  Biso   1.000  C
  C41      1.0000 0.06310  0.98980  0.57580  Biso   1.000  C
  C42      1.0000 0.43690  0.51020  0.07580  Biso   1.000  C
  C43      1.0000 0.56310  0.51020  0.42420  Biso   1.000  C
  C44      1.0000 0.93690  0.98980  0.92420  Biso   1.000  C
  C45      1.0000 0.93690  0.01020  0.42420  Biso   1.000  C
  C46      1.0000 0.56310  0.48980  0.92420  Biso   1.000  C
  C47      1.0000 0.43690  0.48980  0.57580  Biso   1.000  C
  C48      1.0000 0.06310  0.01020  0.07580  Biso   1.000  C
  C49      1.0000 0.86280  0.10840  0.55600  Biso   1.000  C
  C50      1.0000 0.63720  0.39160  0.05600  Biso   1.000  C
  C51      1.0000 0.36280  0.39160  0.44400  Biso   1.000  C
  C52      1.0000 0.13720  0.10840  0.94400  Biso   1.000  C
  C53      1.0000 0.13720  0.89160  0.44400  Biso   1.000  C
  C54      1.0000 0.36280  0.60840  0.94400  Biso   1.000  C
  C55      1.0000 0.63720  0.60840  0.55600  Biso   1.000  C
  C56      1.0000 0.86280  0.89160  0.05600  Biso   1.000  C
  C57      1.0000 0.13270  0.97680  0.65860  Biso   1.000  C
  C58      1.0000 0.36730  0.52320  0.15860  Biso   1.000  C
  C59      1.0000 0.63270  0.52320  0.34140  Biso   1.000  C
  C60      1.0000 0.86730  0.97680  0.84140  Biso   1.000  C
  C61      1.0000 0.86730  0.02320  0.34140  Biso   1.000  C
  C62      1.0000 0.63270  0.47680  0.84140  Biso   1.000  C
  C63      1.0000 0.36730  0.47680  0.65860  Biso   1.000  C
  C64      1.0000 0.13270  0.02320  0.15860  Biso   1.000  C
  C65      1.0000 0.05060  0.68190  0.81960  Biso   1.000  C
  C66      1.0000 0.44940  0.81810  0.31960  Biso   1.000  C
  C67      1.0000 0.55060  0.81810  0.18040  Biso   1.000  C
  C68      1.0000 0.94940  0.68190  0.68040  Biso   1.000  C
  C69      1.0000 0.94940  0.31810  0.18040  Biso   1.000  C
  C70      1.0000 0.55060  0.18190  0.68040  Biso   1.000  C
  C71      1.0000 0.44940  0.18190  0.81960  Biso   1.000  C
  C72      1.0000 0.05060  0.31810  0.31960  Biso   1.000  C
  C73      1.0000 0.04900  0.76770  0.82060  Biso   1.000  C
  C74      1.0000 0.45100  0.73230  0.32060  Biso   1.000  C
  C75      1.0000 0.54900  0.73230  0.17940  Biso   1.000  C
  C76      1.0000 0.95100  0.76770  0.67940  Biso   1.000  C
  C77      1.0000 0.95100  0.23230  0.17940  Biso   1.000  C
  C78      1.0000 0.54900  0.26770  0.67940  Biso   1.000  C
  C79      1.0000 0.45100  0.26770  0.82060  Biso   1.000  C
  C80      1.0000 0.04900  0.23230  0.32060  Biso   1.000  C
  C81      1.0000 0.10650  0.63220  0.89400  Biso   1.000  C
  C82      1.0000 0.39350  0.86780  0.39400  Biso   1.000  C
  C83      1.0000 0.60650  0.86780  0.10600  Biso   1.000  C
  C84      1.0000 0.89350  0.63220  0.60600  Biso   1.000  C
  C85      1.0000 0.89350  0.36780  0.10600  Biso   1.000  C
  C86      1.0000 0.60650  0.13220  0.60600  Biso   1.000  C
  C87      1.0000 0.39350  0.13220  0.89400  Biso   1.000  C
  C88      1.0000 0.10650  0.36780  0.39400  Biso   1.000  C
  C89      1.0000 0.10120  0.81830  0.90200  Biso   1.000  C
  C90      1.0000 0.39880  0.68170  0.40200  Biso   1.000  C
  C91      1.0000 0.60120  0.68170  0.09800  Biso   1.000  C
  C92      1.0000 0.89880  0.81830  0.59800  Biso   1.000  C
  C93      1.0000 0.89880  0.18170  0.09800  Biso   1.000  C
  C94      1.0000 0.60120  0.31830  0.59800  Biso   1.000  C
  C95      1.0000 0.39880  0.31830  0.90200  Biso   1.000  C
  C96      1.0000 0.10120  0.18170  0.40200  Biso   1.000  C
  H1       1.0000 0.16840  0.19130  0.75470  Biso   1.000  H
  H2       1.0000 0.33160  0.30870  0.25470  Biso   1.000  H
  H3       1.0000 0.66840  0.30870  0.24530  Biso   1.000  H
  H4       1.0000 0.83160  0.19130  0.74530  Biso   1.000  H
  H5       1.0000 0.83160  0.80870  0.24530  Biso   1.000  H
  H6       1.0000 0.66840  0.69130  0.74530  Biso   1.000  H
  H7       1.0000 0.33160  0.69130  0.75470  Biso   1.000  H
  H8       1.0000 0.16840  0.80870  0.25470  Biso   1.000  H
  H9       1.0000 0.14080  0.19010  0.63160  Biso   1.000  H
  H10      1.0000 0.35920  0.30990  0.13160  Biso   1.000  H
  H11      1.0000 0.64080  0.30990  0.36840  Biso   1.000  H
  H12      1.0000 0.85920  0.19010  0.86840  Biso   1.000  H
  H13      1.0000 0.85920  0.80990  0.36840  Biso   1.000  H
  H14      1.0000 0.64080  0.69010  0.86840  Biso   1.000  H
  H15      1.0000 0.35920  0.69010  0.63160  Biso   1.000  H
  H16      1.0000 0.14080  0.80990  0.13160  Biso   1.000  H
  H17      1.0000 0.19630  0.26290  0.67630  Biso   1.000  H
  H18      1.0000 0.30370  0.23710  0.17630  Biso   1.000  H
  H19      1.0000 0.69630  0.23710  0.32370  Biso   1.000  H
  H20      1.0000 0.80370  0.26290  0.82370  Biso   1.000  H
  H21      1.0000 0.80370  0.73710  0.32370  Biso   1.000  H
  H22      1.0000 0.69630  0.76290  0.82370  Biso   1.000  H
  H23      1.0000 0.30370  0.76290  0.67630  Biso   1.000  H
  H24      1.0000 0.19630  0.73710  0.17630  Biso   1.000  H
  H25      1.0000 0.19730  0.37510  0.68510  Biso   1.000  H
  H26      1.0000 0.30270  0.12490  0.18510  Biso   1.000  H
  H27      1.0000 0.69730  0.12490  0.31490  Biso   1.000  H
  H28      1.0000 0.80270  0.37510  0.81490  Biso   1.000  H
  H29      1.0000 0.80270  0.62490  0.31490  Biso   1.000  H
  H30      1.0000 0.69730  0.87510  0.81490  Biso   1.000  H
  H31      1.0000 0.30270  0.87510  0.68510  Biso   1.000  H
  H32      1.0000 0.19730  0.62490  0.18510  Biso   1.000  H
  H33      1.0000 0.14060  0.44700  0.64000  Biso   1.000  H
  H34      1.0000 0.35940  0.05300  0.14000  Biso   1.000  H
  H35      1.0000 0.64060  0.05300  0.36000  Biso   1.000  H
  H36      1.0000 0.85940  0.44700  0.86000  Biso   1.000  H
  H37      1.0000 0.85940  0.55300  0.36000  Biso   1.000  H
  H38      1.0000 0.64060  0.94700  0.86000  Biso   1.000  H
  H39      1.0000 0.35940  0.94700  0.64000  Biso   1.000  H
  H40      1.0000 0.14060  0.55300  0.14000  Biso   1.000  H
  H41      1.0000 0.16460  0.44430  0.76430  Biso   1.000  H
  H42      1.0000 0.33540  0.05570  0.26430  Biso   1.000  H
  H43      1.0000 0.66460  0.05570  0.23570  Biso   1.000  H
  H44      1.0000 0.83540  0.44430  0.73570  Biso   1.000  H
  H45      1.0000 0.83540  0.55570  0.23570  Biso   1.000  H
  H46      1.0000 0.66460  0.94430  0.73570  Biso   1.000  H
  H47      1.0000 0.33540  0.94430  0.76430  Biso   1.000  H
  H48      1.0000 0.16460  0.55570  0.26430  Biso   1.000  H
  H49      1.0000 0.83490  0.09060  0.62150  Biso   1.000  H
  H50      1.0000 0.66510  0.40940  0.12150  Biso   1.000  H
  H51      1.0000 0.33490  0.40940  0.37850  Biso   1.000  H
  H52      1.0000 0.16510  0.09060  0.87850  Biso   1.000  H
  H53      1.0000 0.16510  0.90940  0.37850  Biso   1.000  H
  H54      1.0000 0.33490  0.59060  0.87850  Biso   1.000  H
  H55      1.0000 0.66510  0.59060  0.62150  Biso   1.000  H
  H56      1.0000 0.83490  0.90940  0.12150  Biso   1.000  H
  H57      1.0000 0.82200  0.10960  0.49700  Biso   1.000  H
  H58      1.0000 0.67800  0.39040  0.99700  Biso   1.000  H
  H59      1.0000 0.32200  0.39040  0.50300  Biso   1.000  H
  H60      1.0000 0.17800  0.10960  0.00300  Biso   1.000  H
  H61      1.0000 0.17800  0.89040  0.50300  Biso   1.000  H
  H62      1.0000 0.32200  0.60960  0.00300  Biso   1.000  H
  H63      1.0000 0.67800  0.60960  0.49700  Biso   1.000  H
  H64      1.0000 0.82200  0.89040  0.99700  Biso   1.000  H
  H65      1.0000 0.88380  0.16400  0.56680  Biso   1.000  H
  H66      1.0000 0.61620  0.33600  0.06680  Biso   1.000  H
  H67      1.0000 0.38380  0.33600  0.43320  Biso   1.000  H
  H68      1.0000 0.11620  0.16400  0.93320  Biso   1.000  H
  H69      1.0000 0.11620  0.83600  0.43320  Biso   1.000  H
  H70      1.0000 0.38380  0.66400  0.93320  Biso   1.000  H
  H71      1.0000 0.61620  0.66400  0.56680  Biso   1.000  H
  H72      1.0000 0.88380  0.83600  0.06680  Biso   1.000  H
  H73      1.0000 0.16020  0.02820  0.67690  Biso   1.000  H
  H74      1.0000 0.33980  0.47180  0.17690  Biso   1.000  H
  H75      1.0000 0.66020  0.47180  0.32310  Biso   1.000  H
  H76      1.0000 0.83980  0.02820  0.82310  Biso   1.000  H
  H77      1.0000 0.83980  0.97180  0.32310  Biso   1.000  H
  H78      1.0000 0.66020  0.52820  0.82310  Biso   1.000  H
  H79      1.0000 0.33980  0.52820  0.67690  Biso   1.000  H
  H80      1.0000 0.16020  0.97180  0.17690  Biso   1.000  H
  H81      1.0000 0.17530  0.93890  0.63110  Biso   1.000  H
  H82      1.0000 0.32470  0.56110  0.13110  Biso   1.000  H
  H83      1.0000 0.67530  0.56110  0.36890  Biso   1.000  H
  H84      1.0000 0.82470  0.93890  0.86890  Biso   1.000  H
  H85      1.0000 0.82470  0.06110  0.36890  Biso   1.000  H
  H86      1.0000 0.67530  0.43890  0.86890  Biso   1.000  H
  H87      1.0000 0.32470  0.43890  0.63110  Biso   1.000  H
  H88      1.0000 0.17530  0.06110  0.13110  Biso   1.000  H
  H89      1.0000 0.11000  0.95320  0.72560  Biso   1.000  H
  H90      1.0000 0.39000  0.54680  0.22560  Biso   1.000  H
  H91      1.0000 0.61000  0.54680  0.27440  Biso   1.000  H
  H92      1.0000 0.89000  0.95320  0.77440  Biso   1.000  H
  H93      1.0000 0.89000  0.04680  0.27440  Biso   1.000  H
  H94      1.0000 0.61000  0.45320  0.77440  Biso   1.000  H
  H95      1.0000 0.39000  0.45320  0.72560  Biso   1.000  H
  H96      1.0000 0.11000  0.04680  0.22560  Biso   1.000  H
  H97      1.0000 0.14170  0.66670  0.94010  Biso   1.000  H
  H98      1.0000 0.35830  0.83330  0.44010  Biso   1.000  H
  H99      1.0000 0.64170  0.83330  0.05990  Biso   1.000  H
  H100     1.0000 0.85830  0.66670  0.55990  Biso   1.000  H
  H101     1.0000 0.85830  0.33330  0.05990  Biso   1.000  H
  H102     1.0000 0.64170  0.16670  0.55990  Biso   1.000  H
  H103     1.0000 0.35830  0.16670  0.94010  Biso   1.000  H
  H104     1.0000 0.14170  0.33330  0.44010  Biso   1.000  H
  H105     1.0000 0.14450  0.59580  0.85280  Biso   1.000  H
  H106     1.0000 0.35550  0.90420  0.35280  Biso   1.000  H
  H107     1.0000 0.64450  0.90420  0.14720  Biso   1.000  H
  H108     1.0000 0.85550  0.59580  0.64720  Biso   1.000  H
  H109     1.0000 0.85550  0.40420  0.14720  Biso   1.000  H
  H110     1.0000 0.64450  0.09580  0.64720  Biso   1.000  H
  H111     1.0000 0.35550  0.09580  0.85280  Biso   1.000  H
  H112     1.0000 0.14450  0.40420  0.35280  Biso   1.000  H
  H113     1.0000 0.07320  0.59670  0.94190  Biso   1.000  H
  H114     1.0000 0.42680  0.90330  0.44190  Biso   1.000  H
  H115     1.0000 0.57320  0.90330  0.05810  Biso   1.000  H
  H116     1.0000 0.92680  0.59670  0.55810  Biso   1.000  H
  H117     1.0000 0.92680  0.40330  0.05810  Biso   1.000  H
  H118     1.0000 0.57320  0.09670  0.55810  Biso   1.000  H
  H119     1.0000 0.42680  0.09670  0.94190  Biso   1.000  H
  H120     1.0000 0.07320  0.40330  0.44190  Biso   1.000  H
  H121     1.0000 0.06620  0.85220  0.94740  Biso   1.000  H
  H122     1.0000 0.43380  0.64780  0.44740  Biso   1.000  H
  H123     1.0000 0.56620  0.64780  0.05260  Biso   1.000  H
  H124     1.0000 0.93380  0.85220  0.55260  Biso   1.000  H
  H125     1.0000 0.93380  0.14780  0.05260  Biso   1.000  H
  H126     1.0000 0.56620  0.35220  0.55260  Biso   1.000  H
  H127     1.0000 0.43380  0.35220  0.94740  Biso   1.000  H
  H128     1.0000 0.06620  0.14780  0.44740  Biso   1.000  H
  H129     1.0000 0.14050  0.85590  0.86270  Biso   1.000  H
  H130     1.0000 0.35950  0.64410  0.36270  Biso   1.000  H
  H131     1.0000 0.64050  0.64410  0.13730  Biso   1.000  H
  H132     1.0000 0.85950  0.85590  0.63730  Biso   1.000  H
  H133     1.0000 0.85950  0.14410  0.13730  Biso   1.000  H
  H134     1.0000 0.64050  0.35590  0.63730  Biso   1.000  H
  H135     1.0000 0.35950  0.35590  0.86270  Biso   1.000  H
  H136     1.0000 0.14050  0.14410  0.36270  Biso   1.000  H
  H137     1.0000 0.13610  0.78340  0.94740  Biso   1.000  H
  H138     1.0000 0.36390  0.71660  0.44740  Biso   1.000  H
  H139     1.0000 0.63610  0.71660  0.05260  Biso   1.000  H
  H140     1.0000 0.86390  0.78340  0.55260  Biso   1.000  H
  H141     1.0000 0.86390  0.21660  0.05260  Biso   1.000  H
  H142     1.0000 0.63610  0.28340  0.55260  Biso   1.000  H
  H143     1.0000 0.36390  0.28340  0.94740  Biso   1.000  H
  H144     1.0000 0.13610  0.21660  0.44740  Biso   1.000  H
