data_image0
_cell_length_a       26.639
_cell_length_b       14.917
_cell_length_c       22.891
_cell_angle_alpha    90
_cell_angle_beta     113.67
_cell_angle_gamma    90

_symmetry_space_group_name_H-M    "P 1"
_symmetry_int_tables_number       1

loop_
  _symmetry_equiv_pos_as_xyz
  'x, y, z'

loop_
  _atom_site_label
  _atom_site_occupancy
  _atom_site_fract_x
  _atom_site_fract_y
  _atom_site_fract_z
  _atom_site_thermal_displace_type
  _atom_site_B_iso_or_equiv
  _atom_site_type_symbol
  Cu1      1.0000 0.75629  0.27623  0.21899  Biso   1.000  Cu
  Cu2      1.0000 0.25629  0.77623  0.21899  Biso   1.000  Cu
  Cu3      1.0000 0.24371  0.27623  0.28101  Biso   1.000  Cu
  Cu4      1.0000 0.74371  0.77623  0.28101  Biso   1.000  Cu
  Cu5      1.0000 0.24371  0.72377  0.78101  Biso   1.000  Cu
  Cu6      1.0000 0.74371  0.22377  0.78101  Biso   1.000  Cu
  Cu7      1.0000 0.75629  0.72377  0.71899  Biso   1.000  Cu
  Cu8      1.0000 0.25629  0.22377  0.71899  Biso   1.000  Cu
  P1       1.0000 0.81276  0.38997  0.22157  Biso   1.000  P
  P2       1.0000 0.31276  0.88997  0.22157  Biso   1.000  P
  P3       1.0000 0.18724  0.38997  0.27843  Biso   1.000  P
  P4       1.0000 0.68724  0.88997  0.27843  Biso   1.000  P
  P5       1.0000 0.18724  0.61003  0.77843  Biso   1.000  P
  P6       1.0000 0.68724  0.11003  0.77843  Biso   1.000  P
  P7       1.0000 0.81276  0.61003  0.72157  Biso   1.000  P
  P8       1.0000 0.31276  0.11003  0.72157  Biso   1.000  P
  P9       1.0000 0.73946  0.30039  0.30621  Biso   1.000  P
  P10      1.0000 0.23946  0.80039  0.30621  Biso   1.000  P
  P11      1.0000 0.26054  0.30039  0.19379  Biso   1.000  P
  P12      1.0000 0.76054  0.80039  0.19379  Biso   1.000  P
  P13      1.0000 0.26054  0.69961  0.69379  Biso   1.000  P
  P14      1.0000 0.76054  0.19961  0.69379  Biso   1.000  P
  P15      1.0000 0.73946  0.69961  0.80621  Biso   1.000  P
  P16      1.0000 0.23946  0.19961  0.80621  Biso   1.000  P
  S1       1.0000 0.72283  0.63110  0.30116  Biso   1.000  S
  S2       1.0000 0.22283  0.13110  0.30116  Biso   1.000  S
  S3       1.0000 0.27717  0.63110  0.19884  Biso   1.000  S
  S4       1.0000 0.77717  0.13110  0.19884  Biso   1.000  S
  S5       1.0000 0.27717  0.36890  0.69884  Biso   1.000  S
  S6       1.0000 0.77717  0.86890  0.69884  Biso   1.000  S
  S7       1.0000 0.72283  0.36890  0.80116  Biso   1.000  S
  S8       1.0000 0.22283  0.86890  0.80116  Biso   1.000  S
  O1       1.0000 0.68430  0.28590  0.13380  Biso   1.000  O
  O2       1.0000 0.18430  0.78590  0.13380  Biso   1.000  O
  O3       1.0000 0.31570  0.28590  0.36620  Biso   1.000  O
  O4       1.0000 0.81570  0.78590  0.36620  Biso   1.000  O
  O5       1.0000 0.31570  0.71410  0.86620  Biso   1.000  O
  O6       1.0000 0.81570  0.21410  0.86620  Biso   1.000  O
  O7       1.0000 0.68430  0.71410  0.63380  Biso   1.000  O
  O8       1.0000 0.18430  0.21410  0.63380  Biso   1.000  O
  N1       1.0000 0.65310  0.35360  0.12600  Biso   1.000  N
  N2       1.0000 0.15310  0.85360  0.12600  Biso   1.000  N
  N3       1.0000 0.34690  0.35360  0.37400  Biso   1.000  N
  N4       1.0000 0.84690  0.85360  0.37400  Biso   1.000  N
  N5       1.0000 0.34690  0.64640  0.87400  Biso   1.000  N
  N6       1.0000 0.84690  0.14640  0.87400  Biso   1.000  N
  N7       1.0000 0.65310  0.64640  0.62600  Biso   1.000  N
  N8       1.0000 0.15310  0.14640  0.62600  Biso   1.000  N
  O9       1.0000 0.61150  0.36130  0.07660  Biso   1.000  O
  O10      1.0000 0.11150  0.86130  0.07660  Biso   1.000  O
  O11      1.0000 0.38850  0.36130  0.42340  Biso   1.000  O
  O12      1.0000 0.88850  0.86130  0.42340  Biso   1.000  O
  O13      1.0000 0.38850  0.63870  0.92340  Biso   1.000  O
  O14      1.0000 0.88850  0.13870  0.92340  Biso   1.000  O
  O15      1.0000 0.61150  0.63870  0.57660  Biso   1.000  O
  O16      1.0000 0.11150  0.13870  0.57660  Biso   1.000  O
  O17      1.0000 0.66520  0.41250  0.16720  Biso   1.000  O
  O18      1.0000 0.16520  0.91250  0.16720  Biso   1.000  O
  O19      1.0000 0.33480  0.41250  0.33280  Biso   1.000  O
  O20      1.0000 0.83480  0.91250  0.33280  Biso   1.000  O
  O21      1.0000 0.33480  0.58750  0.83280  Biso   1.000  O
  O22      1.0000 0.83480  0.08750  0.83280  Biso   1.000  O
  O23      1.0000 0.66520  0.58750  0.66720  Biso   1.000  O
  O24      1.0000 0.16520  0.08750  0.66720  Biso   1.000  O
  C1       1.0000 0.79610  0.48830  0.25950  Biso   1.000  C
  C2       1.0000 0.29610  0.98830  0.25950  Biso   1.000  C
  C3       1.0000 0.20390  0.48830  0.24050  Biso   1.000  C
  C4       1.0000 0.70390  0.98830  0.24050  Biso   1.000  C
  C5       1.0000 0.20390  0.51170  0.74050  Biso   1.000  C
  C6       1.0000 0.70390  0.01170  0.74050  Biso   1.000  C
  C7       1.0000 0.79610  0.51170  0.75950  Biso   1.000  C
  C8       1.0000 0.29610  0.01170  0.75950  Biso   1.000  C
  C9       1.0000 0.79340  0.47730  0.32480  Biso   1.000  C
  C10      1.0000 0.29340  0.97730  0.32480  Biso   1.000  C
  C11      1.0000 0.20660  0.47730  0.17520  Biso   1.000  C
  C12      1.0000 0.70660  0.97730  0.17520  Biso   1.000  C
  C13      1.0000 0.20660  0.52270  0.67520  Biso   1.000  C
  C14      1.0000 0.70660  0.02270  0.67520  Biso   1.000  C
  C15      1.0000 0.79340  0.52270  0.82480  Biso   1.000  C
  C16      1.0000 0.29340  0.02270  0.82480  Biso   1.000  C
  C17      1.0000 0.74380  0.42160  0.32320  Biso   1.000  C
  C18      1.0000 0.24380  0.92160  0.32320  Biso   1.000  C
  C19      1.0000 0.25620  0.42160  0.17680  Biso   1.000  C
  C20      1.0000 0.75620  0.92160  0.17680  Biso   1.000  C
  C21      1.0000 0.25620  0.57840  0.67680  Biso   1.000  C
  C22      1.0000 0.75620  0.07840  0.67680  Biso   1.000  C
  C23      1.0000 0.74380  0.57840  0.82320  Biso   1.000  C
  C24      1.0000 0.24380  0.07840  0.82320  Biso   1.000  C
  C25      1.0000 0.84680  0.44060  0.37500  Biso   1.000  C
  C26      1.0000 0.34680  0.94060  0.37500  Biso   1.000  C
  C27      1.0000 0.15320  0.44060  0.12500  Biso   1.000  C
  C28      1.0000 0.65320  0.94060  0.12500  Biso   1.000  C
  C29      1.0000 0.15320  0.55940  0.62500  Biso   1.000  C
  C30      1.0000 0.65320  0.05940  0.62500  Biso   1.000  C
  C31      1.0000 0.84680  0.55940  0.87500  Biso   1.000  C
  C32      1.0000 0.34680  0.05940  0.87500  Biso   1.000  C
  C33      1.0000 0.78740  0.57320  0.34780  Biso   1.000  C
  C34      1.0000 0.28740  0.07320  0.34780  Biso   1.000  C
  C35      1.0000 0.21260  0.57320  0.15220  Biso   1.000  C
  C36      1.0000 0.71260  0.07320  0.15220  Biso   1.000  C
  C37      1.0000 0.21260  0.42680  0.65220  Biso   1.000  C
  C38      1.0000 0.71260  0.92680  0.65220  Biso   1.000  C
  C39      1.0000 0.78740  0.42680  0.84780  Biso   1.000  C
  C40      1.0000 0.28740  0.92680  0.84780  Biso   1.000  C
  C41      1.0000 0.88610  0.37670  0.26480  Biso   1.000  C
  C42      1.0000 0.38610  0.87670  0.26480  Biso   1.000  C
  C43      1.0000 0.11390  0.37670  0.23520  Biso   1.000  C
  C44      1.0000 0.61390  0.87670  0.23520  Biso   1.000  C
  C45      1.0000 0.11390  0.62330  0.73520  Biso   1.000  C
  C46      1.0000 0.61390  0.12330  0.73520  Biso   1.000  C
  C47      1.0000 0.88610  0.62330  0.76480  Biso   1.000  C
  C48      1.0000 0.38610  0.12330  0.76480  Biso   1.000  C
  C49      1.0000 0.92220  0.44840  0.27950  Biso   1.000  C
  C50      1.0000 0.42220  0.94840  0.27950  Biso   1.000  C
  C51      1.0000 0.07780  0.44840  0.22050  Biso   1.000  C
  C52      1.0000 0.57780  0.94840  0.22050  Biso   1.000  C
  C53      1.0000 0.07780  0.55160  0.72050  Biso   1.000  C
  C54      1.0000 0.57780  0.05160  0.72050  Biso   1.000  C
  C55      1.0000 0.92220  0.55160  0.77950  Biso   1.000  C
  C56      1.0000 0.42220  0.05160  0.77950  Biso   1.000  C
  C57      1.0000 0.97840  0.43610  0.31220  Biso   1.000  C
  C58      1.0000 0.47840  0.93610  0.31220  Biso   1.000  C
  C59      1.0000 0.02160  0.43610  0.18780  Biso   1.000  C
  C60      1.0000 0.52160  0.93610  0.18780  Biso   1.000  C
  C61      1.0000 0.02160  0.56390  0.68780  Biso   1.000  C
  C62      1.0000 0.52160  0.06390  0.68780  Biso   1.000  C
  C63      1.0000 0.97840  0.56390  0.81220  Biso   1.000  C
  C64      1.0000 0.47840  0.06390  0.81220  Biso   1.000  C
  C65      1.0000 0.99840  0.35290  0.33220  Biso   1.000  C
  C66      1.0000 0.49840  0.85290  0.33220  Biso   1.000  C
  C67      1.0000 0.00160  0.35290  0.16780  Biso   1.000  C
  C68      1.0000 0.50160  0.85290  0.16780  Biso   1.000  C
  C69      1.0000 0.00160  0.64710  0.66780  Biso   1.000  C
  C70      1.0000 0.50160  0.14710  0.66780  Biso   1.000  C
  C71      1.0000 0.99840  0.64710  0.83220  Biso   1.000  C
  C72      1.0000 0.49840  0.14710  0.83220  Biso   1.000  C
  C73      1.0000 0.96380  0.28040  0.31410  Biso   1.000  C
  C74      1.0000 0.46380  0.78040  0.31410  Biso   1.000  C
  C75      1.0000 0.03620  0.28040  0.18590  Biso   1.000  C
  C76      1.0000 0.53620  0.78040  0.18590  Biso   1.000  C
  C77      1.0000 0.03620  0.71960  0.68590  Biso   1.000  C
  C78      1.0000 0.53620  0.21960  0.68590  Biso   1.000  C
  C79      1.0000 0.96380  0.71960  0.81410  Biso   1.000  C
  C80      1.0000 0.46380  0.21960  0.81410  Biso   1.000  C
  C81      1.0000 0.90710  0.29340  0.28320  Biso   1.000  C
  C82      1.0000 0.40710  0.79340  0.28320  Biso   1.000  C
  C83      1.0000 0.09290  0.29340  0.21680  Biso   1.000  C
  C84      1.0000 0.59290  0.79340  0.21680  Biso   1.000  C
  C85      1.0000 0.09290  0.70660  0.71680  Biso   1.000  C
  C86      1.0000 0.59290  0.20660  0.71680  Biso   1.000  C
  C87      1.0000 0.90710  0.70660  0.78320  Biso   1.000  C
  C88      1.0000 0.40710  0.20660  0.78320  Biso   1.000  C
  C89      1.0000 0.80710  0.43430  0.14520  Biso   1.000  C
  C90      1.0000 0.30710  0.93430  0.14520  Biso   1.000  C
  C91      1.0000 0.19290  0.43430  0.35480  Biso   1.000  C
  C92      1.0000 0.69290  0.93430  0.35480  Biso   1.000  C
  C93      1.0000 0.19290  0.56570  0.85480  Biso   1.000  C
  C94      1.0000 0.69290  0.06570  0.85480  Biso   1.000  C
  C95      1.0000 0.80710  0.56570  0.64520  Biso   1.000  C
  C96      1.0000 0.30710  0.06570  0.64520  Biso   1.000  C
  C97      1.0000 0.84890  0.42490  0.12470  Biso   1.000  C
  C98      1.0000 0.34890  0.92490  0.12470  Biso   1.000  C
  C99      1.0000 0.15110  0.42490  0.37530  Biso   1.000  C
  C100     1.0000 0.65110  0.92490  0.37530  Biso   1.000  C
  C101     1.0000 0.15110  0.57510  0.87530  Biso   1.000  C
  C102     1.0000 0.65110  0.07510  0.87530  Biso   1.000  C
  C103     1.0000 0.84890  0.57510  0.62470  Biso   1.000  C
  C104     1.0000 0.34890  0.07510  0.62470  Biso   1.000  C
  C105     1.0000 0.84210  0.45290  0.06340  Biso   1.000  C
  C106     1.0000 0.34210  0.95290  0.06340  Biso   1.000  C
  C107     1.0000 0.15790  0.45290  0.43660  Biso   1.000  C
  C108     1.0000 0.65790  0.95290  0.43660  Biso   1.000  C
  C109     1.0000 0.15790  0.54710  0.93660  Biso   1.000  C
  C110     1.0000 0.65790  0.04710  0.93660  Biso   1.000  C
  C111     1.0000 0.84210  0.54710  0.56340  Biso   1.000  C
  C112     1.0000 0.34210  0.04710  0.56340  Biso   1.000  C
  C113     1.0000 0.79510  0.49400  0.02610  Biso   1.000  C
  C114     1.0000 0.29510  0.99400  0.02610  Biso   1.000  C
  C115     1.0000 0.20490  0.49400  0.47390  Biso   1.000  C
  C116     1.0000 0.70490  0.99400  0.47390  Biso   1.000  C
  C117     1.0000 0.20490  0.50600  0.97390  Biso   1.000  C
  C118     1.0000 0.70490  0.00600  0.97390  Biso   1.000  C
  C119     1.0000 0.79510  0.50600  0.52610  Biso   1.000  C
  C120     1.0000 0.29510  0.00600  0.52610  Biso   1.000  C
  C121     1.0000 0.75230  0.50230  0.04270  Biso   1.000  C
  C122     1.0000 0.25230  0.00230  0.04270  Biso   1.000  C
  C123     1.0000 0.24770  0.50230  0.45730  Biso   1.000  C
  C124     1.0000 0.74770  0.00230  0.45730  Biso   1.000  C
  C125     1.0000 0.24770  0.49770  0.95730  Biso   1.000  C
  C126     1.0000 0.74770  0.99770  0.95730  Biso   1.000  C
  C127     1.0000 0.75230  0.49770  0.54270  Biso   1.000  C
  C128     1.0000 0.25230  0.99770  0.54270  Biso   1.000  C
  C129     1.0000 0.75780  0.47350  0.10340  Biso   1.000  C
  C130     1.0000 0.25780  0.97350  0.10340  Biso   1.000  C
  C131     1.0000 0.24220  0.47350  0.39660  Biso   1.000  C
  C132     1.0000 0.74220  0.97350  0.39660  Biso   1.000  C
  C133     1.0000 0.24220  0.52650  0.89660  Biso   1.000  C
  C134     1.0000 0.74220  0.02650  0.89660  Biso   1.000  C
  C135     1.0000 0.75780  0.52650  0.60340  Biso   1.000  C
  C136     1.0000 0.25780  0.02650  0.60340  Biso   1.000  C
  C137     1.0000 0.78600  0.24970  0.38150  Biso   1.000  C
  C138     1.0000 0.28600  0.74970  0.38150  Biso   1.000  C
  C139     1.0000 0.21400  0.24970  0.11850  Biso   1.000  C
  C140     1.0000 0.71400  0.74970  0.11850  Biso   1.000  C
  C141     1.0000 0.21400  0.75030  0.61850  Biso   1.000  C
  C142     1.0000 0.71400  0.25030  0.61850  Biso   1.000  C
  C143     1.0000 0.78600  0.75030  0.88150  Biso   1.000  C
  C144     1.0000 0.28600  0.25030  0.88150  Biso   1.000  C
  C145     1.0000 0.78520  0.27630  0.43960  Biso   1.000  C
  C146     1.0000 0.28520  0.77630  0.43960  Biso   1.000  C
  C147     1.0000 0.21480  0.27630  0.06040  Biso   1.000  C
  C148     1.0000 0.71480  0.77630  0.06040  Biso   1.000  C
  C149     1.0000 0.21480  0.72370  0.56040  Biso   1.000  C
  C150     1.0000 0.71480  0.22370  0.56040  Biso   1.000  C
  C151     1.0000 0.78520  0.72370  0.93960  Biso   1.000  C
  C152     1.0000 0.28520  0.22370  0.93960  Biso   1.000  C
  C153     1.0000 0.82120  0.23830  0.49420  Biso   1.000  C
  C154     1.0000 0.32120  0.73830  0.49420  Biso   1.000  C
  C155     1.0000 0.17880  0.23830  0.00580  Biso   1.000  C
  C156     1.0000 0.67880  0.73830  0.00580  Biso   1.000  C
  C157     1.0000 0.17880  0.76170  0.50580  Biso   1.000  C
  C158     1.0000 0.67880  0.26170  0.50580  Biso   1.000  C
  C159     1.0000 0.82120  0.76170  0.99420  Biso   1.000  C
  C160     1.0000 0.32120  0.26170  0.99420  Biso   1.000  C
  C161     1.0000 0.85730  0.17060  0.49260  Biso   1.000  C
  C162     1.0000 0.35730  0.67060  0.49260  Biso   1.000  C
  C163     1.0000 0.14270  0.17060  0.00740  Biso   1.000  C
  C164     1.0000 0.64270  0.67060  0.00740  Biso   1.000  C
  C165     1.0000 0.14270  0.82940  0.50740  Biso   1.000  C
  C166     1.0000 0.64270  0.32940  0.50740  Biso   1.000  C
  C167     1.0000 0.85730  0.82940  0.99260  Biso   1.000  C
  C168     1.0000 0.35730  0.32940  0.99260  Biso   1.000  C
  C169     1.0000 0.85560  0.14220  0.43680  Biso   1.000  C
  C170     1.0000 0.35560  0.64220  0.43680  Biso   1.000  C
  C171     1.0000 0.14440  0.14220  0.06320  Biso   1.000  C
  C172     1.0000 0.64440  0.64220  0.06320  Biso   1.000  C
  C173     1.0000 0.14440  0.85780  0.56320  Biso   1.000  C
  C174     1.0000 0.64440  0.35780  0.56320  Biso   1.000  C
  C175     1.0000 0.85560  0.85780  0.93680  Biso   1.000  C
  C176     1.0000 0.35560  0.35780  0.93680  Biso   1.000  C
  C177     1.0000 0.82120  0.18400  0.37950  Biso   1.000  C
  C178     1.0000 0.32120  0.68400  0.37950  Biso   1.000  C
  C179     1.0000 0.17880  0.18400  0.12050  Biso   1.000  C
  C180     1.0000 0.67880  0.68400  0.12050  Biso   1.000  C
  C181     1.0000 0.17880  0.81600  0.62050  Biso   1.000  C
  C182     1.0000 0.67880  0.31600  0.62050  Biso   1.000  C
  C183     1.0000 0.82120  0.81600  0.87950  Biso   1.000  C
  C184     1.0000 0.32120  0.31600  0.87950  Biso   1.000  C
  C185     1.0000 0.67340  0.27230  0.30810  Biso   1.000  C
  C186     1.0000 0.17340  0.77230  0.30810  Biso   1.000  C
  C187     1.0000 0.32660  0.27230  0.19190  Biso   1.000  C
  C188     1.0000 0.82660  0.77230  0.19190  Biso   1.000  C
  C189     1.0000 0.32660  0.72770  0.69190  Biso   1.000  C
  C190     1.0000 0.82660  0.22770  0.69190  Biso   1.000  C
  C191     1.0000 0.67340  0.72770  0.80810  Biso   1.000  C
  C192     1.0000 0.17340  0.22770  0.80810  Biso   1.000  C
  C193     1.0000 0.62800  0.32770  0.28110  Biso   1.000  C
  C194     1.0000 0.12800  0.82770  0.28110  Biso   1.000  C
  C195     1.0000 0.37200  0.32770  0.21890  Biso   1.000  C
  C196     1.0000 0.87200  0.82770  0.21890  Biso   1.000  C
  C197     1.0000 0.37200  0.67230  0.71890  Biso   1.000  C
  C198     1.0000 0.87200  0.17230  0.71890  Biso   1.000  C
  C199     1.0000 0.62800  0.67230  0.78110  Biso   1.000  C
  C200     1.0000 0.12800  0.17230  0.78110  Biso   1.000  C
  C201     1.0000 0.57880  0.30500  0.28330  Biso   1.000  C
  C202     1.0000 0.07880  0.80500  0.28330  Biso   1.000  C
  C203     1.0000 0.42120  0.30500  0.21670  Biso   1.000  C
  C204     1.0000 0.92120  0.80500  0.21670  Biso   1.000  C
  C205     1.0000 0.42120  0.69500  0.71670  Biso   1.000  C
  C206     1.0000 0.92120  0.19500  0.71670  Biso   1.000  C
  C207     1.0000 0.57880  0.69500  0.78330  Biso   1.000  C
  C208     1.0000 0.07880  0.19500  0.78330  Biso   1.000  C
  C209     1.0000 0.57300  0.22570  0.31050  Biso   1.000  C
  C210     1.0000 0.07300  0.72570  0.31050  Biso   1.000  C
  C211     1.0000 0.42700  0.22570  0.18950  Biso   1.000  C
  C212     1.0000 0.92700  0.72570  0.18950  Biso   1.000  C
  C213     1.0000 0.42700  0.77430  0.68950  Biso   1.000  C
  C214     1.0000 0.92700  0.27430  0.68950  Biso   1.000  C
  C215     1.0000 0.57300  0.77430  0.81050  Biso   1.000  C
  C216     1.0000 0.07300  0.27430  0.81050  Biso   1.000  C
  C217     1.0000 0.61630  0.16910  0.33440  Biso   1.000  C
  C218     1.0000 0.11630  0.66910  0.33440  Biso   1.000  C
  C219     1.0000 0.38370  0.16910  0.16560  Biso   1.000  C
  C220     1.0000 0.88370  0.66910  0.16560  Biso   1.000  C
  C221     1.0000 0.38370  0.83090  0.66560  Biso   1.000  C
  C222     1.0000 0.88370  0.33090  0.66560  Biso   1.000  C
  C223     1.0000 0.61630  0.83090  0.83440  Biso   1.000  C
  C224     1.0000 0.11630  0.33090  0.83440  Biso   1.000  C
  C225     1.0000 0.66500  0.19270  0.33210  Biso   1.000  C
  C226     1.0000 0.16500  0.69270  0.33210  Biso   1.000  C
  C227     1.0000 0.33500  0.19270  0.16790  Biso   1.000  C
  C228     1.0000 0.83500  0.69270  0.16790  Biso   1.000  C
  C229     1.0000 0.33500  0.80730  0.66790  Biso   1.000  C
  C230     1.0000 0.83500  0.30730  0.66790  Biso   1.000  C
  C231     1.0000 0.66500  0.80730  0.83210  Biso   1.000  C
  C232     1.0000 0.16500  0.30730  0.83210  Biso   1.000  C
  C233     1.0000 0.69090  0.63710  0.35610  Biso   1.000  C
  C234     1.0000 0.19090  0.13710  0.35610  Biso   1.000  C
  C235     1.0000 0.30910  0.63710  0.14390  Biso   1.000  C
  C236     1.0000 0.80910  0.13710  0.14390  Biso   1.000  C
  C237     1.0000 0.30910  0.36290  0.64390  Biso   1.000  C
  C238     1.0000 0.80910  0.86290  0.64390  Biso   1.000  C
  C239     1.0000 0.69090  0.36290  0.85610  Biso   1.000  C
  C240     1.0000 0.19090  0.86290  0.85610  Biso   1.000  C
  C241     1.0000 0.70670  0.69930  0.40410  Biso   1.000  C
  C242     1.0000 0.20670  0.19930  0.40410  Biso   1.000  C
  C243     1.0000 0.29330  0.69930  0.09590  Biso   1.000  C
  C244     1.0000 0.79330  0.19930  0.09590  Biso   1.000  C
  C245     1.0000 0.29330  0.30070  0.59590  Biso   1.000  C
  C246     1.0000 0.79330  0.80070  0.59590  Biso   1.000  C
  C247     1.0000 0.70670  0.30070  0.90410  Biso   1.000  C
  C248     1.0000 0.20670  0.80070  0.90410  Biso   1.000  C
  C249     1.0000 0.68160  0.70550  0.44520  Biso   1.000  C
  C250     1.0000 0.18160  0.20550  0.44520  Biso   1.000  C
  C251     1.0000 0.31840  0.70550  0.05480  Biso   1.000  C
  C252     1.0000 0.81840  0.20550  0.05480  Biso   1.000  C
  C253     1.0000 0.31840  0.29450  0.55480  Biso   1.000  C
  C254     1.0000 0.81840  0.79450  0.55480  Biso   1.000  C
  C255     1.0000 0.68160  0.29450  0.94520  Biso   1.000  C
  C256     1.0000 0.18160  0.79450  0.94520  Biso   1.000  C
  C257     1.0000 0.63950  0.64940  0.43820  Biso   1.000  C
  C258     1.0000 0.13950  0.14940  0.43820  Biso   1.000  C
  C259     1.0000 0.36050  0.64940  0.06180  Biso   1.000  C
  C260     1.0000 0.86050  0.14940  0.06180  Biso   1.000  C
  C261     1.0000 0.36050  0.35060  0.56180  Biso   1.000  C
  C262     1.0000 0.86050  0.85060  0.56180  Biso   1.000  C
  C263     1.0000 0.63950  0.35060  0.93820  Biso   1.000  C
  C264     1.0000 0.13950  0.85060  0.93820  Biso   1.000  C
  C265     1.0000 0.62350  0.58640  0.39090  Biso   1.000  C
  C266     1.0000 0.12350  0.08640  0.39090  Biso   1.000  C
  C267     1.0000 0.37650  0.58640  0.10910  Biso   1.000  C
  C268     1.0000 0.87650  0.08640  0.10910  Biso   1.000  C
  C269     1.0000 0.37650  0.41360  0.60910  Biso   1.000  C
  C270     1.0000 0.87650  0.91360  0.60910  Biso   1.000  C
  C271     1.0000 0.62350  0.41360  0.89090  Biso   1.000  C
  C272     1.0000 0.12350  0.91360  0.89090  Biso   1.000  C
  C273     1.0000 0.64920  0.58080  0.34870  Biso   1.000  C
  C274     1.0000 0.14920  0.08080  0.34870  Biso   1.000  C
  C275     1.0000 0.35080  0.58080  0.15130  Biso   1.000  C
  C276     1.0000 0.85080  0.08080  0.15130  Biso   1.000  C
  C277     1.0000 0.35080  0.41920  0.65130  Biso   1.000  C
  C278     1.0000 0.85080  0.91920  0.65130  Biso   1.000  C
  C279     1.0000 0.64920  0.41920  0.84870  Biso   1.000  C
  C280     1.0000 0.14920  0.91920  0.84870  Biso   1.000  C
  C281     1.0000 0.96070  0.99500  0.38610  Biso   1.000  C
  C282     1.0000 0.46070  0.49500  0.38610  Biso   1.000  C
  C283     1.0000 0.03930  0.99500  0.11390  Biso   1.000  C
  C284     1.0000 0.53930  0.49500  0.11390  Biso   1.000  C
  C285     1.0000 0.03930  0.00500  0.61390  Biso   1.000  C
  C286     1.0000 0.53930  0.50500  0.61390  Biso   1.000  C
  C287     1.0000 0.96070  0.00500  0.88610  Biso   1.000  C
  C288     1.0000 0.46070  0.50500  0.88610  Biso   1.000  C
  Cl1      1.0000 0.00264  0.07310  0.43976  Biso   1.000  Cl
  Cl2      1.0000 0.50264  0.57310  0.43976  Biso   1.000  Cl
  Cl3      1.0000 0.99736  0.07310  0.06024  Biso   1.000  Cl
  Cl4      1.0000 0.49736  0.57310  0.06024  Biso   1.000  Cl
  Cl5      1.0000 0.99736  0.92690  0.56024  Biso   1.000  Cl
  Cl6      1.0000 0.49736  0.42690  0.56024  Biso   1.000  Cl
  Cl7      1.0000 0.00264  0.92690  0.93976  Biso   1.000  Cl
  Cl8      1.0000 0.50264  0.42690  0.93976  Biso   1.000  Cl
  Cl9      1.0000 0.00558  0.90360  0.38675  Biso   1.000  Cl
  Cl10     1.0000 0.50558  0.40360  0.38675  Biso   1.000  Cl
  Cl11     1.0000 0.99442  0.90360  0.11325  Biso   1.000  Cl
  Cl12     1.0000 0.49442  0.40360  0.11325  Biso   1.000  Cl
  Cl13     1.0000 0.99442  0.09640  0.61325  Biso   1.000  Cl
  Cl14     1.0000 0.49442  0.59640  0.61325  Biso   1.000  Cl
  Cl15     1.0000 0.00558  0.09640  0.88675  Biso   1.000  Cl
  Cl16     1.0000 0.50558  0.59640  0.88675  Biso   1.000  Cl
  Cl17     1.0000 0.94070  0.03700  0.31100  Biso   1.000  Cl
  Cl18     1.0000 0.44070  0.53700  0.31100  Biso   1.000  Cl
  Cl19     1.0000 0.05930  0.03700  0.18900  Biso   1.000  Cl
  Cl20     1.0000 0.55930  0.53700  0.18900  Biso   1.000  Cl
  Cl21     1.0000 0.05930  0.96300  0.68900  Biso   1.000  Cl
  Cl22     1.0000 0.55930  0.46300  0.68900  Biso   1.000  Cl
  Cl23     1.0000 0.94070  0.96300  0.81100  Biso   1.000  Cl
  Cl24     1.0000 0.44070  0.46300  0.81100  Biso   1.000  Cl
  C289     1.0000 0.96490  0.30410  0.95140  Biso   1.000  C
  C290     1.0000 0.46490  0.80410  0.95140  Biso   1.000  C
  C291     1.0000 0.03510  0.30410  0.54860  Biso   1.000  C
  C292     1.0000 0.53510  0.80410  0.54860  Biso   1.000  C
  C293     1.0000 0.03510  0.69590  0.04860  Biso   1.000  C
  C294     1.0000 0.53510  0.19590  0.04860  Biso   1.000  C
  C295     1.0000 0.96490  0.69590  0.45140  Biso   1.000  C
  C296     1.0000 0.46490  0.19590  0.45140  Biso   1.000  C
  Cl25     1.0000 0.93390  0.32660  0.86160  Biso   1.000  Cl
  Cl26     1.0000 0.43390  0.82660  0.86160  Biso   1.000  Cl
  Cl27     1.0000 0.06610  0.32660  0.63840  Biso   1.000  Cl
  Cl28     1.0000 0.56610  0.82660  0.63840  Biso   1.000  Cl
  Cl29     1.0000 0.06610  0.67340  0.13840  Biso   1.000  Cl
  Cl30     1.0000 0.56610  0.17340  0.13840  Biso   1.000  Cl
  Cl31     1.0000 0.93390  0.67340  0.36160  Biso   1.000  Cl
  Cl32     1.0000 0.43390  0.17340  0.36160  Biso   1.000  Cl
  Cl33     1.0000 0.95470  0.40930  0.98750  Biso   1.000  Cl
  Cl34     1.0000 0.45470  0.90930  0.98750  Biso   1.000  Cl
  Cl35     1.0000 0.04530  0.40930  0.51250  Biso   1.000  Cl
  Cl36     1.0000 0.54530  0.90930  0.51250  Biso   1.000  Cl
  Cl37     1.0000 0.04530  0.59070  0.01250  Biso   1.000  Cl
  Cl38     1.0000 0.54530  0.09070  0.01250  Biso   1.000  Cl
  Cl39     1.0000 0.95470  0.59070  0.48750  Biso   1.000  Cl
  Cl40     1.0000 0.45470  0.09070  0.48750  Biso   1.000  Cl
  Cl41     1.0000 0.03820  0.33800  0.96240  Biso   1.000  Cl
  Cl42     1.0000 0.53820  0.83800  0.96240  Biso   1.000  Cl
  Cl43     1.0000 0.96180  0.33800  0.53760  Biso   1.000  Cl
  Cl44     1.0000 0.46180  0.83800  0.53760  Biso   1.000  Cl
  Cl45     1.0000 0.96180  0.66200  0.03760  Biso   1.000  Cl
  Cl46     1.0000 0.46180  0.16200  0.03760  Biso   1.000  Cl
  Cl47     1.0000 0.03820  0.66200  0.46240  Biso   1.000  Cl
  Cl48     1.0000 0.53820  0.16200  0.46240  Biso   1.000  Cl
  Cl49     1.0000 0.95400  0.35200  0.88340  Biso   1.000  Cl
  Cl50     1.0000 0.45400  0.85200  0.88340  Biso   1.000  Cl
  Cl51     1.0000 0.04600  0.35200  0.61660  Biso   1.000  Cl
  Cl52     1.0000 0.54600  0.85200  0.61660  Biso   1.000  Cl
  Cl53     1.0000 0.04600  0.64800  0.11660  Biso   1.000  Cl
  Cl54     1.0000 0.54600  0.14800  0.11660  Biso   1.000  Cl
  Cl55     1.0000 0.95400  0.64800  0.38340  Biso   1.000  Cl
  Cl56     1.0000 0.45400  0.14800  0.38340  Biso   1.000  Cl
  Cl57     1.0000 0.92750  0.36010  0.98560  Biso   1.000  Cl
  Cl58     1.0000 0.42750  0.86010  0.98560  Biso   1.000  Cl
  Cl59     1.0000 0.07250  0.36010  0.51440  Biso   1.000  Cl
  Cl60     1.0000 0.57250  0.86010  0.51440  Biso   1.000  Cl
  Cl61     1.0000 0.07250  0.63990  0.01440  Biso   1.000  Cl
  Cl62     1.0000 0.57250  0.13990  0.01440  Biso   1.000  Cl
  Cl63     1.0000 0.92750  0.63990  0.48560  Biso   1.000  Cl
  Cl64     1.0000 0.42750  0.13990  0.48560  Biso   1.000  Cl
  Cl65     1.0000 0.02980  0.29870  0.00050  Biso   1.000  Cl
  Cl66     1.0000 0.52980  0.79870  0.00050  Biso   1.000  Cl
  Cl67     1.0000 0.97020  0.29870  0.49950  Biso   1.000  Cl
  Cl68     1.0000 0.47020  0.79870  0.49950  Biso   1.000  Cl
  Cl69     1.0000 0.97020  0.70130  0.99950  Biso   1.000  Cl
  Cl70     1.0000 0.47020  0.20130  0.99950  Biso   1.000  Cl
  Cl71     1.0000 0.02980  0.70130  0.50050  Biso   1.000  Cl
  Cl72     1.0000 0.52980  0.20130  0.50050  Biso   1.000  Cl
