data_image0
_cell_length_a       15.091
_cell_length_b       15.687
_cell_length_c       15.948
_cell_angle_alpha    112.308
_cell_angle_beta     98.746
_cell_angle_gamma    108.033

_symmetry_space_group_name_H-M    "P 1"
_symmetry_int_tables_number       1

loop_
  _symmetry_equiv_pos_as_xyz
  'x, y, z'

loop_
  _atom_site_label
  _atom_site_occupancy
  _atom_site_fract_x
  _atom_site_fract_y
  _atom_site_fract_z
  _atom_site_thermal_displace_type
  _atom_site_B_iso_or_equiv
  _atom_site_type_symbol
  Er1      1.0000 0.93228  0.76536  0.07824  Biso   1.000  Er
  Er2      1.0000 0.06772  0.23464  0.92176  Biso   1.000  Er
  Cl1      1.0000 0.75729  0.75034  0.04769  Biso   1.000  Cl
  Cl2      1.0000 0.24271  0.24966  0.95231  Biso   1.000  Cl
  Cl3      1.0000 0.96742  0.77701  0.24332  Biso   1.000  Cl
  Cl4      1.0000 0.03258  0.22299  0.75668  Biso   1.000  Cl
  O1       1.0000 0.94742  0.79061  0.94613  Biso   1.000  O
  O2       1.0000 0.05258  0.20939  0.05387  Biso   1.000  O
  O3       1.0000 0.01491  0.93083  0.11901  Biso   1.000  O
  O4       1.0000 0.98509  0.06917  0.88099  Biso   1.000  O
  O5       1.0000 0.90431  0.59924  0.99795  Biso   1.000  O
  O6       1.0000 0.09569  0.40076  0.00205  Biso   1.000  O
  O7       1.0000 0.07300  0.74385  0.06286  Biso   1.000  O
  O8       1.0000 0.92700  0.25615  0.93714  Biso   1.000  O
  Cu1      1.0000 0.05939  0.91629  0.00876  Biso   1.000  Cu
  Cu2      1.0000 0.94061  0.08371  0.99124  Biso   1.000  Cu
  C1       1.0000 0.92190  0.72170  0.85410  Biso   1.000  C
  C2       1.0000 0.07810  0.27830  0.14590  Biso   1.000  C
  C3       1.0000 0.04920  0.01690  0.20180  Biso   1.000  C
  C4       1.0000 0.95080  0.98310  0.79820  Biso   1.000  C
  Cu3      1.0000 0.01908  0.61477  0.95571  Biso   1.000  Cu
  Cu4      1.0000 0.98092  0.38523  0.04429  Biso   1.000  Cu
  C5       1.0000 0.82520  0.51150  0.96490  Biso   1.000  C
  C6       1.0000 0.17480  0.48850  0.03510  Biso   1.000  C
  C7       1.0000 0.16770  0.80870  0.09570  Biso   1.000  C
  C8       1.0000 0.83230  0.19130  0.90430  Biso   1.000  C
  N1       1.0000 0.17301  0.03895  0.07420  Biso   1.000  N
  N2       1.0000 0.82699  0.96105  0.92580  Biso   1.000  N
  N3       1.0000 0.10486  0.89940  0.90070  Biso   1.000  N
  N4       1.0000 0.89514  0.10060  0.09930  Biso   1.000  N
  C9       1.0000 0.83490  0.63900  0.81900  Biso   1.000  C
  C10      1.0000 0.16510  0.36100  0.18100  Biso   1.000  C
  C11      1.0000 0.98200  0.73270  0.79600  Biso   1.000  C
  C12      1.0000 0.01800  0.26730  0.20400  Biso   1.000  C
  C13      1.0000 0.13470  0.10040  0.22150  Biso   1.000  C
  C14      1.0000 0.86530  0.89960  0.77850  Biso   1.000  C
  C15      1.0000 0.99780  0.02080  0.26620  Biso   1.000  C
  C16      1.0000 0.00220  0.97920  0.73380  Biso   1.000  C
  N5       1.0000 0.96870  0.48160  0.85571  Biso   1.000  N
  N6       1.0000 0.03130  0.51840  0.14429  Biso   1.000  N
  N7       1.0000 0.12500  0.64180  0.90431  Biso   1.000  N
  N8       1.0000 0.87500  0.35820  0.09569  Biso   1.000  N
  C17      1.0000 0.75390  0.51100  0.00870  Biso   1.000  C
  C18      1.0000 0.24610  0.48900  0.99130  Biso   1.000  C
  C19      1.0000 0.81570  0.42190  0.88750  Biso   1.000  C
  C20      1.0000 0.18430  0.57810  0.11250  Biso   1.000  C
  C21      1.0000 0.20230  0.88210  0.18870  Biso   1.000  C
  C22      1.0000 0.79770  0.11790  0.81130  Biso   1.000  C
  C23      1.0000 0.22970  0.80190  0.03780  Biso   1.000  C
  C24      1.0000 0.77030  0.19810  0.96220  Biso   1.000  C
  C25      1.0000 0.24220  0.04930  0.01960  Biso   1.000  C
  C26      1.0000 0.75780  0.95070  0.98040  Biso   1.000  C
  C27      1.0000 0.19190  0.10590  0.15950  Biso   1.000  C
  C28      1.0000 0.80810  0.89410  0.84050  Biso   1.000  C
  C29      1.0000 0.06770  0.81940  0.82100  Biso   1.000  C
  C30      1.0000 0.93230  0.18060  0.17900  Biso   1.000  C
  C31      1.0000 0.18670  0.98920  0.91580  Biso   1.000  C
  C32      1.0000 0.81330  0.01080  0.08420  Biso   1.000  C
  H1       1.0000 0.79560  0.63460  0.85810  Biso   1.000  H
  H2       1.0000 0.20440  0.36540  0.14190  Biso   1.000  H
  C33      1.0000 0.80350  0.56100  0.72570  Biso   1.000  C
  C34      1.0000 0.19650  0.43900  0.27430  Biso   1.000  C
  C35      1.0000 0.94960  0.65320  0.70350  Biso   1.000  C
  C36      1.0000 0.05040  0.34680  0.29650  Biso   1.000  C
  C37      1.0000 0.16360  0.18420  0.31120  Biso   1.000  C
  C38      1.0000 0.83640  0.81580  0.68880  Biso   1.000  C
  H3       1.0000 0.94150  0.96480  0.25070  Biso   1.000  H
  H4       1.0000 0.05850  0.03520  0.74930  Biso   1.000  H
  C39      1.0000 0.02660  0.10590  0.35480  Biso   1.000  C
  C40      1.0000 0.97340  0.89410  0.64520  Biso   1.000  C
  C41      1.0000 0.03920  0.46480  0.80350  Biso   1.000  C
  C42      1.0000 0.96080  0.53520  0.19650  Biso   1.000  C
  C43      1.0000 0.88610  0.41270  0.83820  Biso   1.000  C
  C44      1.0000 0.11390  0.58730  0.16180  Biso   1.000  C
  C45      1.0000 0.10290  0.56140  0.80930  Biso   1.000  C
  C46      1.0000 0.89710  0.43860  0.19070  Biso   1.000  C
  C47      1.0000 0.20400  0.72120  0.94500  Biso   1.000  C
  C48      1.0000 0.79600  0.27880  0.05500  Biso   1.000  C
  H5       1.0000 0.76340  0.57000  0.06080  Biso   1.000  H
  H6       1.0000 0.23660  0.43000  0.93920  Biso   1.000  H
  C49      1.0000 0.66690  0.42550  0.97880  Biso   1.000  C
  C50      1.0000 0.33310  0.57450  0.02120  Biso   1.000  C
  C51      1.0000 0.72770  0.33740  0.85910  Biso   1.000  C
  C52      1.0000 0.27230  0.66260  0.14090  Biso   1.000  C
  H7       1.0000 0.15980  0.88420  0.22520  Biso   1.000  H
  H8       1.0000 0.84020  0.11580  0.77480  Biso   1.000  H
  C53      1.0000 0.29890  0.95370  0.23040  Biso   1.000  C
  C54      1.0000 0.70110  0.04630  0.76960  Biso   1.000  C
  C55      1.0000 0.32560  0.87520  0.07950  Biso   1.000  C
  C56      1.0000 0.67440  0.12480  0.92050  Biso   1.000  C
  H9       1.0000 0.29100  0.02510  0.03560  Biso   1.000  H
  H10      1.0000 0.70900  0.97490  0.96440  Biso   1.000  H
  H11      1.0000 0.27550  0.11950  0.03490  Biso   1.000  H
  H12      1.0000 0.72450  0.88050  0.96510  Biso   1.000  H
  H13      1.0000 0.24890  0.16380  0.18300  Biso   1.000  H
  H14      1.0000 0.75110  0.83620  0.81700  Biso   1.000  H
  H15      1.0000 0.09970  0.81780  0.77540  Biso   1.000  H
  H16      1.0000 0.90030  0.18220  0.22460  Biso   1.000  H
  H17      1.0000 0.16230  0.02960  0.89340  Biso   1.000  H
  H18      1.0000 0.83770  0.97040  0.10660  Biso   1.000  H
  H19      1.0000 0.22970  0.96960  0.88020  Biso   1.000  H
  H20      1.0000 0.77030  0.03040  0.11980  Biso   1.000  H
  N9       1.0000 0.71680  0.48000  0.69210  Biso   1.000  N
  N10      1.0000 0.28320  0.52000  0.30790  Biso   1.000  N
  C57      1.0000 0.86620  0.57060  0.66960  Biso   1.000  C
  C58      1.0000 0.13380  0.42940  0.33040  Biso   1.000  C
  H21      1.0000 0.98780  0.65800  0.66360  Biso   1.000  H
  H22      1.0000 0.01220  0.34200  0.33640  Biso   1.000  H
  C59      1.0000 0.11420  0.18810  0.37570  Biso   1.000  C
  C60      1.0000 0.88580  0.81190  0.62430  Biso   1.000  C
  H23      1.0000 0.22010  0.24020  0.32700  Biso   1.000  H
  H24      1.0000 0.77990  0.75980  0.67300  Biso   1.000  H
  N11      1.0000 0.97150  0.10800  0.41470  Biso   1.000  N
  N12      1.0000 0.02850  0.89200  0.58530  Biso   1.000  N
  H25      1.0000 0.00440  0.41630  0.73740  Biso   1.000  H
  H26      1.0000 0.99560  0.58370  0.26260  Biso   1.000  H
  H27      1.0000 0.07880  0.43800  0.83100  Biso   1.000  H
  H28      1.0000 0.92120  0.56200  0.16900  Biso   1.000  H
  H29      1.0000 0.87020  0.34990  0.78800  Biso   1.000  H
  H30      1.0000 0.12980  0.65010  0.21200  Biso   1.000  H
  H31      1.0000 0.16310  0.55790  0.79720  Biso   1.000  H
  H32      1.0000 0.83690  0.44210  0.20280  Biso   1.000  H
  H33      1.0000 0.06990  0.57490  0.76160  Biso   1.000  H
  H34      1.0000 0.93010  0.42510  0.23840  Biso   1.000  H
  H35      1.0000 0.24880  0.72720  0.91130  Biso   1.000  H
  H36      1.0000 0.75120  0.27280  0.08870  Biso   1.000  H
  N13      1.0000 0.59780  0.42990  0.02370  Biso   1.000  N
  N14      1.0000 0.40220  0.57010  0.97630  Biso   1.000  N
  C61      1.0000 0.65710  0.33760  0.90100  Biso   1.000  C
  C62      1.0000 0.34290  0.66240  0.09900  Biso   1.000  C
  H37      1.0000 0.71800  0.27760  0.80790  Biso   1.000  H
  H38      1.0000 0.28200  0.72240  0.19210  Biso   1.000  H
  N15      1.0000 0.33070  0.02470  0.32310  Biso   1.000  N
  N16      1.0000 0.66930  0.97530  0.67690  Biso   1.000  N
  C63      1.0000 0.36000  0.94830  0.17130  Biso   1.000  C
  C64      1.0000 0.64000  0.05170  0.82870  Biso   1.000  C
  H39      1.0000 0.36790  0.87400  0.04280  Biso   1.000  H
  H40      1.0000 0.63210  0.12600  0.95720  Biso   1.000  H
  C65      1.0000 0.65000  0.47340  0.74760  Biso   1.000  C
  C66      1.0000 0.35000  0.52660  0.25240  Biso   1.000  C
  C67      1.0000 0.68160  0.40110  0.59320  Biso   1.000  C
  C68      1.0000 0.31840  0.59890  0.40680  Biso   1.000  C
  H41      1.0000 0.84960  0.51920  0.60860  Biso   1.000  H
  H42      1.0000 0.15040  0.48080  0.39140  Biso   1.000  H
  H43      1.0000 0.13790  0.24510  0.43420  Biso   1.000  H
  H44      1.0000 0.86210  0.75490  0.56580  Biso   1.000  H
  C69      1.0000 0.00610  0.19190  0.51130  Biso   1.000  C
  C70      1.0000 0.99390  0.80810  0.48870  Biso   1.000  C
  C71      1.0000 0.86870  0.02980  0.38310  Biso   1.000  C
  C72      1.0000 0.13130  0.97020  0.61690  Biso   1.000  C
  C73      1.0000 0.50700  0.34150  0.99410  Biso   1.000  C
  C74      1.0000 0.49300  0.65850  0.00590  Biso   1.000  C
  C75      1.0000 0.61130  0.52290  0.10540  Biso   1.000  C
  C76      1.0000 0.38870  0.47710  0.89460  Biso   1.000  C
  H45      1.0000 0.60100  0.27900  0.87840  Biso   1.000  H
  H46      1.0000 0.39900  0.72100  0.12160  Biso   1.000  H
  C77      1.0000 0.26850  0.02070  0.38360  Biso   1.000  C
  C78      1.0000 0.73150  0.97930  0.61640  Biso   1.000  C
  C79      1.0000 0.43410  0.09520  0.36960  Biso   1.000  C
  C80      1.0000 0.56590  0.90480  0.63040  Biso   1.000  C
  H47      1.0000 0.42450  0.99510  0.19540  Biso   1.000  H
  H48      1.0000 0.57550  0.00490  0.80460  Biso   1.000  H
  H49      1.0000 0.68700  0.49730  0.81310  Biso   1.000  H
  H50      1.0000 0.31300  0.50270  0.18690  Biso   1.000  H
  H51      1.0000 0.60620  0.40350  0.72340  Biso   1.000  H
  H52      1.0000 0.39380  0.59650  0.27660  Biso   1.000  H
  C81      1.0000 0.59000  0.53400  0.74500  Biso   1.000  C
  C82      1.0000 0.41000  0.46600  0.25500  Biso   1.000  C
  H53      1.0000 0.70020  0.43150  0.55230  Biso   1.000  H
  H54      1.0000 0.29980  0.56850  0.44770  Biso   1.000  H
  H55      1.0000 0.61070  0.36890  0.57310  Biso   1.000  H
  H56      1.0000 0.38930  0.63110  0.42690  Biso   1.000  H
  C83      1.0000 0.72320  0.32220  0.58180  Biso   1.000  C
  C84      1.0000 0.27680  0.67780  0.41820  Biso   1.000  C
  H57      1.0000 0.07690  0.21830  0.53510  Biso   1.000  H
  H58      1.0000 0.92310  0.78170  0.46490  Biso   1.000  H
  H59      1.0000 0.97950  0.16730  0.55330  Biso   1.000  H
  H60      1.0000 0.02050  0.83270  0.44670  Biso   1.000  H
  C85      1.0000 0.97610  0.27370  0.51210  Biso   1.000  C
  C86      1.0000 0.02390  0.72630  0.48790  Biso   1.000  C
  H61      1.0000 0.82810  0.06100  0.41300  Biso   1.000  H
  H62      1.0000 0.17190  0.93900  0.58700  Biso   1.000  H
  H63      1.0000 0.84100  0.00110  0.31460  Biso   1.000  H
  H64      1.0000 0.15900  0.99890  0.68540  Biso   1.000  H
  C87      1.0000 0.87010  0.94870  0.40980  Biso   1.000  C
  C88      1.0000 0.12990  0.05130  0.59020  Biso   1.000  C
  H65      1.0000 0.48740  0.30210  0.92550  Biso   1.000  H
  H66      1.0000 0.51260  0.69790  0.07450  Biso   1.000  H
  H67      1.0000 0.45590  0.36420  0.00930  Biso   1.000  H
  H68      1.0000 0.54410  0.63580  0.99070  Biso   1.000  H
  C89      1.0000 0.51410  0.27520  0.03900  Biso   1.000  C
  C90      1.0000 0.48590  0.72480  0.96100  Biso   1.000  C
  H69      1.0000 0.63950  0.57960  0.09290  Biso   1.000  H
  H70      1.0000 0.36050  0.42040  0.90710  Biso   1.000  H
  H71      1.0000 0.54790  0.51960  0.11310  Biso   1.000  H
  H72      1.0000 0.45210  0.48040  0.88690  Biso   1.000  H
  C91      1.0000 0.67470  0.53900  0.19360  Biso   1.000  C
  C92      1.0000 0.32530  0.46100  0.80640  Biso   1.000  C
  H73      1.0000 0.20400  0.01070  0.34990  Biso   1.000  H
  H74      1.0000 0.79600  0.98930  0.65010  Biso   1.000  H
  H75      1.0000 0.29510  0.08510  0.44010  Biso   1.000  H
  H76      1.0000 0.70490  0.91490  0.55990  Biso   1.000  H
  C93      1.0000 0.25800  0.93870  0.41360  Biso   1.000  C
  C94      1.0000 0.74200  0.06130  0.58640  Biso   1.000  C
  H77      1.0000 0.43800  0.15670  0.42000  Biso   1.000  H
  H78      1.0000 0.56200  0.84330  0.58000  Biso   1.000  H
  H79      1.0000 0.46030  0.11210  0.32350  Biso   1.000  H
  H80      1.0000 0.53970  0.88790  0.67650  Biso   1.000  H
  C95      1.0000 0.49490  0.05380  0.41070  Biso   1.000  C
  C96      1.0000 0.50510  0.94620  0.58930  Biso   1.000  C
  H81      1.0000 0.55440  0.51200  0.68020  Biso   1.000  H
  H82      1.0000 0.44560  0.48800  0.31980  Biso   1.000  H
  H83      1.0000 0.63260  0.60400  0.77300  Biso   1.000  H
  H84      1.0000 0.36740  0.39600  0.22700  Biso   1.000  H
  H85      1.0000 0.54470  0.52460  0.78030  Biso   1.000  H
  H86      1.0000 0.45530  0.47540  0.21970  Biso   1.000  H
  H87      1.0000 0.70270  0.27490  0.51570  Biso   1.000  H
  H88      1.0000 0.29730  0.72510  0.48430  Biso   1.000  H
  H89      1.0000 0.69990  0.28750  0.61750  Biso   1.000  H
  H90      1.0000 0.30010  0.71250  0.38250  Biso   1.000  H
  H91      1.0000 0.79340  0.35430  0.60500  Biso   1.000  H
  H92      1.0000 0.20660  0.64570  0.39500  Biso   1.000  H
  H93      1.0000 0.01000  0.30480  0.47830  Biso   1.000  H
  H94      1.0000 0.99000  0.69520  0.52170  Biso   1.000  H
  H95      1.0000 0.99210  0.32300  0.57670  Biso   1.000  H
  H96      1.0000 0.00790  0.67700  0.42330  Biso   1.000  H
  H97      1.0000 0.90680  0.24620  0.48200  Biso   1.000  H
  H98      1.0000 0.09320  0.75380  0.51800  Biso   1.000  H
  H99      1.0000 0.90900  0.91680  0.37880  Biso   1.000  H
  H100     1.0000 0.09100  0.08320  0.62120  Biso   1.000  H
  H101     1.0000 0.80450  0.89980  0.39030  Biso   1.000  H
  H102     1.0000 0.19550  0.10020  0.60970  Biso   1.000  H
  H103     1.0000 0.89780  0.97740  0.47760  Biso   1.000  H
  H104     1.0000 0.10220  0.02260  0.52240  Biso   1.000  H
  H105     1.0000 0.56020  0.24730  0.01980  Biso   1.000  H
  H106     1.0000 0.43980  0.75270  0.98020  Biso   1.000  H
  H107     1.0000 0.45110  0.22180  0.01920  Biso   1.000  H
  H108     1.0000 0.54890  0.77820  0.98080  Biso   1.000  H
  H109     1.0000 0.53570  0.31380  0.10700  Biso   1.000  H
  H110     1.0000 0.46430  0.68620  0.89300  Biso   1.000  H
  H111     1.0000 0.73820  0.54460  0.18720  Biso   1.000  H
  H112     1.0000 0.26180  0.45540  0.81280  Biso   1.000  H
  H113     1.0000 0.64690  0.48310  0.20650  Biso   1.000  H
  H114     1.0000 0.35310  0.51690  0.79350  Biso   1.000  H
  H115     1.0000 0.68070  0.59970  0.24510  Biso   1.000  H
  H116     1.0000 0.31930  0.40030  0.75490  Biso   1.000  H
  H117     1.0000 0.24010  0.87590  0.35850  Biso   1.000  H
  H118     1.0000 0.75990  0.12410  0.64150  Biso   1.000  H
  H119     1.0000 0.20810  0.93330  0.44450  Biso   1.000  H
  H120     1.0000 0.79190  0.06670  0.55550  Biso   1.000  H
  H121     1.0000 0.31910  0.95470  0.45690  Biso   1.000  H
  H122     1.0000 0.68090  0.04530  0.54310  Biso   1.000  H
  H123     1.0000 0.48060  0.98640  0.36500  Biso   1.000  H
  H124     1.0000 0.51940  0.01360  0.63500  Biso   1.000  H
  H125     1.0000 0.48060  0.05320  0.46710  Biso   1.000  H
  H126     1.0000 0.51940  0.94680  0.53290  Biso   1.000  H
  H127     1.0000 0.56300  0.09500  0.42650  Biso   1.000  H
  H128     1.0000 0.43700  0.90500  0.57350  Biso   1.000  H
  C97      1.0000 0.03950  0.51790  0.52420  Biso   1.000  C
  C98      1.0000 0.96050  0.48210  0.47580  Biso   1.000  C
  C99      1.0000 0.47200  0.98190  0.96290  Biso   1.000  C
  C100     1.0000 0.52800  0.01810  0.03710  Biso   1.000  C
  C101     1.0000 0.24650  0.49200  0.57770  Biso   1.000  C
  C102     1.0000 0.75350  0.50800  0.42230  Biso   1.000  C
  C103     1.0000 0.29160  0.44420  0.56080  Biso   1.000  C
  C104     1.0000 0.70840  0.55580  0.43920  Biso   1.000  C
  C105     1.0000 0.24660  0.71040  0.69930  Biso   1.000  C
  C106     1.0000 0.75340  0.28960  0.30070  Biso   1.000  C
  C107     1.0000 0.29600  0.79210  0.75480  Biso   1.000  C
  C108     1.0000 0.70400  0.20790  0.24520  Biso   1.000  C
  C109     1.0000 0.38750  0.02610  0.79230  Biso   1.000  C
  C110     1.0000 0.61250  0.97390  0.20770  Biso   1.000  C
  C111     1.0000 0.39500  0.08220  0.76070  Biso   1.000  C
  C112     1.0000 0.60500  0.91780  0.23930  Biso   1.000  C
  C113     1.0000 0.40140  0.24130  0.63980  Biso   1.000  C
  C114     1.0000 0.59860  0.75870  0.36020  Biso   1.000  C
  C115     1.0000 0.39250  0.28640  0.59970  Biso   1.000  C
  C116     1.0000 0.60750  0.71360  0.40030  Biso   1.000  C
  Cu5      1.0000 0.38295  0.92744  0.83900  Biso   1.000  Cu
  Cu6      1.0000 0.61705  0.07256  0.16100  Biso   1.000  Cu
  Cu7      1.0000 0.17264  0.57515  0.60182  Biso   1.000  Cu
  Cu8      1.0000 0.82736  0.42485  0.39818  Biso   1.000  Cu
  Cu9      1.0000 0.36590  0.36334  0.53863  Biso   1.000  Cu
  Cu10     1.0000 0.63410  0.63666  0.46137  Biso   1.000  Cu
  Cu11     1.0000 0.40142  0.16533  0.70358  Biso   1.000  Cu
  Cu12     1.0000 0.59858  0.83467  0.29642  Biso   1.000  Cu
  N17      1.0000 0.43280  0.35030  0.43690  Biso   1.000  N
  N18      1.0000 0.56720  0.64970  0.56310  Biso   1.000  N
  C117     1.0000 0.47090  0.33410  0.38090  Biso   1.000  C
  C118     1.0000 0.52910  0.66590  0.61910  Biso   1.000  C
  C119     1.0000 0.51840  0.31030  0.30770  Biso   1.000  C
  C120     1.0000 0.48160  0.68970  0.69230  Biso   1.000  C
  H129     1.0000 0.47220  0.25260  0.25080  Biso   1.000  H
  H130     1.0000 0.52780  0.74740  0.74920  Biso   1.000  H
  H131     1.0000 0.57230  0.29580  0.32930  Biso   1.000  H
  H132     1.0000 0.42770  0.70420  0.67070  Biso   1.000  H
  H133     1.0000 0.54200  0.36660  0.29440  Biso   1.000  H
  H134     1.0000 0.45800  0.63340  0.70560  Biso   1.000  H
