data_image0
_cell_length_a       12.447
_cell_length_b       16.103
_cell_length_c       9.889
_cell_angle_alpha    90
_cell_angle_beta     111.51
_cell_angle_gamma    90

_symmetry_space_group_name_H-M    "P 1"
_symmetry_int_tables_number       1

loop_
  _symmetry_equiv_pos_as_xyz
  'x, y, z'

loop_
  _atom_site_label
  _atom_site_occupancy
  _atom_site_fract_x
  _atom_site_fract_y
  _atom_site_fract_z
  _atom_site_thermal_displace_type
  _atom_site_B_iso_or_equiv
  _atom_site_type_symbol
  Cu1      1.0000 0.31940  0.29281  0.12740  Biso   1.000  Cu
  Cu2      1.0000 0.81940  0.79281  0.12740  Biso   1.000  Cu
  Cu3      1.0000 0.68060  0.29281  0.37260  Biso   1.000  Cu
  Cu4      1.0000 0.18060  0.79281  0.37260  Biso   1.000  Cu
  Cu5      1.0000 0.68060  0.70719  0.87260  Biso   1.000  Cu
  Cu6      1.0000 0.18060  0.20719  0.87260  Biso   1.000  Cu
  Cu7      1.0000 0.31940  0.70719  0.62740  Biso   1.000  Cu
  Cu8      1.0000 0.81940  0.20719  0.62740  Biso   1.000  Cu
  Cl1      1.0000 0.31600  0.31740  0.89360  Biso   1.000  Cl
  Cl2      1.0000 0.81600  0.81740  0.89360  Biso   1.000  Cl
  Cl3      1.0000 0.68400  0.31740  0.60640  Biso   1.000  Cl
  Cl4      1.0000 0.18400  0.81740  0.60640  Biso   1.000  Cl
  Cl5      1.0000 0.68400  0.68260  0.10640  Biso   1.000  Cl
  Cl6      1.0000 0.18400  0.18260  0.10640  Biso   1.000  Cl
  Cl7      1.0000 0.31600  0.68260  0.39360  Biso   1.000  Cl
  Cl8      1.0000 0.81600  0.18260  0.39360  Biso   1.000  Cl
  S1       1.0000 0.50000  0.23260  0.25000  Biso   1.000  S
  S2       1.0000 0.00000  0.73260  0.25000  Biso   1.000  S
  S3       1.0000 0.50000  0.76740  0.75000  Biso   1.000  S
  S4       1.0000 0.00000  0.26740  0.75000  Biso   1.000  S
  S5       1.0000 0.25690  0.40180  0.22640  Biso   1.000  S
  S6       1.0000 0.75690  0.90180  0.22640  Biso   1.000  S
  S7       1.0000 0.74310  0.40180  0.27360  Biso   1.000  S
  S8       1.0000 0.24310  0.90180  0.27360  Biso   1.000  S
  S9       1.0000 0.74310  0.59820  0.77360  Biso   1.000  S
  S10      1.0000 0.24310  0.09820  0.77360  Biso   1.000  S
  S11      1.0000 0.25690  0.59820  0.72640  Biso   1.000  S
  S12      1.0000 0.75690  0.09820  0.72640  Biso   1.000  S
  C1       1.0000 0.48100  0.15520  0.37350  Biso   1.000  C
  C2       1.0000 0.98100  0.65520  0.37350  Biso   1.000  C
  C3       1.0000 0.51900  0.15520  0.12650  Biso   1.000  C
  C4       1.0000 0.01900  0.65520  0.12650  Biso   1.000  C
  C5       1.0000 0.51900  0.84480  0.62650  Biso   1.000  C
  C6       1.0000 0.01900  0.34480  0.62650  Biso   1.000  C
  C7       1.0000 0.48100  0.84480  0.87350  Biso   1.000  C
  C8       1.0000 0.98100  0.34480  0.87350  Biso   1.000  C
  C9       1.0000 0.51500  0.07340  0.32610  Biso   1.000  C
  C10      1.0000 0.01500  0.57340  0.32610  Biso   1.000  C
  C11      1.0000 0.48500  0.07340  0.17390  Biso   1.000  C
  C12      1.0000 0.98500  0.57340  0.17390  Biso   1.000  C
  C13      1.0000 0.48500  0.92660  0.67390  Biso   1.000  C
  C14      1.0000 0.98500  0.42660  0.67390  Biso   1.000  C
  C15      1.0000 0.51500  0.92660  0.82610  Biso   1.000  C
  C16      1.0000 0.01500  0.42660  0.82610  Biso   1.000  C
  C17      1.0000 0.37650  0.43430  0.35200  Biso   1.000  C
  C18      1.0000 0.87650  0.93430  0.35200  Biso   1.000  C
  C19      1.0000 0.62350  0.43430  0.14800  Biso   1.000  C
  C20      1.0000 0.12350  0.93430  0.14800  Biso   1.000  C
  C21      1.0000 0.62350  0.56570  0.64800  Biso   1.000  C
  C22      1.0000 0.12350  0.06570  0.64800  Biso   1.000  C
  C23      1.0000 0.37650  0.56570  0.85200  Biso   1.000  C
  C24      1.0000 0.87650  0.06570  0.85200  Biso   1.000  C
  C25      1.0000 0.37200  0.41500  0.50100  Biso   1.000  C
  C26      1.0000 0.87200  0.91500  0.50100  Biso   1.000  C
  C27      1.0000 0.62800  0.41500  0.99900  Biso   1.000  C
  C28      1.0000 0.12800  0.91500  0.99900  Biso   1.000  C
  C29      1.0000 0.62800  0.58500  0.49900  Biso   1.000  C
  C30      1.0000 0.12800  0.08500  0.49900  Biso   1.000  C
  C31      1.0000 0.37200  0.58500  0.00100  Biso   1.000  C
  C32      1.0000 0.87200  0.08500  0.00100  Biso   1.000  C
  C33      1.0000 0.28500  0.36900  0.48700  Biso   1.000  C
  C34      1.0000 0.78500  0.86900  0.48700  Biso   1.000  C
  C35      1.0000 0.71500  0.36900  0.01300  Biso   1.000  C
  C36      1.0000 0.21500  0.86900  0.01300  Biso   1.000  C
  C37      1.0000 0.71500  0.63100  0.51300  Biso   1.000  C
  C38      1.0000 0.21500  0.13100  0.51300  Biso   1.000  C
  C39      1.0000 0.28500  0.63100  0.98700  Biso   1.000  C
  C40      1.0000 0.78500  0.13100  0.98700  Biso   1.000  C
  C41      1.0000 0.19700  0.36100  0.35300  Biso   1.000  C
  C42      1.0000 0.69700  0.86100  0.35300  Biso   1.000  C
  C43      1.0000 0.80300  0.36100  0.14700  Biso   1.000  C
  C44      1.0000 0.30300  0.86100  0.14700  Biso   1.000  C
  C45      1.0000 0.80300  0.63900  0.64700  Biso   1.000  C
  C46      1.0000 0.30300  0.13900  0.64700  Biso   1.000  C
  C47      1.0000 0.19700  0.63900  0.85300  Biso   1.000  C
  C48      1.0000 0.69700  0.13900  0.85300  Biso   1.000  C
  H1       1.0000 0.40200  0.15400  0.36600  Biso   1.000  H
  H2       1.0000 0.90200  0.65400  0.36600  Biso   1.000  H
  H3       1.0000 0.59800  0.15400  0.13400  Biso   1.000  H
  H4       1.0000 0.09800  0.65400  0.13400  Biso   1.000  H
  H5       1.0000 0.59800  0.84600  0.63400  Biso   1.000  H
  H6       1.0000 0.09800  0.34600  0.63400  Biso   1.000  H
  H7       1.0000 0.40200  0.84600  0.86600  Biso   1.000  H
  H8       1.0000 0.90200  0.34600  0.86600  Biso   1.000  H
  H9       1.0000 0.53000  0.16800  0.47200  Biso   1.000  H
  H10      1.0000 0.03000  0.66800  0.47200  Biso   1.000  H
  H11      1.0000 0.47000  0.16800  0.02800  Biso   1.000  H
  H12      1.0000 0.97000  0.66800  0.02800  Biso   1.000  H
  H13      1.0000 0.47000  0.83200  0.52800  Biso   1.000  H
  H14      1.0000 0.97000  0.33200  0.52800  Biso   1.000  H
  H15      1.0000 0.53000  0.83200  0.97200  Biso   1.000  H
  H16      1.0000 0.03000  0.33200  0.97200  Biso   1.000  H
  H17      1.0000 0.47600  0.02900  0.35300  Biso   1.000  H
  H18      1.0000 0.97600  0.52900  0.35300  Biso   1.000  H
  H19      1.0000 0.52400  0.02900  0.14700  Biso   1.000  H
  H20      1.0000 0.02400  0.52900  0.14700  Biso   1.000  H
  H21      1.0000 0.52400  0.97100  0.64700  Biso   1.000  H
  H22      1.0000 0.02400  0.47100  0.64700  Biso   1.000  H
  H23      1.0000 0.47600  0.97100  0.85300  Biso   1.000  H
  H24      1.0000 0.97600  0.47100  0.85300  Biso   1.000  H
  H25      1.0000 0.59700  0.06600  0.37200  Biso   1.000  H
  H26      1.0000 0.09700  0.56600  0.37200  Biso   1.000  H
  H27      1.0000 0.40300  0.06600  0.12800  Biso   1.000  H
  H28      1.0000 0.90300  0.56600  0.12800  Biso   1.000  H
  H29      1.0000 0.40300  0.93400  0.62800  Biso   1.000  H
  H30      1.0000 0.90300  0.43400  0.62800  Biso   1.000  H
  H31      1.0000 0.59700  0.93400  0.87200  Biso   1.000  H
  H32      1.0000 0.09700  0.43400  0.87200  Biso   1.000  H
  H33      1.0000 0.38400  0.49300  0.34200  Biso   1.000  H
  H34      1.0000 0.88400  0.99300  0.34200  Biso   1.000  H
  H35      1.0000 0.61600  0.49300  0.15800  Biso   1.000  H
  H36      1.0000 0.11600  0.99300  0.15800  Biso   1.000  H
  H37      1.0000 0.61600  0.50700  0.65800  Biso   1.000  H
  H38      1.0000 0.11600  0.00700  0.65800  Biso   1.000  H
  H39      1.0000 0.38400  0.50700  0.84200  Biso   1.000  H
  H40      1.0000 0.88400  0.00700  0.84200  Biso   1.000  H
  H41      1.0000 0.44100  0.40600  0.34100  Biso   1.000  H
  H42      1.0000 0.94100  0.90600  0.34100  Biso   1.000  H
  H43      1.0000 0.55900  0.40600  0.15900  Biso   1.000  H
  H44      1.0000 0.05900  0.90600  0.15900  Biso   1.000  H
  H45      1.0000 0.55900  0.59400  0.65900  Biso   1.000  H
  H46      1.0000 0.05900  0.09400  0.65900  Biso   1.000  H
  H47      1.0000 0.44100  0.59400  0.84100  Biso   1.000  H
  H48      1.0000 0.94100  0.09400  0.84100  Biso   1.000  H
  H49      1.0000 0.36600  0.46600  0.54800  Biso   1.000  H
  H50      1.0000 0.86600  0.96600  0.54800  Biso   1.000  H
  H51      1.0000 0.63400  0.46600  0.95200  Biso   1.000  H
  H52      1.0000 0.13400  0.96600  0.95200  Biso   1.000  H
  H53      1.0000 0.63400  0.53400  0.45200  Biso   1.000  H
  H54      1.0000 0.13400  0.03400  0.45200  Biso   1.000  H
  H55      1.0000 0.36600  0.53400  0.04800  Biso   1.000  H
  H56      1.0000 0.86600  0.03400  0.04800  Biso   1.000  H
  H57      1.0000 0.44100  0.38600  0.55900  Biso   1.000  H
  H58      1.0000 0.94100  0.88600  0.55900  Biso   1.000  H
  H59      1.0000 0.55900  0.38600  0.94100  Biso   1.000  H
  H60      1.0000 0.05900  0.88600  0.94100  Biso   1.000  H
  H61      1.0000 0.55900  0.61400  0.44100  Biso   1.000  H
  H62      1.0000 0.05900  0.11400  0.44100  Biso   1.000  H
  H63      1.0000 0.44100  0.61400  0.05900  Biso   1.000  H
  H64      1.0000 0.94100  0.11400  0.05900  Biso   1.000  H
  H65      1.0000 0.31400  0.31500  0.51700  Biso   1.000  H
  H66      1.0000 0.81400  0.81500  0.51700  Biso   1.000  H
  H67      1.0000 0.68600  0.31500  0.98300  Biso   1.000  H
  H68      1.0000 0.18600  0.81500  0.98300  Biso   1.000  H
  H69      1.0000 0.68600  0.68500  0.48300  Biso   1.000  H
  H70      1.0000 0.18600  0.18500  0.48300  Biso   1.000  H
  H71      1.0000 0.31400  0.68500  0.01700  Biso   1.000  H
  H72      1.0000 0.81400  0.18500  0.01700  Biso   1.000  H
  H73      1.0000 0.25000  0.39100  0.55200  Biso   1.000  H
  H74      1.0000 0.75000  0.89100  0.55200  Biso   1.000  H
  H75      1.0000 0.75000  0.39100  0.94800  Biso   1.000  H
  H76      1.0000 0.25000  0.89100  0.94800  Biso   1.000  H
  H77      1.0000 0.75000  0.60900  0.44800  Biso   1.000  H
  H78      1.0000 0.25000  0.10900  0.44800  Biso   1.000  H
  H79      1.0000 0.25000  0.60900  0.05200  Biso   1.000  H
  H80      1.0000 0.75000  0.10900  0.05200  Biso   1.000  H
  H81      1.0000 0.17500  0.30400  0.33300  Biso   1.000  H
  H82      1.0000 0.67500  0.80400  0.33300  Biso   1.000  H
  H83      1.0000 0.82500  0.30400  0.16700  Biso   1.000  H
  H84      1.0000 0.32500  0.80400  0.16700  Biso   1.000  H
  H85      1.0000 0.82500  0.69600  0.66700  Biso   1.000  H
  H86      1.0000 0.32500  0.19600  0.66700  Biso   1.000  H
  H87      1.0000 0.17500  0.69600  0.83300  Biso   1.000  H
  H88      1.0000 0.67500  0.19600  0.83300  Biso   1.000  H
  H89      1.0000 0.13000  0.39200  0.35000  Biso   1.000  H
  H90      1.0000 0.63000  0.89200  0.35000  Biso   1.000  H
  H91      1.0000 0.87000  0.39200  0.15000  Biso   1.000  H
  H92      1.0000 0.37000  0.89200  0.15000  Biso   1.000  H
  H93      1.0000 0.87000  0.60800  0.65000  Biso   1.000  H
  H94      1.0000 0.37000  0.10800  0.65000  Biso   1.000  H
  H95      1.0000 0.13000  0.60800  0.85000  Biso   1.000  H
  H96      1.0000 0.63000  0.10800  0.85000  Biso   1.000  H
