data_image0
_cell_length_a       11.596
_cell_length_b       16.387
_cell_length_c       10.151
_cell_angle_alpha    90
_cell_angle_beta     109.44
_cell_angle_gamma    90

_symmetry_space_group_name_H-M    "P 1"
_symmetry_int_tables_number       1

loop_
  _symmetry_equiv_pos_as_xyz
  'x, y, z'

loop_
  _atom_site_label
  _atom_site_occupancy
  _atom_site_fract_x
  _atom_site_fract_y
  _atom_site_fract_z
  _atom_site_thermal_displace_type
  _atom_site_B_iso_or_equiv
  _atom_site_type_symbol
  Cu1      1.0000 0.18708  0.21213  0.37411  Biso   1.000  Cu
  Cu2      1.0000 0.68708  0.71213  0.37411  Biso   1.000  Cu
  Cu3      1.0000 0.81292  0.21213  0.12589  Biso   1.000  Cu
  Cu4      1.0000 0.31292  0.71213  0.12589  Biso   1.000  Cu
  Cu5      1.0000 0.81292  0.78787  0.62589  Biso   1.000  Cu
  Cu6      1.0000 0.31292  0.28787  0.62589  Biso   1.000  Cu
  Cu7      1.0000 0.18708  0.78787  0.87411  Biso   1.000  Cu
  Cu8      1.0000 0.68708  0.28787  0.87411  Biso   1.000  Cu
  Br1      1.0000 0.34215  0.32321  0.40199  Biso   1.000  Br
  Br2      1.0000 0.84215  0.82321  0.40199  Biso   1.000  Br
  Br3      1.0000 0.65785  0.32321  0.09801  Biso   1.000  Br
  Br4      1.0000 0.15785  0.82321  0.09801  Biso   1.000  Br
  Br5      1.0000 0.65785  0.67679  0.59801  Biso   1.000  Br
  Br6      1.0000 0.15785  0.17679  0.59801  Biso   1.000  Br
  Br7      1.0000 0.34215  0.67679  0.90199  Biso   1.000  Br
  Br8      1.0000 0.84215  0.17679  0.90199  Biso   1.000  Br
  S1       1.0000 0.00000  0.27233  0.25000  Biso   1.000  S
  S2       1.0000 0.50000  0.77233  0.25000  Biso   1.000  S
  S3       1.0000 0.00000  0.72767  0.75000  Biso   1.000  S
  S4       1.0000 0.50000  0.22767  0.75000  Biso   1.000  S
  S5       1.0000 0.26300  0.10395  0.28680  Biso   1.000  S
  S6       1.0000 0.76300  0.60395  0.28680  Biso   1.000  S
  S7       1.0000 0.73700  0.10395  0.21320  Biso   1.000  S
  S8       1.0000 0.23700  0.60395  0.21320  Biso   1.000  S
  S9       1.0000 0.73700  0.89605  0.71320  Biso   1.000  S
  S10      1.0000 0.23700  0.39605  0.71320  Biso   1.000  S
  S11      1.0000 0.26300  0.89605  0.78680  Biso   1.000  S
  S12      1.0000 0.76300  0.39605  0.78680  Biso   1.000  S
  C1       1.0000 0.02750  0.34830  0.13160  Biso   1.000  C
  C2       1.0000 0.52750  0.84830  0.13160  Biso   1.000  C
  C3       1.0000 0.97250  0.34830  0.36840  Biso   1.000  C
  C4       1.0000 0.47250  0.84830  0.36840  Biso   1.000  C
  C5       1.0000 0.97250  0.65170  0.86840  Biso   1.000  C
  C6       1.0000 0.47250  0.15170  0.86840  Biso   1.000  C
  C7       1.0000 0.02750  0.65170  0.63160  Biso   1.000  C
  C8       1.0000 0.52750  0.15170  0.63160  Biso   1.000  C
  C9       1.0000 0.98290  0.42935  0.17110  Biso   1.000  C
  C10      1.0000 0.48290  0.92935  0.17110  Biso   1.000  C
  C11      1.0000 0.01710  0.42935  0.32890  Biso   1.000  C
  C12      1.0000 0.51710  0.92935  0.32890  Biso   1.000  C
  C13      1.0000 0.01710  0.57065  0.82890  Biso   1.000  C
  C14      1.0000 0.51710  0.07065  0.82890  Biso   1.000  C
  C15      1.0000 0.98290  0.57065  0.67110  Biso   1.000  C
  C16      1.0000 0.48290  0.07065  0.67110  Biso   1.000  C
  C17      1.0000 0.13170  0.05177  0.16060  Biso   1.000  C
  C18      1.0000 0.63170  0.55177  0.16060  Biso   1.000  C
  C19      1.0000 0.86830  0.05177  0.33940  Biso   1.000  C
  C20      1.0000 0.36830  0.55177  0.33940  Biso   1.000  C
  C21      1.0000 0.86830  0.94823  0.83940  Biso   1.000  C
  C22      1.0000 0.36830  0.44823  0.83940  Biso   1.000  C
  C23      1.0000 0.13170  0.94823  0.66060  Biso   1.000  C
  C24      1.0000 0.63170  0.44823  0.66060  Biso   1.000  C
  C25      1.0000 0.14650  0.06288  0.01850  Biso   1.000  C
  C26      1.0000 0.64650  0.56288  0.01850  Biso   1.000  C
  C27      1.0000 0.85350  0.06288  0.48150  Biso   1.000  C
  C28      1.0000 0.35350  0.56288  0.48150  Biso   1.000  C
  C29      1.0000 0.85350  0.93712  0.98150  Biso   1.000  C
  C30      1.0000 0.35350  0.43712  0.98150  Biso   1.000  C
  C31      1.0000 0.14650  0.93712  0.51850  Biso   1.000  C
  C32      1.0000 0.64650  0.43712  0.51850  Biso   1.000  C
  C33      1.0000 0.20680  0.14539  0.02010  Biso   1.000  C
  C34      1.0000 0.70680  0.64539  0.02010  Biso   1.000  C
  C35      1.0000 0.79320  0.14539  0.47990  Biso   1.000  C
  C36      1.0000 0.29320  0.64539  0.47990  Biso   1.000  C
  C37      1.0000 0.79320  0.85461  0.97990  Biso   1.000  C
  C38      1.0000 0.29320  0.35461  0.97990  Biso   1.000  C
  C39      1.0000 0.20680  0.85461  0.52010  Biso   1.000  C
  C40      1.0000 0.70680  0.35461  0.52010  Biso   1.000  C
  C41      1.0000 0.31750  0.14698  0.15150  Biso   1.000  C
  C42      1.0000 0.81750  0.64698  0.15150  Biso   1.000  C
  C43      1.0000 0.68250  0.14698  0.34850  Biso   1.000  C
  C44      1.0000 0.18250  0.64698  0.34850  Biso   1.000  C
  C45      1.0000 0.68250  0.85302  0.84850  Biso   1.000  C
  C46      1.0000 0.18250  0.35302  0.84850  Biso   1.000  C
  C47      1.0000 0.31750  0.85302  0.65150  Biso   1.000  C
  C48      1.0000 0.81750  0.35302  0.65150  Biso   1.000  C
  H1       1.0000 0.11700  0.35400  0.15200  Biso   1.000  H
  H2       1.0000 0.61700  0.85400  0.15200  Biso   1.000  H
  H3       1.0000 0.88300  0.35400  0.34800  Biso   1.000  H
  H4       1.0000 0.38300  0.85400  0.34800  Biso   1.000  H
  H5       1.0000 0.88300  0.64600  0.84800  Biso   1.000  H
  H6       1.0000 0.38300  0.14600  0.84800  Biso   1.000  H
  H7       1.0000 0.11700  0.64600  0.65200  Biso   1.000  H
  H8       1.0000 0.61700  0.14600  0.65200  Biso   1.000  H
  H9       1.0000 0.98600  0.33100  0.03900  Biso   1.000  H
  H10      1.0000 0.48600  0.83100  0.03900  Biso   1.000  H
  H11      1.0000 0.01400  0.33100  0.46100  Biso   1.000  H
  H12      1.0000 0.51400  0.83100  0.46100  Biso   1.000  H
  H13      1.0000 0.01400  0.66900  0.96100  Biso   1.000  H
  H14      1.0000 0.51400  0.16900  0.96100  Biso   1.000  H
  H15      1.0000 0.98600  0.66900  0.53900  Biso   1.000  H
  H16      1.0000 0.48600  0.16900  0.53900  Biso   1.000  H
  H17      1.0000 0.01800  0.47600  0.13900  Biso   1.000  H
  H18      1.0000 0.51800  0.97600  0.13900  Biso   1.000  H
  H19      1.0000 0.98200  0.47600  0.36100  Biso   1.000  H
  H20      1.0000 0.48200  0.97600  0.36100  Biso   1.000  H
  H21      1.0000 0.98200  0.52400  0.86100  Biso   1.000  H
  H22      1.0000 0.48200  0.02400  0.86100  Biso   1.000  H
  H23      1.0000 0.01800  0.52400  0.63900  Biso   1.000  H
  H24      1.0000 0.51800  0.02400  0.63900  Biso   1.000  H
  H25      1.0000 0.90100  0.43200  0.13300  Biso   1.000  H
  H26      1.0000 0.40100  0.93200  0.13300  Biso   1.000  H
  H27      1.0000 0.09900  0.43200  0.36700  Biso   1.000  H
  H28      1.0000 0.59900  0.93200  0.36700  Biso   1.000  H
  H29      1.0000 0.09900  0.56800  0.86700  Biso   1.000  H
  H30      1.0000 0.59900  0.06800  0.86700  Biso   1.000  H
  H31      1.0000 0.90100  0.56800  0.63300  Biso   1.000  H
  H32      1.0000 0.40100  0.06800  0.63300  Biso   1.000  H
  H33      1.0000 0.14100  0.99400  0.18900  Biso   1.000  H
  H34      1.0000 0.64100  0.49400  0.18900  Biso   1.000  H
  H35      1.0000 0.85900  0.99400  0.31100  Biso   1.000  H
  H36      1.0000 0.35900  0.49400  0.31100  Biso   1.000  H
  H37      1.0000 0.85900  0.00600  0.81100  Biso   1.000  H
  H38      1.0000 0.35900  0.50600  0.81100  Biso   1.000  H
  H39      1.0000 0.14100  0.00600  0.68900  Biso   1.000  H
  H40      1.0000 0.64100  0.50600  0.68900  Biso   1.000  H
  H41      1.0000 0.05700  0.07600  0.16500  Biso   1.000  H
  H42      1.0000 0.55700  0.57600  0.16500  Biso   1.000  H
  H43      1.0000 0.94300  0.07600  0.33500  Biso   1.000  H
  H44      1.0000 0.44300  0.57600  0.33500  Biso   1.000  H
  H45      1.0000 0.94300  0.92400  0.83500  Biso   1.000  H
  H46      1.0000 0.44300  0.42400  0.83500  Biso   1.000  H
  H47      1.0000 0.05700  0.92400  0.66500  Biso   1.000  H
  H48      1.0000 0.55700  0.42400  0.66500  Biso   1.000  H
  H49      1.0000 0.20000  0.02100  0.00300  Biso   1.000  H
  H50      1.0000 0.70000  0.52100  0.00300  Biso   1.000  H
  H51      1.0000 0.80000  0.02100  0.49700  Biso   1.000  H
  H52      1.0000 0.30000  0.52100  0.49700  Biso   1.000  H
  H53      1.0000 0.80000  0.97900  0.99700  Biso   1.000  H
  H54      1.0000 0.30000  0.47900  0.99700  Biso   1.000  H
  H55      1.0000 0.20000  0.97900  0.50300  Biso   1.000  H
  H56      1.0000 0.70000  0.47900  0.50300  Biso   1.000  H
  H57      1.0000 0.06800  0.06000  0.94200  Biso   1.000  H
  H58      1.0000 0.56800  0.56000  0.94200  Biso   1.000  H
  H59      1.0000 0.93200  0.06000  0.55800  Biso   1.000  H
  H60      1.0000 0.43200  0.56000  0.55800  Biso   1.000  H
  H61      1.0000 0.93200  0.94000  0.05800  Biso   1.000  H
  H62      1.0000 0.43200  0.44000  0.05800  Biso   1.000  H
  H63      1.0000 0.06800  0.94000  0.44200  Biso   1.000  H
  H64      1.0000 0.56800  0.44000  0.44200  Biso   1.000  H
  H65      1.0000 0.22300  0.15600  0.93000  Biso   1.000  H
  H66      1.0000 0.72300  0.65600  0.93000  Biso   1.000  H
  H67      1.0000 0.77700  0.15600  0.57000  Biso   1.000  H
  H68      1.0000 0.27700  0.65600  0.57000  Biso   1.000  H
  H69      1.0000 0.77700  0.84400  0.07000  Biso   1.000  H
  H70      1.0000 0.27700  0.34400  0.07000  Biso   1.000  H
  H71      1.0000 0.22300  0.84400  0.43000  Biso   1.000  H
  H72      1.0000 0.72300  0.34400  0.43000  Biso   1.000  H
  H73      1.0000 0.14600  0.19000  0.02700  Biso   1.000  H
  H74      1.0000 0.64600  0.69000  0.02700  Biso   1.000  H
  H75      1.0000 0.85400  0.19000  0.47300  Biso   1.000  H
  H76      1.0000 0.35400  0.69000  0.47300  Biso   1.000  H
  H77      1.0000 0.85400  0.81000  0.97300  Biso   1.000  H
  H78      1.0000 0.35400  0.31000  0.97300  Biso   1.000  H
  H79      1.0000 0.14600  0.81000  0.52700  Biso   1.000  H
  H80      1.0000 0.64600  0.31000  0.52700  Biso   1.000  H
  H81      1.0000 0.38300  0.11100  0.14200  Biso   1.000  H
  H82      1.0000 0.88300  0.61100  0.14200  Biso   1.000  H
  H83      1.0000 0.61700  0.11100  0.35800  Biso   1.000  H
  H84      1.0000 0.11700  0.61100  0.35800  Biso   1.000  H
  H85      1.0000 0.61700  0.88900  0.85800  Biso   1.000  H
  H86      1.0000 0.11700  0.38900  0.85800  Biso   1.000  H
  H87      1.0000 0.38300  0.88900  0.64200  Biso   1.000  H
  H88      1.0000 0.88300  0.38900  0.64200  Biso   1.000  H
  H89      1.0000 0.35200  0.19800  0.18700  Biso   1.000  H
  H90      1.0000 0.85200  0.69800  0.18700  Biso   1.000  H
  H91      1.0000 0.64800  0.19800  0.31300  Biso   1.000  H
  H92      1.0000 0.14800  0.69800  0.31300  Biso   1.000  H
  H93      1.0000 0.64800  0.80200  0.81300  Biso   1.000  H
  H94      1.0000 0.14800  0.30200  0.81300  Biso   1.000  H
  H95      1.0000 0.35200  0.80200  0.68700  Biso   1.000  H
  H96      1.0000 0.85200  0.30200  0.68700  Biso   1.000  H
