data_image0
_cell_length_a       15.84
_cell_length_b       32.18
_cell_length_c       9.213
_cell_angle_alpha    90
_cell_angle_beta     90
_cell_angle_gamma    90

_symmetry_space_group_name_H-M    "P 1"
_symmetry_int_tables_number       1

loop_
  _symmetry_equiv_pos_as_xyz
  'x, y, z'

loop_
  _atom_site_label
  _atom_site_occupancy
  _atom_site_fract_x
  _atom_site_fract_y
  _atom_site_fract_z
  _atom_site_thermal_displace_type
  _atom_site_B_iso_or_equiv
  _atom_site_type_symbol
  Cu1      1.0000 0.61210  0.84615  0.25000  Biso   1.000  Cu
  Cu2      1.0000 0.38790  0.15385  0.25000  Biso   1.000  Cu
  Cu3      1.0000 0.63790  0.09615  0.50000  Biso   1.000  Cu
  Cu4      1.0000 0.36210  0.90385  0.50000  Biso   1.000  Cu
  Cu5      1.0000 0.61210  0.34615  0.75000  Biso   1.000  Cu
  Cu6      1.0000 0.11210  0.84615  0.75000  Biso   1.000  Cu
  Cu7      1.0000 0.11210  0.34615  0.25000  Biso   1.000  Cu
  Cu8      1.0000 0.38790  0.65385  0.75000  Biso   1.000  Cu
  Cu9      1.0000 0.88790  0.15385  0.75000  Biso   1.000  Cu
  Cu10     1.0000 0.88790  0.65385  0.25000  Biso   1.000  Cu
  Cu11     1.0000 0.63790  0.59615  0.00000  Biso   1.000  Cu
  Cu12     1.0000 0.13790  0.09615  0.00000  Biso   1.000  Cu
  Cu13     1.0000 0.13790  0.59615  0.50000  Biso   1.000  Cu
  Cu14     1.0000 0.36210  0.40385  0.00000  Biso   1.000  Cu
  Cu15     1.0000 0.86210  0.90385  0.00000  Biso   1.000  Cu
  Cu16     1.0000 0.86210  0.40385  0.50000  Biso   1.000  Cu
  C1       1.0000 0.70140  0.86540  0.13740  Biso   1.000  C
  C2       1.0000 0.29860  0.13460  0.13740  Biso   1.000  C
  C3       1.0000 0.54860  0.11540  0.38740  Biso   1.000  C
  C4       1.0000 0.45140  0.88460  0.38740  Biso   1.000  C
  C5       1.0000 0.70140  0.36540  0.63740  Biso   1.000  C
  C6       1.0000 0.20140  0.86540  0.63740  Biso   1.000  C
  C7       1.0000 0.20140  0.36540  0.13740  Biso   1.000  C
  C8       1.0000 0.29860  0.63460  0.63740  Biso   1.000  C
  C9       1.0000 0.79860  0.13460  0.63740  Biso   1.000  C
  C10      1.0000 0.79860  0.63460  0.13740  Biso   1.000  C
  C11      1.0000 0.54860  0.61540  0.88740  Biso   1.000  C
  C12      1.0000 0.04860  0.11540  0.88740  Biso   1.000  C
  C13      1.0000 0.04860  0.61540  0.38740  Biso   1.000  C
  C14      1.0000 0.45140  0.38460  0.88740  Biso   1.000  C
  C15      1.0000 0.95140  0.88460  0.88740  Biso   1.000  C
  C16      1.0000 0.95140  0.38460  0.38740  Biso   1.000  C
  N1       1.0000 0.76050  0.87950  0.07200  Biso   1.000  N
  N2       1.0000 0.23950  0.12050  0.07200  Biso   1.000  N
  N3       1.0000 0.48950  0.12950  0.32200  Biso   1.000  N
  N4       1.0000 0.51050  0.87050  0.32200  Biso   1.000  N
  N5       1.0000 0.76050  0.37950  0.57200  Biso   1.000  N
  N6       1.0000 0.26050  0.87950  0.57200  Biso   1.000  N
  N7       1.0000 0.26050  0.37950  0.07200  Biso   1.000  N
  N8       1.0000 0.23950  0.62050  0.57200  Biso   1.000  N
  N9       1.0000 0.73950  0.12050  0.57200  Biso   1.000  N
  N10      1.0000 0.73950  0.62050  0.07200  Biso   1.000  N
  N11      1.0000 0.48950  0.62950  0.82200  Biso   1.000  N
  N12      1.0000 0.98950  0.12950  0.82200  Biso   1.000  N
  N13      1.0000 0.98950  0.62950  0.32200  Biso   1.000  N
  N14      1.0000 0.51050  0.37050  0.82200  Biso   1.000  N
  N15      1.0000 0.01050  0.87050  0.82200  Biso   1.000  N
  N16      1.0000 0.01050  0.37050  0.32200  Biso   1.000  N
  N17      1.0000 0.58500  0.78400  0.19810  Biso   1.000  N
  N18      1.0000 0.41500  0.21600  0.19810  Biso   1.000  N
  N19      1.0000 0.66500  0.03400  0.44810  Biso   1.000  N
  N20      1.0000 0.33500  0.96600  0.44810  Biso   1.000  N
  N21      1.0000 0.58500  0.28400  0.69810  Biso   1.000  N
  N22      1.0000 0.08500  0.78400  0.69810  Biso   1.000  N
  N23      1.0000 0.08500  0.28400  0.19810  Biso   1.000  N
  N24      1.0000 0.41500  0.71600  0.69810  Biso   1.000  N
  N25      1.0000 0.91500  0.21600  0.69810  Biso   1.000  N
  N26      1.0000 0.91500  0.71600  0.19810  Biso   1.000  N
  N27      1.0000 0.66500  0.53400  0.94810  Biso   1.000  N
  N28      1.0000 0.16500  0.03400  0.94810  Biso   1.000  N
  N29      1.0000 0.16500  0.53400  0.44810  Biso   1.000  N
  N30      1.0000 0.33500  0.46600  0.94810  Biso   1.000  N
  N31      1.0000 0.83500  0.96600  0.94810  Biso   1.000  N
  N32      1.0000 0.83500  0.46600  0.44810  Biso   1.000  N
  C17      1.0000 0.52620  0.76410  0.26600  Biso   1.000  C
  C18      1.0000 0.47380  0.23590  0.26600  Biso   1.000  C
  C19      1.0000 0.72380  0.01410  0.51600  Biso   1.000  C
  C20      1.0000 0.27620  0.98590  0.51600  Biso   1.000  C
  C21      1.0000 0.52620  0.26410  0.76600  Biso   1.000  C
  C22      1.0000 0.02620  0.76410  0.76600  Biso   1.000  C
  C23      1.0000 0.02620  0.26410  0.26600  Biso   1.000  C
  C24      1.0000 0.47380  0.73590  0.76600  Biso   1.000  C
  C25      1.0000 0.97380  0.23590  0.76600  Biso   1.000  C
  C26      1.0000 0.97380  0.73590  0.26600  Biso   1.000  C
  C27      1.0000 0.72380  0.51410  0.01600  Biso   1.000  C
  C28      1.0000 0.22380  0.01410  0.01600  Biso   1.000  C
  C29      1.0000 0.22380  0.51410  0.51600  Biso   1.000  C
  C30      1.0000 0.27620  0.48590  0.01600  Biso   1.000  C
  C31      1.0000 0.77620  0.98590  0.01600  Biso   1.000  C
  C32      1.0000 0.77620  0.48590  0.51600  Biso   1.000  C
  C33      1.0000 0.51100  0.72240  0.25400  Biso   1.000  C
  C34      1.0000 0.48900  0.27760  0.25400  Biso   1.000  C
  C35      1.0000 0.73900  0.97240  0.50400  Biso   1.000  C
  C36      1.0000 0.26100  0.02760  0.50400  Biso   1.000  C
  C37      1.0000 0.51100  0.22240  0.75400  Biso   1.000  C
  C38      1.0000 0.01100  0.72240  0.75400  Biso   1.000  C
  C39      1.0000 0.01100  0.22240  0.25400  Biso   1.000  C
  C40      1.0000 0.48900  0.77760  0.75400  Biso   1.000  C
  C41      1.0000 0.98900  0.27760  0.75400  Biso   1.000  C
  C42      1.0000 0.98900  0.77760  0.25400  Biso   1.000  C
  C43      1.0000 0.73900  0.47240  0.00400  Biso   1.000  C
  C44      1.0000 0.23900  0.97240  0.00400  Biso   1.000  C
  C45      1.0000 0.23900  0.47240  0.50400  Biso   1.000  C
  C46      1.0000 0.26100  0.52760  0.00400  Biso   1.000  C
  C47      1.0000 0.76100  0.02760  0.00400  Biso   1.000  C
  C48      1.0000 0.76100  0.52760  0.50400  Biso   1.000  C
  C49      1.0000 0.55600  0.70150  0.16600  Biso   1.000  C
  C50      1.0000 0.44400  0.29850  0.16600  Biso   1.000  C
  C51      1.0000 0.69400  0.95150  0.41600  Biso   1.000  C
  C52      1.0000 0.30600  0.04850  0.41600  Biso   1.000  C
  C53      1.0000 0.55600  0.20150  0.66600  Biso   1.000  C
  C54      1.0000 0.05600  0.70150  0.66600  Biso   1.000  C
  C55      1.0000 0.05600  0.20150  0.16600  Biso   1.000  C
  C56      1.0000 0.44400  0.79850  0.66600  Biso   1.000  C
  C57      1.0000 0.94400  0.29850  0.66600  Biso   1.000  C
  C58      1.0000 0.94400  0.79850  0.16600  Biso   1.000  C
  C59      1.0000 0.69400  0.45150  0.91600  Biso   1.000  C
  C60      1.0000 0.19400  0.95150  0.91600  Biso   1.000  C
  C61      1.0000 0.19400  0.45150  0.41600  Biso   1.000  C
  C62      1.0000 0.30600  0.54850  0.91600  Biso   1.000  C
  C63      1.0000 0.80600  0.04850  0.91600  Biso   1.000  C
  C64      1.0000 0.80600  0.54850  0.41600  Biso   1.000  C
  C65      1.0000 0.61500  0.71920  0.08500  Biso   1.000  C
  C66      1.0000 0.38500  0.28080  0.08500  Biso   1.000  C
  C67      1.0000 0.63500  0.96920  0.33500  Biso   1.000  C
  C68      1.0000 0.36500  0.03080  0.33500  Biso   1.000  C
  C69      1.0000 0.61500  0.21920  0.58500  Biso   1.000  C
  C70      1.0000 0.11500  0.71920  0.58500  Biso   1.000  C
  C71      1.0000 0.11500  0.21920  0.08500  Biso   1.000  C
  C72      1.0000 0.38500  0.78080  0.58500  Biso   1.000  C
  C73      1.0000 0.88500  0.28080  0.58500  Biso   1.000  C
  C74      1.0000 0.88500  0.78080  0.08500  Biso   1.000  C
  C75      1.0000 0.63500  0.46920  0.83500  Biso   1.000  C
  C76      1.0000 0.13500  0.96920  0.83500  Biso   1.000  C
  C77      1.0000 0.13500  0.46920  0.33500  Biso   1.000  C
  C78      1.0000 0.36500  0.53080  0.83500  Biso   1.000  C
  C79      1.0000 0.86500  0.03080  0.83500  Biso   1.000  C
  C80      1.0000 0.86500  0.53080  0.33500  Biso   1.000  C
  C81      1.0000 0.63060  0.76150  0.11200  Biso   1.000  C
  C82      1.0000 0.36940  0.23850  0.11200  Biso   1.000  C
  C83      1.0000 0.61940  0.01150  0.36200  Biso   1.000  C
  C84      1.0000 0.38060  0.98850  0.36200  Biso   1.000  C
  C85      1.0000 0.63060  0.26150  0.61200  Biso   1.000  C
  C86      1.0000 0.13060  0.76150  0.61200  Biso   1.000  C
  C87      1.0000 0.13060  0.26150  0.11200  Biso   1.000  C
  C88      1.0000 0.36940  0.73850  0.61200  Biso   1.000  C
  C89      1.0000 0.86940  0.23850  0.61200  Biso   1.000  C
  C90      1.0000 0.86940  0.73850  0.11200  Biso   1.000  C
  C91      1.0000 0.61940  0.51150  0.86200  Biso   1.000  C
  C92      1.0000 0.11940  0.01150  0.86200  Biso   1.000  C
  C93      1.0000 0.11940  0.51150  0.36200  Biso   1.000  C
  C94      1.0000 0.38060  0.48850  0.86200  Biso   1.000  C
  C95      1.0000 0.88060  0.98850  0.86200  Biso   1.000  C
  C96      1.0000 0.88060  0.48850  0.36200  Biso   1.000  C
  N33      1.0000 0.68120  0.83090  0.45650  Biso   1.000  N
  N34      1.0000 0.31880  0.16910  0.45650  Biso   1.000  N
  N35      1.0000 0.56880  0.08090  0.70650  Biso   1.000  N
  N36      1.0000 0.43120  0.91910  0.70650  Biso   1.000  N
  N37      1.0000 0.68120  0.33090  0.95650  Biso   1.000  N
  N38      1.0000 0.18120  0.83090  0.95650  Biso   1.000  N
  N39      1.0000 0.18120  0.33090  0.45650  Biso   1.000  N
  N40      1.0000 0.31880  0.66910  0.95650  Biso   1.000  N
  N41      1.0000 0.81880  0.16910  0.95650  Biso   1.000  N
  N42      1.0000 0.81880  0.66910  0.45650  Biso   1.000  N
  N43      1.0000 0.56880  0.58090  0.20650  Biso   1.000  N
  N44      1.0000 0.06880  0.08090  0.20650  Biso   1.000  N
  N45      1.0000 0.06880  0.58090  0.70650  Biso   1.000  N
  N46      1.0000 0.43120  0.41910  0.20650  Biso   1.000  N
  N47      1.0000 0.93120  0.91910  0.20650  Biso   1.000  N
  N48      1.0000 0.93120  0.41910  0.70650  Biso   1.000  N
  C97      1.0000 0.65600  0.84800  0.57500  Biso   1.000  C
  C98      1.0000 0.34400  0.15200  0.57500  Biso   1.000  C
  C99      1.0000 0.59400  0.09800  0.82500  Biso   1.000  C
  C100     1.0000 0.40600  0.90200  0.82500  Biso   1.000  C
  C101     1.0000 0.65600  0.34800  0.07500  Biso   1.000  C
  C102     1.0000 0.15600  0.84800  0.07500  Biso   1.000  C
  C103     1.0000 0.15600  0.34800  0.57500  Biso   1.000  C
  C104     1.0000 0.34400  0.65200  0.07500  Biso   1.000  C
  C105     1.0000 0.84400  0.15200  0.07500  Biso   1.000  C
  C106     1.0000 0.84400  0.65200  0.57500  Biso   1.000  C
  C107     1.0000 0.59400  0.59800  0.32500  Biso   1.000  C
  C108     1.0000 0.09400  0.09800  0.32500  Biso   1.000  C
  C109     1.0000 0.09400  0.59800  0.82500  Biso   1.000  C
  C110     1.0000 0.40600  0.40200  0.32500  Biso   1.000  C
  C111     1.0000 0.90600  0.90200  0.32500  Biso   1.000  C
  C112     1.0000 0.90600  0.40200  0.82500  Biso   1.000  C
  C113     1.0000 0.69800  0.84550  0.68400  Biso   1.000  C
  C114     1.0000 0.30200  0.15450  0.68400  Biso   1.000  C
  C115     1.0000 0.55200  0.09550  0.93400  Biso   1.000  C
  C116     1.0000 0.44800  0.90450  0.93400  Biso   1.000  C
  C117     1.0000 0.69800  0.34550  0.18400  Biso   1.000  C
  C118     1.0000 0.19800  0.84550  0.18400  Biso   1.000  C
  C119     1.0000 0.19800  0.34550  0.68400  Biso   1.000  C
  C120     1.0000 0.30200  0.65450  0.18400  Biso   1.000  C
  C121     1.0000 0.80200  0.15450  0.18400  Biso   1.000  C
  C122     1.0000 0.80200  0.65450  0.68400  Biso   1.000  C
  C123     1.0000 0.55200  0.59550  0.43400  Biso   1.000  C
  C124     1.0000 0.05200  0.09550  0.43400  Biso   1.000  C
  C125     1.0000 0.05200  0.59550  0.93400  Biso   1.000  C
  C126     1.0000 0.44800  0.40450  0.43400  Biso   1.000  C
  C127     1.0000 0.94800  0.90450  0.43400  Biso   1.000  C
  C128     1.0000 0.94800  0.40450  0.93400  Biso   1.000  C
  C129     1.0000 0.77400  0.82900  0.69300  Biso   1.000  C
  C130     1.0000 0.22600  0.17100  0.69300  Biso   1.000  C
  C131     1.0000 0.47600  0.07900  0.94300  Biso   1.000  C
  C132     1.0000 0.52400  0.92100  0.94300  Biso   1.000  C
  C133     1.0000 0.77400  0.32900  0.19300  Biso   1.000  C
  C134     1.0000 0.27400  0.82900  0.19300  Biso   1.000  C
  C135     1.0000 0.27400  0.32900  0.69300  Biso   1.000  C
  C136     1.0000 0.22600  0.67100  0.19300  Biso   1.000  C
  C137     1.0000 0.72600  0.17100  0.19300  Biso   1.000  C
  C138     1.0000 0.72600  0.67100  0.69300  Biso   1.000  C
  C139     1.0000 0.47600  0.57900  0.44300  Biso   1.000  C
  C140     1.0000 0.97600  0.07900  0.44300  Biso   1.000  C
  C141     1.0000 0.97600  0.57900  0.94300  Biso   1.000  C
  C142     1.0000 0.52400  0.42100  0.44300  Biso   1.000  C
  C143     1.0000 0.02400  0.92100  0.44300  Biso   1.000  C
  C144     1.0000 0.02400  0.42100  0.94300  Biso   1.000  C
  C145     1.0000 0.80600  0.80730  0.58300  Biso   1.000  C
  C146     1.0000 0.19400  0.19270  0.58300  Biso   1.000  C
  C147     1.0000 0.44400  0.05730  0.83300  Biso   1.000  C
  C148     1.0000 0.55600  0.94270  0.83300  Biso   1.000  C
  C149     1.0000 0.80600  0.30730  0.08300  Biso   1.000  C
  C150     1.0000 0.30600  0.80730  0.08300  Biso   1.000  C
  C151     1.0000 0.30600  0.30730  0.58300  Biso   1.000  C
  C152     1.0000 0.19400  0.69270  0.08300  Biso   1.000  C
  C153     1.0000 0.69400  0.19270  0.08300  Biso   1.000  C
  C154     1.0000 0.69400  0.69270  0.58300  Biso   1.000  C
  C155     1.0000 0.44400  0.55730  0.33300  Biso   1.000  C
  C156     1.0000 0.94400  0.05730  0.33300  Biso   1.000  C
  C157     1.0000 0.94400  0.55730  0.83300  Biso   1.000  C
  C158     1.0000 0.55600  0.44270  0.33300  Biso   1.000  C
  C159     1.0000 0.05600  0.94270  0.33300  Biso   1.000  C
  C160     1.0000 0.05600  0.44270  0.83300  Biso   1.000  C
  C161     1.0000 0.75380  0.81110  0.45700  Biso   1.000  C
  C162     1.0000 0.24620  0.18890  0.45700  Biso   1.000  C
  C163     1.0000 0.49620  0.06110  0.70700  Biso   1.000  C
  C164     1.0000 0.50380  0.93890  0.70700  Biso   1.000  C
  C165     1.0000 0.75380  0.31110  0.95700  Biso   1.000  C
  C166     1.0000 0.25380  0.81110  0.95700  Biso   1.000  C
  C167     1.0000 0.25380  0.31110  0.45700  Biso   1.000  C
  C168     1.0000 0.24620  0.68890  0.95700  Biso   1.000  C
  C169     1.0000 0.74620  0.18890  0.95700  Biso   1.000  C
  C170     1.0000 0.74620  0.68890  0.45700  Biso   1.000  C
  C171     1.0000 0.49620  0.56110  0.20700  Biso   1.000  C
  C172     1.0000 0.99620  0.06110  0.20700  Biso   1.000  C
  C173     1.0000 0.99620  0.56110  0.70700  Biso   1.000  C
  C174     1.0000 0.50380  0.43890  0.20700  Biso   1.000  C
  C175     1.0000 0.00380  0.93890  0.20700  Biso   1.000  C
  C176     1.0000 0.00380  0.43890  0.70700  Biso   1.000  C
  H1       1.0000 0.48931  0.78029  0.32684  Biso   1.000  H
  H2       1.0000 0.51069  0.21971  0.32684  Biso   1.000  H
  H3       1.0000 0.76069  0.03029  0.57684  Biso   1.000  H
  H4       1.0000 0.23931  0.96971  0.57684  Biso   1.000  H
  H5       1.0000 0.48931  0.28029  0.82684  Biso   1.000  H
  H6       1.0000 0.98931  0.78029  0.82684  Biso   1.000  H
  H7       1.0000 0.98931  0.28029  0.32684  Biso   1.000  H
  H8       1.0000 0.51069  0.71971  0.82684  Biso   1.000  H
  H9       1.0000 0.01069  0.21971  0.82684  Biso   1.000  H
  H10      1.0000 0.01069  0.71971  0.32684  Biso   1.000  H
  H11      1.0000 0.76069  0.53029  0.07684  Biso   1.000  H
  H12      1.0000 0.26069  0.03029  0.07684  Biso   1.000  H
  H13      1.0000 0.26069  0.53029  0.57684  Biso   1.000  H
  H14      1.0000 0.23931  0.46971  0.07684  Biso   1.000  H
  H15      1.0000 0.73931  0.96971  0.07684  Biso   1.000  H
  H16      1.0000 0.73931  0.46971  0.57684  Biso   1.000  H
  H17      1.0000 0.46887  0.70779  0.31307  Biso   1.000  H
  H18      1.0000 0.53113  0.29221  0.31307  Biso   1.000  H
  H19      1.0000 0.78113  0.95779  0.56307  Biso   1.000  H
  H20      1.0000 0.21887  0.04221  0.56307  Biso   1.000  H
  H21      1.0000 0.46887  0.20779  0.81307  Biso   1.000  H
  H22      1.0000 0.96887  0.70779  0.81307  Biso   1.000  H
  H23      1.0000 0.96887  0.20779  0.31307  Biso   1.000  H
  H24      1.0000 0.53113  0.79221  0.81307  Biso   1.000  H
  H25      1.0000 0.03113  0.29221  0.81307  Biso   1.000  H
  H26      1.0000 0.03113  0.79221  0.31307  Biso   1.000  H
  H27      1.0000 0.78113  0.45779  0.06307  Biso   1.000  H
  H28      1.0000 0.28113  0.95779  0.06307  Biso   1.000  H
  H29      1.0000 0.28113  0.45779  0.56307  Biso   1.000  H
  H30      1.0000 0.21887  0.54221  0.06307  Biso   1.000  H
  H31      1.0000 0.71887  0.04221  0.06307  Biso   1.000  H
  H32      1.0000 0.71887  0.54221  0.56307  Biso   1.000  H
  H33      1.0000 0.54623  0.67146  0.15097  Biso   1.000  H
  H34      1.0000 0.45377  0.32854  0.15097  Biso   1.000  H
  H35      1.0000 0.70377  0.92146  0.40097  Biso   1.000  H
  H36      1.0000 0.29623  0.07854  0.40097  Biso   1.000  H
  H37      1.0000 0.54623  0.17146  0.65097  Biso   1.000  H
  H38      1.0000 0.04623  0.67146  0.65097  Biso   1.000  H
  H39      1.0000 0.04623  0.17146  0.15097  Biso   1.000  H
  H40      1.0000 0.45377  0.82854  0.65097  Biso   1.000  H
  H41      1.0000 0.95377  0.32854  0.65097  Biso   1.000  H
  H42      1.0000 0.95377  0.82854  0.15097  Biso   1.000  H
  H43      1.0000 0.70377  0.42146  0.90097  Biso   1.000  H
  H44      1.0000 0.20377  0.92146  0.90097  Biso   1.000  H
  H45      1.0000 0.20377  0.42146  0.40097  Biso   1.000  H
  H46      1.0000 0.29623  0.57854  0.90097  Biso   1.000  H
  H47      1.0000 0.79623  0.07854  0.90097  Biso   1.000  H
  H48      1.0000 0.79623  0.57854  0.40097  Biso   1.000  H
  H49      1.0000 0.64880  0.70402  0.01033  Biso   1.000  H
  H50      1.0000 0.35120  0.29598  0.01033  Biso   1.000  H
  H51      1.0000 0.60120  0.95402  0.26033  Biso   1.000  H
  H52      1.0000 0.39880  0.04598  0.26033  Biso   1.000  H
  H53      1.0000 0.64880  0.20402  0.51033  Biso   1.000  H
  H54      1.0000 0.14880  0.70402  0.51033  Biso   1.000  H
  H55      1.0000 0.14880  0.20402  0.01033  Biso   1.000  H
  H56      1.0000 0.35120  0.79598  0.51033  Biso   1.000  H
  H57      1.0000 0.85120  0.29598  0.51033  Biso   1.000  H
  H58      1.0000 0.85120  0.79598  0.01033  Biso   1.000  H
  H59      1.0000 0.60120  0.45402  0.76033  Biso   1.000  H
  H60      1.0000 0.10120  0.95402  0.76033  Biso   1.000  H
  H61      1.0000 0.10120  0.45402  0.26033  Biso   1.000  H
  H62      1.0000 0.39880  0.54598  0.76033  Biso   1.000  H
  H63      1.0000 0.89880  0.04598  0.76033  Biso   1.000  H
  H64      1.0000 0.89880  0.54598  0.26033  Biso   1.000  H
  H65      1.0000 0.67689  0.77616  0.05775  Biso   1.000  H
  H66      1.0000 0.32311  0.22384  0.05775  Biso   1.000  H
  H67      1.0000 0.57311  0.02616  0.30775  Biso   1.000  H
  H68      1.0000 0.42689  0.97384  0.30775  Biso   1.000  H
  H69      1.0000 0.67689  0.27616  0.55775  Biso   1.000  H
  H70      1.0000 0.17689  0.77616  0.55775  Biso   1.000  H
  H71      1.0000 0.17689  0.27616  0.05775  Biso   1.000  H
  H72      1.0000 0.32311  0.72384  0.55775  Biso   1.000  H
  H73      1.0000 0.82311  0.22384  0.55775  Biso   1.000  H
  H74      1.0000 0.82311  0.72384  0.05775  Biso   1.000  H
  H75      1.0000 0.57311  0.52616  0.80775  Biso   1.000  H
  H76      1.0000 0.07311  0.02616  0.80775  Biso   1.000  H
  H77      1.0000 0.07311  0.52616  0.30775  Biso   1.000  H
  H78      1.0000 0.42689  0.47384  0.80775  Biso   1.000  H
  H79      1.0000 0.92689  0.97384  0.80775  Biso   1.000  H
  H80      1.0000 0.92689  0.47384  0.30775  Biso   1.000  H
  H81      1.0000 0.60481  0.86360  0.58561  Biso   1.000  H
  H82      1.0000 0.39519  0.13640  0.58561  Biso   1.000  H
  H83      1.0000 0.64519  0.11360  0.83561  Biso   1.000  H
  H84      1.0000 0.35481  0.88640  0.83561  Biso   1.000  H
  H85      1.0000 0.60481  0.36360  0.08561  Biso   1.000  H
  H86      1.0000 0.10481  0.86360  0.08561  Biso   1.000  H
  H87      1.0000 0.10481  0.36360  0.58561  Biso   1.000  H
  H88      1.0000 0.39519  0.63640  0.08561  Biso   1.000  H
  H89      1.0000 0.89519  0.13640  0.08561  Biso   1.000  H
  H90      1.0000 0.89519  0.63640  0.58561  Biso   1.000  H
  H91      1.0000 0.64519  0.61360  0.33561  Biso   1.000  H
  H92      1.0000 0.14519  0.11360  0.33561  Biso   1.000  H
  H93      1.0000 0.14519  0.61360  0.83561  Biso   1.000  H
  H94      1.0000 0.35481  0.38640  0.33561  Biso   1.000  H
  H95      1.0000 0.85481  0.88640  0.33561  Biso   1.000  H
  H96      1.0000 0.85481  0.38640  0.83561  Biso   1.000  H
  H97      1.0000 0.68613  0.85779  0.77633  Biso   1.000  H
  H98      1.0000 0.31387  0.14221  0.77633  Biso   1.000  H
  H99      1.0000 0.56387  0.10779  0.02633  Biso   1.000  H
  H100     1.0000 0.43613  0.89221  0.02633  Biso   1.000  H
  H101     1.0000 0.68613  0.35779  0.27633  Biso   1.000  H
  H102     1.0000 0.18613  0.85779  0.27633  Biso   1.000  H
  H103     1.0000 0.18613  0.35779  0.77633  Biso   1.000  H
  H104     1.0000 0.31387  0.64221  0.27633  Biso   1.000  H
  H105     1.0000 0.81387  0.14221  0.27633  Biso   1.000  H
  H106     1.0000 0.81387  0.64221  0.77633  Biso   1.000  H
  H107     1.0000 0.56387  0.60779  0.52633  Biso   1.000  H
  H108     1.0000 0.06387  0.10779  0.52633  Biso   1.000  H
  H109     1.0000 0.06387  0.60779  0.02633  Biso   1.000  H
  H110     1.0000 0.43613  0.39221  0.52633  Biso   1.000  H
  H111     1.0000 0.93613  0.89221  0.52633  Biso   1.000  H
  H112     1.0000 0.93613  0.39221  0.02633  Biso   1.000  H
  H113     1.0000 0.81503  0.82887  0.76775  Biso   1.000  H
  H114     1.0000 0.18497  0.17113  0.76775  Biso   1.000  H
  H115     1.0000 0.43497  0.07887  0.01775  Biso   1.000  H
  H116     1.0000 0.56503  0.92113  0.01775  Biso   1.000  H
  H117     1.0000 0.81503  0.32887  0.26775  Biso   1.000  H
  H118     1.0000 0.31503  0.82887  0.26775  Biso   1.000  H
  H119     1.0000 0.31503  0.32887  0.76775  Biso   1.000  H
  H120     1.0000 0.18497  0.67113  0.26775  Biso   1.000  H
  H121     1.0000 0.68497  0.17113  0.26775  Biso   1.000  H
  H122     1.0000 0.68497  0.67113  0.76775  Biso   1.000  H
  H123     1.0000 0.43497  0.57887  0.51775  Biso   1.000  H
  H124     1.0000 0.93497  0.07887  0.51775  Biso   1.000  H
  H125     1.0000 0.93497  0.57887  0.01775  Biso   1.000  H
  H126     1.0000 0.56503  0.42113  0.51775  Biso   1.000  H
  H127     1.0000 0.06503  0.92113  0.51775  Biso   1.000  H
  H128     1.0000 0.06503  0.42113  0.01775  Biso   1.000  H
  H129     1.0000 0.86005  0.78893  0.57475  Biso   1.000  H
  H130     1.0000 0.13995  0.21107  0.57475  Biso   1.000  H
  H131     1.0000 0.38995  0.03893  0.82475  Biso   1.000  H
  H132     1.0000 0.61005  0.96107  0.82475  Biso   1.000  H
  H133     1.0000 0.86005  0.28893  0.07475  Biso   1.000  H
  H134     1.0000 0.36005  0.78893  0.07475  Biso   1.000  H
  H135     1.0000 0.36005  0.28893  0.57475  Biso   1.000  H
  H136     1.0000 0.13995  0.71107  0.07475  Biso   1.000  H
  H137     1.0000 0.63995  0.21107  0.07475  Biso   1.000  H
  H138     1.0000 0.63995  0.71107  0.57475  Biso   1.000  H
  H139     1.0000 0.38995  0.53893  0.32475  Biso   1.000  H
  H140     1.0000 0.88995  0.03893  0.32475  Biso   1.000  H
  H141     1.0000 0.88995  0.53893  0.82475  Biso   1.000  H
  H142     1.0000 0.61005  0.46107  0.32475  Biso   1.000  H
  H143     1.0000 0.11005  0.96107  0.32475  Biso   1.000  H
  H144     1.0000 0.11005  0.46107  0.82475  Biso   1.000  H
  H145     1.0000 0.77080  0.79740  0.36348  Biso   1.000  H
  H146     1.0000 0.22920  0.20260  0.36348  Biso   1.000  H
  H147     1.0000 0.47920  0.04740  0.61348  Biso   1.000  H
  H148     1.0000 0.52080  0.95260  0.61348  Biso   1.000  H
  H149     1.0000 0.77080  0.29740  0.86348  Biso   1.000  H
  H150     1.0000 0.27080  0.79740  0.86348  Biso   1.000  H
  H151     1.0000 0.27080  0.29740  0.36348  Biso   1.000  H
  H152     1.0000 0.22920  0.70260  0.86348  Biso   1.000  H
  H153     1.0000 0.72920  0.20260  0.86348  Biso   1.000  H
  H154     1.0000 0.72920  0.70260  0.36348  Biso   1.000  H
  H155     1.0000 0.47920  0.54740  0.11348  Biso   1.000  H
  H156     1.0000 0.97920  0.04740  0.11348  Biso   1.000  H
  H157     1.0000 0.97920  0.54740  0.61348  Biso   1.000  H
  H158     1.0000 0.52080  0.45260  0.11348  Biso   1.000  H
  H159     1.0000 0.02080  0.95260  0.11348  Biso   1.000  H
  H160     1.0000 0.02080  0.45260  0.61348  Biso   1.000  H
