data_image0
_cell_length_a       9.082
_cell_length_b       31.835
_cell_length_c       9
_cell_angle_alpha    90
_cell_angle_beta     119.44
_cell_angle_gamma    90

_symmetry_space_group_name_H-M    "P 1"
_symmetry_int_tables_number       1

loop_
  _symmetry_equiv_pos_as_xyz
  'x, y, z'

loop_
  _atom_site_label
  _atom_site_occupancy
  _atom_site_fract_x
  _atom_site_fract_y
  _atom_site_fract_z
  _atom_site_thermal_displace_type
  _atom_site_B_iso_or_equiv
  _atom_site_type_symbol
  Cu1      1.0000 0.75650  0.21950  0.35260  Biso   1.000  Cu
  Cu2      1.0000 0.25650  0.71950  0.35260  Biso   1.000  Cu
  Cu3      1.0000 0.75650  0.78050  0.85260  Biso   1.000  Cu
  Cu4      1.0000 0.25650  0.28050  0.85260  Biso   1.000  Cu
  N1       1.0000 0.92990  0.24640  0.56040  Biso   1.000  N
  N2       1.0000 0.42990  0.74640  0.56040  Biso   1.000  N
  N3       1.0000 0.92990  0.75360  0.06040  Biso   1.000  N
  N4       1.0000 0.42990  0.25360  0.06040  Biso   1.000  N
  N5       1.0000 0.90700  0.20650  0.22670  Biso   1.000  N
  N6       1.0000 0.40700  0.70650  0.22670  Biso   1.000  N
  N7       1.0000 0.90700  0.79350  0.72670  Biso   1.000  N
  N8       1.0000 0.40700  0.29350  0.72670  Biso   1.000  N
  N9       1.0000 0.76140  0.15700  0.42780  Biso   1.000  N
  N10      1.0000 0.26140  0.65700  0.42780  Biso   1.000  N
  N11      1.0000 0.76140  0.84300  0.92780  Biso   1.000  N
  N12      1.0000 0.26140  0.34300  0.92780  Biso   1.000  N
  C1       1.0000 0.04740  0.26050  0.67720  Biso   1.000  C
  C2       1.0000 0.54740  0.76050  0.67720  Biso   1.000  C
  C3       1.0000 0.04740  0.73950  0.17720  Biso   1.000  C
  C4       1.0000 0.54740  0.23950  0.17720  Biso   1.000  C
  C5       1.0000 0.83410  0.19140  0.07340  Biso   1.000  C
  C6       1.0000 0.33410  0.69140  0.07340  Biso   1.000  C
  C7       1.0000 0.83410  0.80860  0.57340  Biso   1.000  C
  C8       1.0000 0.33410  0.30860  0.57340  Biso   1.000  C
  C9       1.0000 0.91070  0.18790  0.97310  Biso   1.000  C
  C10      1.0000 0.41070  0.68790  0.97310  Biso   1.000  C
  C11      1.0000 0.91070  0.81210  0.47310  Biso   1.000  C
  C12      1.0000 0.41070  0.31210  0.47310  Biso   1.000  C
  C13      1.0000 0.07310  0.20350  0.03980  Biso   1.000  C
  C14      1.0000 0.57310  0.70350  0.03980  Biso   1.000  C
  C15      1.0000 0.07310  0.79650  0.53980  Biso   1.000  C
  C16      1.0000 0.57310  0.29650  0.53980  Biso   1.000  C
  C17      1.0000 0.15150  0.21960  0.19980  Biso   1.000  C
  C18      1.0000 0.65150  0.71960  0.19980  Biso   1.000  C
  C19      1.0000 0.15150  0.78040  0.69980  Biso   1.000  C
  C20      1.0000 0.65150  0.28040  0.69980  Biso   1.000  C
  C21      1.0000 0.06400  0.22060  0.28910  Biso   1.000  C
  C22      1.0000 0.56400  0.72060  0.28910  Biso   1.000  C
  C23      1.0000 0.06400  0.77940  0.78910  Biso   1.000  C
  C24      1.0000 0.56400  0.27940  0.78910  Biso   1.000  C
  C25      1.0000 0.64480  0.12940  0.32430  Biso   1.000  C
  C26      1.0000 0.14480  0.62940  0.32430  Biso   1.000  C
  C27      1.0000 0.64480  0.87060  0.82430  Biso   1.000  C
  C28      1.0000 0.14480  0.37060  0.82430  Biso   1.000  C
  C29      1.0000 0.66280  0.08590  0.35510  Biso   1.000  C
  C30      1.0000 0.16280  0.58590  0.35510  Biso   1.000  C
  C31      1.0000 0.66280  0.91410  0.85510  Biso   1.000  C
  C32      1.0000 0.16280  0.41410  0.85510  Biso   1.000  C
  C33      1.0000 0.80010  0.07180  0.49550  Biso   1.000  C
  C34      1.0000 0.30010  0.57180  0.49550  Biso   1.000  C
  C35      1.0000 0.80010  0.92820  0.99550  Biso   1.000  C
  C36      1.0000 0.30010  0.42820  0.99550  Biso   1.000  C
  C37      1.0000 0.92120  0.09930  0.60390  Biso   1.000  C
  C38      1.0000 0.42120  0.59930  0.60390  Biso   1.000  C
  C39      1.0000 0.92120  0.90070  0.10390  Biso   1.000  C
  C40      1.0000 0.42120  0.40070  0.10390  Biso   1.000  C
  C41      1.0000 0.89420  0.14190  0.56570  Biso   1.000  C
  C42      1.0000 0.39420  0.64190  0.56570  Biso   1.000  C
  C43      1.0000 0.89420  0.85810  0.06570  Biso   1.000  C
  C44      1.0000 0.39420  0.35810  0.06570  Biso   1.000  C
  Cu5      1.0000 0.07690  0.46710  0.29600  Biso   1.000  Cu
  Cu6      1.0000 0.57690  0.96710  0.29600  Biso   1.000  Cu
  Cu7      1.0000 0.07690  0.53290  0.79600  Biso   1.000  Cu
  Cu8      1.0000 0.57690  0.03290  0.79600  Biso   1.000  Cu
  N13      1.0000 0.03830  0.48960  0.47620  Biso   1.000  N
  N14      1.0000 0.53830  0.98960  0.47620  Biso   1.000  N
  N15      1.0000 0.03830  0.51040  0.97620  Biso   1.000  N
  N16      1.0000 0.53830  0.01040  0.97620  Biso   1.000  N
  N17      1.0000 0.98310  0.40580  0.25860  Biso   1.000  N
  N18      1.0000 0.48310  0.90580  0.25860  Biso   1.000  N
  N19      1.0000 0.98310  0.59420  0.75860  Biso   1.000  N
  N20      1.0000 0.48310  0.09420  0.75860  Biso   1.000  N
  N21      1.0000 0.34320  0.45220  0.45270  Biso   1.000  N
  N22      1.0000 0.84320  0.95220  0.45270  Biso   1.000  N
  N23      1.0000 0.34320  0.54780  0.95270  Biso   1.000  N
  N24      1.0000 0.84320  0.04780  0.95270  Biso   1.000  N
  C45      1.0000 0.04420  0.50590  0.59470  Biso   1.000  C
  C46      1.0000 0.54420  0.00590  0.59470  Biso   1.000  C
  C47      1.0000 0.04420  0.49410  0.09470  Biso   1.000  C
  C48      1.0000 0.54420  0.99410  0.09470  Biso   1.000  C
  C49      1.0000 0.00200  0.37940  0.15420  Biso   1.000  C
  C50      1.0000 0.50200  0.87940  0.15420  Biso   1.000  C
  C51      1.0000 0.00200  0.62060  0.65420  Biso   1.000  C
  C52      1.0000 0.50200  0.12060  0.65420  Biso   1.000  C
  C53      1.0000 0.95020  0.33780  0.13610  Biso   1.000  C
  C54      1.0000 0.45020  0.83780  0.13610  Biso   1.000  C
  C55      1.0000 0.95020  0.66220  0.63610  Biso   1.000  C
  C56      1.0000 0.45020  0.16220  0.63610  Biso   1.000  C
  C57      1.0000 0.87050  0.32330  0.22520  Biso   1.000  C
  C58      1.0000 0.37050  0.82330  0.22520  Biso   1.000  C
  C59      1.0000 0.87050  0.67670  0.72520  Biso   1.000  C
  C60      1.0000 0.37050  0.17670  0.72520  Biso   1.000  C
  C61      1.0000 0.85430  0.34980  0.32920  Biso   1.000  C
  C62      1.0000 0.35430  0.84980  0.32920  Biso   1.000  C
  C63      1.0000 0.85430  0.65020  0.82920  Biso   1.000  C
  C64      1.0000 0.35430  0.15020  0.82920  Biso   1.000  C
  C65      1.0000 0.91040  0.39120  0.34730  Biso   1.000  C
  C66      1.0000 0.41040  0.89120  0.34730  Biso   1.000  C
  C67      1.0000 0.91040  0.60880  0.84730  Biso   1.000  C
  C68      1.0000 0.41040  0.10880  0.84730  Biso   1.000  C
  C69      1.0000 0.39390  0.42760  0.59110  Biso   1.000  C
  C70      1.0000 0.89390  0.92760  0.59110  Biso   1.000  C
  C71      1.0000 0.39390  0.57240  0.09110  Biso   1.000  C
  C72      1.0000 0.89390  0.07240  0.09110  Biso   1.000  C
  C73      1.0000 0.55810  0.42470  0.71810  Biso   1.000  C
  C74      1.0000 0.05810  0.92470  0.71810  Biso   1.000  C
  C75      1.0000 0.55810  0.57530  0.21810  Biso   1.000  C
  C76      1.0000 0.05810  0.07530  0.21810  Biso   1.000  C
  C77      1.0000 0.67990  0.44780  0.70020  Biso   1.000  C
  C78      1.0000 0.17990  0.94780  0.70020  Biso   1.000  C
  C79      1.0000 0.67990  0.55220  0.20020  Biso   1.000  C
  C80      1.0000 0.17990  0.05220  0.20020  Biso   1.000  C
  C81      1.0000 0.63060  0.47240  0.55030  Biso   1.000  C
  C82      1.0000 0.13060  0.97240  0.55030  Biso   1.000  C
  C83      1.0000 0.63060  0.52760  0.05030  Biso   1.000  C
  C84      1.0000 0.13060  0.02760  0.05030  Biso   1.000  C
  C85      1.0000 0.46510  0.47320  0.44550  Biso   1.000  C
  C86      1.0000 0.96510  0.97320  0.44550  Biso   1.000  C
  C87      1.0000 0.46510  0.52680  0.94550  Biso   1.000  C
  C88      1.0000 0.96510  0.02680  0.94550  Biso   1.000  C
  H1       1.0000 0.72400  0.17930  0.03050  Biso   1.000  H
  H2       1.0000 0.22400  0.67930  0.03050  Biso   1.000  H
  H3       1.0000 0.72400  0.82070  0.53050  Biso   1.000  H
  H4       1.0000 0.22400  0.32070  0.53050  Biso   1.000  H
  H5       1.0000 0.85120  0.17760  0.85810  Biso   1.000  H
  H6       1.0000 0.35120  0.67760  0.85810  Biso   1.000  H
  H7       1.0000 0.85120  0.82240  0.35810  Biso   1.000  H
  H8       1.0000 0.35120  0.32240  0.35810  Biso   1.000  H
  H9       1.0000 0.13160  0.20170  0.97580  Biso   1.000  H
  H10      1.0000 0.63160  0.70170  0.97580  Biso   1.000  H
  H11      1.0000 0.13160  0.79830  0.47580  Biso   1.000  H
  H12      1.0000 0.63160  0.29830  0.47580  Biso   1.000  H
  H13      1.0000 0.26400  0.23060  0.24770  Biso   1.000  H
  H14      1.0000 0.76400  0.73060  0.24770  Biso   1.000  H
  H15      1.0000 0.26400  0.76940  0.74770  Biso   1.000  H
  H16      1.0000 0.76400  0.26940  0.74770  Biso   1.000  H
  H17      1.0000 0.12050  0.23190  0.40240  Biso   1.000  H
  H18      1.0000 0.62050  0.73190  0.40240  Biso   1.000  H
  H19      1.0000 0.12050  0.76810  0.90240  Biso   1.000  H
  H20      1.0000 0.62050  0.26810  0.90240  Biso   1.000  H
  H21      1.0000 0.54540  0.14030  0.22730  Biso   1.000  H
  H22      1.0000 0.04540  0.64030  0.22730  Biso   1.000  H
  H23      1.0000 0.54540  0.85970  0.72730  Biso   1.000  H
  H24      1.0000 0.04540  0.35970  0.72730  Biso   1.000  H
  H25      1.0000 0.57900  0.06680  0.27650  Biso   1.000  H
  H26      1.0000 0.07900  0.56680  0.27650  Biso   1.000  H
  H27      1.0000 0.57900  0.93320  0.77650  Biso   1.000  H
  H28      1.0000 0.07900  0.43320  0.77650  Biso   1.000  H
  H29      1.0000 0.81340  0.04210  0.51630  Biso   1.000  H
  H30      1.0000 0.31340  0.54210  0.51630  Biso   1.000  H
  H31      1.0000 0.81340  0.95790  0.01630  Biso   1.000  H
  H32      1.0000 0.31340  0.45790  0.01630  Biso   1.000  H
  H33      1.0000 0.01690  0.08930  0.70650  Biso   1.000  H
  H34      1.0000 0.51690  0.58930  0.70650  Biso   1.000  H
  H35      1.0000 0.01690  0.91070  0.20650  Biso   1.000  H
  H36      1.0000 0.51690  0.41070  0.20650  Biso   1.000  H
  H37      1.0000 0.97770  0.16170  0.63970  Biso   1.000  H
  H38      1.0000 0.47770  0.66170  0.63970  Biso   1.000  H
  H39      1.0000 0.97770  0.83830  0.13970  Biso   1.000  H
  H40      1.0000 0.47770  0.33830  0.13970  Biso   1.000  H
  H41      1.0000 0.05530  0.39020  0.09290  Biso   1.000  H
  H42      1.0000 0.55530  0.89020  0.09290  Biso   1.000  H
  H43      1.0000 0.05530  0.60980  0.59290  Biso   1.000  H
  H44      1.0000 0.55530  0.10980  0.59290  Biso   1.000  H
  H45      1.0000 0.96130  0.31980  0.05680  Biso   1.000  H
  H46      1.0000 0.46130  0.81980  0.05680  Biso   1.000  H
  H47      1.0000 0.96130  0.68020  0.55680  Biso   1.000  H
  H48      1.0000 0.46130  0.18020  0.55680  Biso   1.000  H
  H49      1.0000 0.83460  0.29470  0.21630  Biso   1.000  H
  H50      1.0000 0.33460  0.79470  0.21630  Biso   1.000  H
  H51      1.0000 0.83460  0.70530  0.71630  Biso   1.000  H
  H52      1.0000 0.33460  0.20530  0.71630  Biso   1.000  H
  H53      1.0000 0.80350  0.33990  0.39410  Biso   1.000  H
  H54      1.0000 0.30350  0.83990  0.39410  Biso   1.000  H
  H55      1.0000 0.80350  0.66010  0.89410  Biso   1.000  H
  H56      1.0000 0.30350  0.16010  0.89410  Biso   1.000  H
  H57      1.0000 0.89570  0.40930  0.42400  Biso   1.000  H
  H58      1.0000 0.39570  0.90930  0.42400  Biso   1.000  H
  H59      1.0000 0.89570  0.59070  0.92400  Biso   1.000  H
  H60      1.0000 0.39570  0.09070  0.92400  Biso   1.000  H
  H61      1.0000 0.30990  0.41120  0.59960  Biso   1.000  H
  H62      1.0000 0.80990  0.91120  0.59960  Biso   1.000  H
  H63      1.0000 0.30990  0.58880  0.09960  Biso   1.000  H
  H64      1.0000 0.80990  0.08880  0.09960  Biso   1.000  H
  H65      1.0000 0.59150  0.40740  0.81680  Biso   1.000  H
  H66      1.0000 0.09150  0.90740  0.81680  Biso   1.000  H
  H67      1.0000 0.59150  0.59260  0.31680  Biso   1.000  H
  H68      1.0000 0.09150  0.09260  0.31680  Biso   1.000  H
  H69      1.0000 0.79620  0.44700  0.78780  Biso   1.000  H
  H70      1.0000 0.29620  0.94700  0.78780  Biso   1.000  H
  H71      1.0000 0.79620  0.55300  0.28780  Biso   1.000  H
  H72      1.0000 0.29620  0.05300  0.28780  Biso   1.000  H
  H73      1.0000 0.71700  0.48700  0.53930  Biso   1.000  H
  H74      1.0000 0.21700  0.98700  0.53930  Biso   1.000  H
  H75      1.0000 0.71700  0.51300  0.03930  Biso   1.000  H
  H76      1.0000 0.21700  0.01300  0.03930  Biso   1.000  H
  H77      1.0000 0.43410  0.49040  0.34680  Biso   1.000  H
  H78      1.0000 0.93410  0.99040  0.34680  Biso   1.000  H
  H79      1.0000 0.43410  0.50960  0.84680  Biso   1.000  H
  H80      1.0000 0.93410  0.00960  0.84680  Biso   1.000  H
