data_image0
_cell_length_a       4.0708
_cell_length_b       7.5386
_cell_length_c       28.2779
_cell_angle_alpha    90
_cell_angle_beta     90.88
_cell_angle_gamma    90

_symmetry_space_group_name_H-M    "P 1"
_symmetry_int_tables_number       1

loop_
  _symmetry_equiv_pos_as_xyz
  'x, y, z'

loop_
  _atom_site_label
  _atom_site_occupancy
  _atom_site_fract_x
  _atom_site_fract_y
  _atom_site_fract_z
  _atom_site_thermal_displace_type
  _atom_site_B_iso_or_equiv
  _atom_site_type_symbol
  I1       1.0000 0.27913  0.74136  0.48858  Biso   1.000  I
  I2       1.0000 0.72087  0.24136  0.01142  Biso   1.000  I
  I3       1.0000 0.72087  0.25864  0.51142  Biso   1.000  I
  I4       1.0000 0.27913  0.75864  0.98858  Biso   1.000  I
  Cu1      1.0000 0.22782  0.08662  0.47230  Biso   1.000  Cu
  Cu2      1.0000 0.77218  0.58662  0.02770  Biso   1.000  Cu
  Cu3      1.0000 0.77218  0.91338  0.52770  Biso   1.000  Cu
  Cu4      1.0000 0.22782  0.41338  0.97230  Biso   1.000  Cu
  N1       1.0000 0.11090  0.10760  0.40094  Biso   1.000  N
  N2       1.0000 0.88910  0.60760  0.09906  Biso   1.000  N
  N3       1.0000 0.88910  0.89240  0.59906  Biso   1.000  N
  N4       1.0000 0.11090  0.39240  0.90094  Biso   1.000  N
  C1       1.0000 0.94450  0.97320  0.38107  Biso   1.000  C
  C2       1.0000 0.05550  0.47320  0.11893  Biso   1.000  C
  C3       1.0000 0.05550  0.02680  0.61893  Biso   1.000  C
  C4       1.0000 0.94450  0.52680  0.88107  Biso   1.000  C
  C5       1.0000 0.16530  0.25290  0.37419  Biso   1.000  C
  C6       1.0000 0.83470  0.75290  0.12581  Biso   1.000  C
  C7       1.0000 0.83470  0.74710  0.62581  Biso   1.000  C
  C8       1.0000 0.16530  0.24710  0.87419  Biso   1.000  C
  H1       1.0000 0.90310  0.87290  0.39920  Biso   1.000  H
  H2       1.0000 0.09690  0.37290  0.10080  Biso   1.000  H
  H3       1.0000 0.09690  0.12710  0.60080  Biso   1.000  H
  H4       1.0000 0.90310  0.62710  0.89920  Biso   1.000  H
  C9       1.0000 0.83260  0.97730  0.33511  Biso   1.000  C
  C10      1.0000 0.16740  0.47730  0.16489  Biso   1.000  C
  C11      1.0000 0.16740  0.02270  0.66489  Biso   1.000  C
  C12      1.0000 0.83260  0.52270  0.83511  Biso   1.000  C
  C13      1.0000 0.05520  0.26280  0.32663  Biso   1.000  C
  C14      1.0000 0.94480  0.76280  0.17337  Biso   1.000  C
  C15      1.0000 0.94480  0.73720  0.67337  Biso   1.000  C
  C16      1.0000 0.05520  0.23720  0.82663  Biso   1.000  C
  N5       1.0000 0.32590  0.38710  0.39458  Biso   1.000  N
  N6       1.0000 0.67410  0.88710  0.10542  Biso   1.000  N
  N7       1.0000 0.67410  0.61290  0.60542  Biso   1.000  N
  N8       1.0000 0.32590  0.11290  0.89458  Biso   1.000  N
  C17      1.0000 0.88820  0.12490  0.30736  Biso   1.000  C
  C18      1.0000 0.11180  0.62490  0.19264  Biso   1.000  C
  C19      1.0000 0.11180  0.87510  0.69264  Biso   1.000  C
  C20      1.0000 0.88820  0.37510  0.80736  Biso   1.000  C
  N9       1.0000 0.65350  0.82720  0.31642  Biso   1.000  N
  N10      1.0000 0.34650  0.32720  0.18358  Biso   1.000  N
  N11      1.0000 0.34650  0.17280  0.68358  Biso   1.000  N
  N12      1.0000 0.65350  0.67280  0.81642  Biso   1.000  N
  H5       1.0000 0.09730  0.36340  0.30870  Biso   1.000  H
  H6       1.0000 0.90270  0.86340  0.19130  Biso   1.000  H
  H7       1.0000 0.90270  0.63660  0.69130  Biso   1.000  H
  H8       1.0000 0.09730  0.13660  0.80870  Biso   1.000  H
  H9       1.0000 0.39020  0.37900  0.42360  Biso   1.000  H
  H10      1.0000 0.60980  0.87900  0.07640  Biso   1.000  H
  H11      1.0000 0.60980  0.62100  0.57640  Biso   1.000  H
  H12      1.0000 0.39020  0.12100  0.92360  Biso   1.000  H
  H13      1.0000 0.36530  0.48190  0.37870  Biso   1.000  H
  H14      1.0000 0.63470  0.98190  0.12130  Biso   1.000  H
  H15      1.0000 0.63470  0.51810  0.62130  Biso   1.000  H
  H16      1.0000 0.36530  0.01810  0.87870  Biso   1.000  H
  H17      1.0000 0.81250  0.12920  0.27620  Biso   1.000  H
  H18      1.0000 0.18750  0.62920  0.22380  Biso   1.000  H
  H19      1.0000 0.18750  0.87080  0.72380  Biso   1.000  H
  H20      1.0000 0.81250  0.37080  0.77620  Biso   1.000  H
  O1       1.0000 0.61850  0.69660  0.34122  Biso   1.000  O
  O2       1.0000 0.38150  0.19660  0.15878  Biso   1.000  O
  O3       1.0000 0.38150  0.30340  0.65878  Biso   1.000  O
  O4       1.0000 0.61850  0.80340  0.84122  Biso   1.000  O
  O5       1.0000 0.53970  0.83670  0.27623  Biso   1.000  O
  O6       1.0000 0.46030  0.33670  0.22377  Biso   1.000  O
  O7       1.0000 0.46030  0.16330  0.72377  Biso   1.000  O
  O8       1.0000 0.53970  0.66330  0.77623  Biso   1.000  O
