data_image0
_cell_length_a       4.2284
_cell_length_b       14.3638
_cell_length_c       13.684
_cell_angle_alpha    90
_cell_angle_beta     95.241
_cell_angle_gamma    90

_symmetry_space_group_name_H-M    "P 1"
_symmetry_int_tables_number       1

loop_
  _symmetry_equiv_pos_as_xyz
  'x, y, z'

loop_
  _atom_site_label
  _atom_site_occupancy
  _atom_site_fract_x
  _atom_site_fract_y
  _atom_site_fract_z
  _atom_site_thermal_displace_type
  _atom_site_B_iso_or_equiv
  _atom_site_type_symbol
  I1       1.0000 0.75396  0.52445  0.14015  Biso   1.000  I
  I2       1.0000 0.74604  0.02445  0.35985  Biso   1.000  I
  I3       1.0000 0.24604  0.47555  0.85985  Biso   1.000  I
  I4       1.0000 0.25396  0.97555  0.64015  Biso   1.000  I
  Cu1      1.0000 0.23990  0.44689  0.05455  Biso   1.000  Cu
  Cu2      1.0000 0.26010  0.94689  0.44545  Biso   1.000  Cu
  Cu3      1.0000 0.76010  0.55311  0.94545  Biso   1.000  Cu
  Cu4      1.0000 0.73990  0.05311  0.55455  Biso   1.000  Cu
  N1       1.0000 0.59800  0.15160  0.91660  Biso   1.000  N
  N2       1.0000 0.90200  0.65160  0.58340  Biso   1.000  N
  N3       1.0000 0.40200  0.84840  0.08340  Biso   1.000  N
  N4       1.0000 0.09800  0.34840  0.41660  Biso   1.000  N
  O1       1.0000 0.47310  0.21110  0.86130  Biso   1.000  O
  O2       1.0000 0.02690  0.71110  0.63870  Biso   1.000  O
  O3       1.0000 0.52690  0.78890  0.13870  Biso   1.000  O
  O4       1.0000 0.97310  0.28890  0.36130  Biso   1.000  O
  C1       1.0000 0.16800  0.15330  0.13730  Biso   1.000  C
  C2       1.0000 0.33200  0.65330  0.36270  Biso   1.000  C
  C3       1.0000 0.83200  0.84670  0.86270  Biso   1.000  C
  C4       1.0000 0.66800  0.34670  0.63730  Biso   1.000  C
  H1       1.0000 0.26000  0.10400  0.18600  Biso   1.000  H
  H2       1.0000 0.24000  0.60400  0.31400  Biso   1.000  H
  H3       1.0000 0.74000  0.89600  0.81400  Biso   1.000  H
  H4       1.0000 0.76000  0.39600  0.68600  Biso   1.000  H
  N5       1.0000 0.48100  0.28280  0.20180  Biso   1.000  N
  N6       1.0000 0.01900  0.78280  0.29820  Biso   1.000  N
  N7       1.0000 0.51900  0.71720  0.79820  Biso   1.000  N
  N8       1.0000 0.98100  0.21720  0.70180  Biso   1.000  N
  H5       1.0000 0.57000  0.34300  0.20600  Biso   1.000  H
  H6       1.0000 0.93000  0.84300  0.29400  Biso   1.000  H
  H7       1.0000 0.43000  0.65700  0.79400  Biso   1.000  H
  H8       1.0000 0.07000  0.15700  0.70600  Biso   1.000  H
  H9       1.0000 0.53000  0.24300  0.24600  Biso   1.000  H
  H10      1.0000 0.97000  0.74300  0.25400  Biso   1.000  H
  H11      1.0000 0.47000  0.75700  0.75400  Biso   1.000  H
  H12      1.0000 0.03000  0.25700  0.74600  Biso   1.000  H
  C5       1.0000 0.82900  0.18190  0.99420  Biso   1.000  C
  C6       1.0000 0.67100  0.68190  0.50580  Biso   1.000  C
  C7       1.0000 0.17100  0.81810  0.00580  Biso   1.000  C
  C8       1.0000 0.32900  0.31810  0.49420  Biso   1.000  C
  C9       1.0000 0.26170  0.24700  0.13450  Biso   1.000  C
  C10      1.0000 0.23830  0.74700  0.36550  Biso   1.000  C
  C11      1.0000 0.73830  0.75300  0.86550  Biso   1.000  C
  C12      1.0000 0.76170  0.25300  0.63450  Biso   1.000  C
  C13      1.0000 0.95100  0.12180  0.06660  Biso   1.000  C
  C14      1.0000 0.54900  0.62180  0.43340  Biso   1.000  C
  C15      1.0000 0.04900  0.87820  0.93340  Biso   1.000  C
  C16      1.0000 0.45100  0.37820  0.56660  Biso   1.000  C
  H13      1.0000 0.91000  0.06700  0.06300  Biso   1.000  H
  H14      1.0000 0.59000  0.56700  0.43700  Biso   1.000  H
  H15      1.0000 0.09000  0.93300  0.93700  Biso   1.000  H
  H16      1.0000 0.41000  0.43300  0.56300  Biso   1.000  H
  N9       1.0000 0.14310  0.30750  0.06400  Biso   1.000  N
  N10      1.0000 0.35690  0.80750  0.43600  Biso   1.000  N
  N11      1.0000 0.85690  0.69250  0.93600  Biso   1.000  N
  N12      1.0000 0.64310  0.19250  0.56400  Biso   1.000  N
  C17      1.0000 0.92400  0.27250  0.99570  Biso   1.000  C
  C18      1.0000 0.57600  0.77250  0.50430  Biso   1.000  C
  C19      1.0000 0.07600  0.72750  0.00430  Biso   1.000  C
  C20      1.0000 0.42400  0.22750  0.49570  Biso   1.000  C
  H17      1.0000 0.85500  0.31400  0.95500  Biso   1.000  H
  H18      1.0000 0.64500  0.81400  0.54500  Biso   1.000  H
  H19      1.0000 0.14500  0.68600  0.04500  Biso   1.000  H
  H20      1.0000 0.35500  0.18600  0.45500  Biso   1.000  H
  O5       1.0000 0.53400  0.06900  0.91020  Biso   1.000  O
  O6       1.0000 0.96600  0.56900  0.58980  Biso   1.000  O
  O7       1.0000 0.46600  0.93100  0.08980  Biso   1.000  O
  O8       1.0000 0.03400  0.43100  0.41020  Biso   1.000  O
