data_image0
_cell_length_a       4.1982
_cell_length_b       14.3433
_cell_length_c       13.6017
_cell_angle_alpha    90
_cell_angle_beta     94.707
_cell_angle_gamma    90

_symmetry_space_group_name_H-M    "P 1"
_symmetry_int_tables_number       1

loop_
  _symmetry_equiv_pos_as_xyz
  'x, y, z'

loop_
  _atom_site_label
  _atom_site_occupancy
  _atom_site_fract_x
  _atom_site_fract_y
  _atom_site_fract_z
  _atom_site_thermal_displace_type
  _atom_site_B_iso_or_equiv
  _atom_site_type_symbol
  C1       1.0000 0.69430  0.91080  0.38520  Biso   1.000  C
  C2       1.0000 0.19430  0.08920  0.88520  Biso   1.000  C
  C3       1.0000 0.82640  0.84850  0.45530  Biso   1.000  C
  C4       1.0000 0.32640  0.15150  0.95530  Biso   1.000  C
  C5       1.0000 0.04160  0.88090  0.52500  Biso   1.000  C
  C6       1.0000 0.54160  0.11910  0.02500  Biso   1.000  C
  H1       1.0000 0.13620  0.83970  0.57370  Biso   1.000  H
  H2       1.0000 0.63620  0.16030  0.07370  Biso   1.000  H
  C7       1.0000 0.12830  0.97560  0.52650  Biso   1.000  C
  C8       1.0000 0.62830  0.02440  0.02650  Biso   1.000  C
  C9       1.0000 0.78490  0.00340  0.38930  Biso   1.000  C
  C10      1.0000 0.28490  0.99660  0.88930  Biso   1.000  C
  H3       1.0000 0.69010  0.04510  0.34110  Biso   1.000  H
  H4       1.0000 0.19010  0.95490  0.84110  Biso   1.000  H
  C11      1.0000 0.94060  0.45590  0.39990  Biso   1.000  C
  C12      1.0000 0.44060  0.54410  0.89990  Biso   1.000  C
  C13      1.0000 0.03870  0.54700  0.39850  Biso   1.000  C
  C14      1.0000 0.53870  0.45300  0.89850  Biso   1.000  C
  C15      1.0000 0.92060  0.60690  0.32520  Biso   1.000  C
  C16      1.0000 0.42060  0.39310  0.82520  Biso   1.000  C
  C17      1.0000 0.70130  0.57260  0.25470  Biso   1.000  C
  C18      1.0000 0.20130  0.42740  0.75470  Biso   1.000  C
  C19      1.0000 0.60440  0.47850  0.25820  Biso   1.000  C
  C20      1.0000 0.10440  0.52150  0.75820  Biso   1.000  C
  Cu1      1.0000 0.09163  0.17651  0.45540  Biso   1.000  Cu
  Cu2      1.0000 0.59163  0.82349  0.95540  Biso   1.000  Cu
  Cu3      1.0000 0.62418  0.28184  0.34643  Biso   1.000  Cu
  Cu4      1.0000 0.12418  0.71816  0.84643  Biso   1.000  Cu
  I1       1.0000 0.11143  0.20567  0.25787  Biso   1.000  I
  I2       1.0000 0.61143  0.79433  0.75787  Biso   1.000  I
  I3       1.0000 0.60652  0.25582  0.53936  Biso   1.000  I
  I4       1.0000 0.10652  0.74418  0.03936  Biso   1.000  I
  N1       1.0000 0.00000  0.03690  0.45820  Biso   1.000  N
  N2       1.0000 0.50000  0.96310  0.95820  Biso   1.000  N
  N3       1.0000 0.46140  0.87980  0.30590  Biso   1.000  N
  N4       1.0000 0.96140  0.12020  0.80590  Biso   1.000  N
  N5       1.0000 0.34690  0.00820  0.59490  Biso   1.000  N
  N6       1.0000 0.84690  0.99180  0.09490  Biso   1.000  N
  H5       1.0000 0.40260  0.06730  0.59450  Biso   1.000  H
  H6       1.0000 0.90260  0.93270  0.09450  Biso   1.000  H
  H7       1.0000 0.43520  0.97050  0.64040  Biso   1.000  H
  H8       1.0000 0.93520  0.02950  0.14040  Biso   1.000  H
  N7       1.0000 0.72410  0.42130  0.33150  Biso   1.000  N
  N8       1.0000 0.22410  0.57870  0.83150  Biso   1.000  N
  N9       1.0000 0.27260  0.57720  0.47550  Biso   1.000  N
  N10      1.0000 0.77260  0.42280  0.97550  Biso   1.000  N
  O1       1.0000 0.40810  0.79730  0.29900  Biso   1.000  O
  O2       1.0000 0.90810  0.20270  0.79900  Biso   1.000  O
  O3       1.0000 0.33150  0.93980  0.25150  Biso   1.000  O
  O4       1.0000 0.83150  0.06020  0.75150  Biso   1.000  O
  N11      1.0000 0.39060  0.44280  0.19160  Biso   1.000  N
  N12      1.0000 0.89060  0.55720  0.69160  Biso   1.000  N
  H9       1.0000 0.33190  0.38410  0.19610  Biso   1.000  H
  H10      1.0000 0.83190  0.61590  0.69610  Biso   1.000  H
  H11      1.0000 0.30720  0.47770  0.14280  Biso   1.000  H
  H12      1.0000 0.80720  0.52230  0.64280  Biso   1.000  H
  O5       1.0000 0.33720  0.65980  0.48190  Biso   1.000  O
  O6       1.0000 0.83720  0.34020  0.98190  Biso   1.000  O
  O7       1.0000 0.39310  0.51940  0.53250  Biso   1.000  O
  O8       1.0000 0.89310  0.48060  0.03250  Biso   1.000  O
  H13      1.0000 0.74800  0.78600  0.44500  Biso   1.000  H
  H14      1.0000 0.24800  0.21400  0.94500  Biso   1.000  H
  H15      1.0000 0.01800  0.42400  0.44500  Biso   1.000  H
  H16      1.0000 0.51800  0.57600  0.94500  Biso   1.000  H
  H17      1.0000 0.98600  0.66800  0.32500  Biso   1.000  H
  H18      1.0000 0.48600  0.33200  0.82500  Biso   1.000  H
  H19      1.0000 0.61100  0.60100  0.20700  Biso   1.000  H
  H20      1.0000 0.11100  0.39900  0.70700  Biso   1.000  H
