data_image0
_cell_length_a       29.26
_cell_length_b       11.458
_cell_length_c       20.714
_cell_angle_alpha    90
_cell_angle_beta     122.57
_cell_angle_gamma    90

_symmetry_space_group_name_H-M    "P 1"
_symmetry_int_tables_number       1

loop_
  _symmetry_equiv_pos_as_xyz
  'x, y, z'

loop_
  _atom_site_label
  _atom_site_occupancy
  _atom_site_fract_x
  _atom_site_fract_y
  _atom_site_fract_z
  _atom_site_thermal_displace_type
  _atom_site_B_iso_or_equiv
  _atom_site_type_symbol
  I1       1.0000 0.86945  0.17252  0.55987  Biso   1.000  I
  I2       1.0000 0.86945  0.82748  0.05987  Biso   1.000  I
  I3       1.0000 0.36945  0.67252  0.55987  Biso   1.000  I
  I4       1.0000 0.36945  0.32748  0.05987  Biso   1.000  I
  I5       1.0000 0.13055  0.82748  0.44013  Biso   1.000  I
  I6       1.0000 0.13055  0.17252  0.94013  Biso   1.000  I
  I7       1.0000 0.63055  0.32748  0.44013  Biso   1.000  I
  I8       1.0000 0.63055  0.67252  0.94013  Biso   1.000  I
  I9       1.0000 0.04447  0.22334  0.68539  Biso   1.000  I
  I10      1.0000 0.04447  0.77666  0.18539  Biso   1.000  I
  I11      1.0000 0.54447  0.72334  0.68539  Biso   1.000  I
  I12      1.0000 0.54447  0.27666  0.18539  Biso   1.000  I
  I13      1.0000 0.95553  0.77666  0.31461  Biso   1.000  I
  I14      1.0000 0.95553  0.22334  0.81461  Biso   1.000  I
  I15      1.0000 0.45553  0.27666  0.31461  Biso   1.000  I
  I16      1.0000 0.45553  0.72334  0.81461  Biso   1.000  I
  Pd1      1.0000 0.00000  0.90498  0.75000  Biso   1.000  Pd
  Pd2      1.0000 0.00000  0.09502  0.25000  Biso   1.000  Pd
  Pd3      1.0000 0.50000  0.40498  0.75000  Biso   1.000  Pd
  Pd4      1.0000 0.50000  0.59502  0.25000  Biso   1.000  Pd
  Cu1      1.0000 0.96047  0.09754  0.58332  Biso   1.000  Cu
  Cu2      1.0000 0.96047  0.90246  0.08332  Biso   1.000  Cu
  Cu3      1.0000 0.46047  0.59754  0.58332  Biso   1.000  Cu
  Cu4      1.0000 0.46047  0.40246  0.08332  Biso   1.000  Cu
  Cu5      1.0000 0.03953  0.90246  0.41668  Biso   1.000  Cu
  Cu6      1.0000 0.03953  0.09754  0.91668  Biso   1.000  Cu
  Cu7      1.0000 0.53953  0.40246  0.41668  Biso   1.000  Cu
  Cu8      1.0000 0.53953  0.59754  0.91668  Biso   1.000  Cu
  Cu9      1.0000 0.92335  0.10160  0.69627  Biso   1.000  Cu
  Cu10     1.0000 0.92335  0.89840  0.19627  Biso   1.000  Cu
  Cu11     1.0000 0.42335  0.60160  0.69627  Biso   1.000  Cu
  Cu12     1.0000 0.42335  0.39840  0.19627  Biso   1.000  Cu
  Cu13     1.0000 0.07665  0.89840  0.30373  Biso   1.000  Cu
  Cu14     1.0000 0.07665  0.10160  0.80373  Biso   1.000  Cu
  Cu15     1.0000 0.57665  0.39840  0.30373  Biso   1.000  Cu
  Cu16     1.0000 0.57665  0.60160  0.80373  Biso   1.000  Cu
  Cu17     1.0000 0.04440  0.15400  0.80120  Biso   1.000  Cu
  Cu18     1.0000 0.04440  0.84600  0.30120  Biso   1.000  Cu
  Cu19     1.0000 0.54440  0.65400  0.80120  Biso   1.000  Cu
  Cu20     1.0000 0.54440  0.34600  0.30120  Biso   1.000  Cu
  Cu21     1.0000 0.95560  0.84600  0.19880  Biso   1.000  Cu
  Cu22     1.0000 0.95560  0.15400  0.69880  Biso   1.000  Cu
  Cu23     1.0000 0.45560  0.34600  0.19880  Biso   1.000  Cu
  Cu24     1.0000 0.45560  0.65400  0.69880  Biso   1.000  Cu
  S1       1.0000 0.97958  0.90260  0.62614  Biso   1.000  S
  S2       1.0000 0.97958  0.09740  0.12614  Biso   1.000  S
  S3       1.0000 0.47958  0.40260  0.62614  Biso   1.000  S
  S4       1.0000 0.47958  0.59740  0.12614  Biso   1.000  S
  S5       1.0000 0.02042  0.09740  0.37386  Biso   1.000  S
  S6       1.0000 0.02042  0.90260  0.87386  Biso   1.000  S
  S7       1.0000 0.52042  0.59740  0.37386  Biso   1.000  S
  S8       1.0000 0.52042  0.40260  0.87386  Biso   1.000  S
  S9       1.0000 0.90871  0.90230  0.70464  Biso   1.000  S
  S10      1.0000 0.90871  0.09770  0.20464  Biso   1.000  S
  S11      1.0000 0.40871  0.40230  0.70464  Biso   1.000  S
  S12      1.0000 0.40871  0.59770  0.20464  Biso   1.000  S
  S13      1.0000 0.09129  0.09770  0.29536  Biso   1.000  S
  S14      1.0000 0.09129  0.90230  0.79536  Biso   1.000  S
  S15      1.0000 0.59129  0.59770  0.29536  Biso   1.000  S
  S16      1.0000 0.59129  0.40230  0.79536  Biso   1.000  S
  N1       1.0000 0.04420  0.89600  0.51610  Biso   1.000  N
  N2       1.0000 0.04420  0.10400  0.01610  Biso   1.000  N
  N3       1.0000 0.54420  0.39600  0.51610  Biso   1.000  N
  N4       1.0000 0.54420  0.60400  0.01610  Biso   1.000  N
  N5       1.0000 0.95580  0.10400  0.48390  Biso   1.000  N
  N6       1.0000 0.95580  0.89600  0.98390  Biso   1.000  N
  N7       1.0000 0.45580  0.60400  0.48390  Biso   1.000  N
  N8       1.0000 0.45580  0.39600  0.98390  Biso   1.000  N
  N9       1.0000 0.81560  0.87950  0.77090  Biso   1.000  N
  N10      1.0000 0.81560  0.12050  0.27090  Biso   1.000  N
  N11      1.0000 0.31560  0.37950  0.77090  Biso   1.000  N
  N12      1.0000 0.31560  0.62050  0.27090  Biso   1.000  N
  N13      1.0000 0.18440  0.12050  0.22910  Biso   1.000  N
  N14      1.0000 0.18440  0.87950  0.72910  Biso   1.000  N
  N15      1.0000 0.68440  0.62050  0.22910  Biso   1.000  N
  N16      1.0000 0.68440  0.37950  0.72910  Biso   1.000  N
  N17      1.0000 0.30980  0.01040  0.17800  Biso   1.000  N
  N18      1.0000 0.30980  0.98960  0.67800  Biso   1.000  N
  N19      1.0000 0.80980  0.51040  0.17800  Biso   1.000  N
  N20      1.0000 0.80980  0.48960  0.67800  Biso   1.000  N
  N21      1.0000 0.69020  0.98960  0.82200  Biso   1.000  N
  N22      1.0000 0.69020  0.01040  0.32200  Biso   1.000  N
  N23      1.0000 0.19020  0.48960  0.82200  Biso   1.000  N
  N24      1.0000 0.19020  0.51040  0.32200  Biso   1.000  N
  C1       1.0000 0.04430  0.89790  0.64080  Biso   1.000  C
  C2       1.0000 0.04430  0.10210  0.14080  Biso   1.000  C
  C3       1.0000 0.54430  0.39790  0.64080  Biso   1.000  C
  C4       1.0000 0.54430  0.60210  0.14080  Biso   1.000  C
  C5       1.0000 0.95570  0.10210  0.35920  Biso   1.000  C
  C6       1.0000 0.95570  0.89790  0.85920  Biso   1.000  C
  C7       1.0000 0.45570  0.60210  0.35920  Biso   1.000  C
  C8       1.0000 0.45570  0.39790  0.85920  Biso   1.000  C
  C9       1.0000 0.90920  0.89510  0.78960  Biso   1.000  C
  C10      1.0000 0.90920  0.10490  0.28960  Biso   1.000  C
  C11      1.0000 0.40920  0.39510  0.78960  Biso   1.000  C
  C12      1.0000 0.40920  0.60490  0.28960  Biso   1.000  C
  C13      1.0000 0.09080  0.10490  0.21040  Biso   1.000  C
  C14      1.0000 0.09080  0.89510  0.71040  Biso   1.000  C
  C15      1.0000 0.59080  0.60490  0.21040  Biso   1.000  C
  C16      1.0000 0.59080  0.39510  0.71040  Biso   1.000  C
  C17      1.0000 0.04550  0.89690  0.57230  Biso   1.000  C
  C18      1.0000 0.04550  0.10310  0.07230  Biso   1.000  C
  C19      1.0000 0.54550  0.39690  0.57230  Biso   1.000  C
  C20      1.0000 0.54550  0.60310  0.07230  Biso   1.000  C
  C21      1.0000 0.95450  0.10310  0.42770  Biso   1.000  C
  C22      1.0000 0.95450  0.89690  0.92770  Biso   1.000  C
  C23      1.0000 0.45450  0.60310  0.42770  Biso   1.000  C
  C24      1.0000 0.45450  0.39690  0.92770  Biso   1.000  C
  C25      1.0000 0.85710  0.88900  0.78010  Biso   1.000  C
  C26      1.0000 0.85710  0.11100  0.28010  Biso   1.000  C
  C27      1.0000 0.35710  0.38900  0.78010  Biso   1.000  C
  C28      1.0000 0.35710  0.61100  0.28010  Biso   1.000  C
  C29      1.0000 0.14290  0.11100  0.21990  Biso   1.000  C
  C30      1.0000 0.14290  0.88900  0.71990  Biso   1.000  C
  C31      1.0000 0.64290  0.61100  0.21990  Biso   1.000  C
  C32      1.0000 0.64290  0.38900  0.71990  Biso   1.000  C
  C33      1.0000 0.26020  0.94900  0.11410  Biso   1.000  C
  C34      1.0000 0.26020  0.05100  0.61410  Biso   1.000  C
  C35      1.0000 0.76020  0.44900  0.11410  Biso   1.000  C
  C36      1.0000 0.76020  0.55100  0.61410  Biso   1.000  C
  C37      1.0000 0.73980  0.05100  0.88590  Biso   1.000  C
  C38      1.0000 0.73980  0.94900  0.38590  Biso   1.000  C
  C39      1.0000 0.23980  0.55100  0.88590  Biso   1.000  C
  C40      1.0000 0.23980  0.44900  0.38590  Biso   1.000  C
  C41      1.0000 0.21970  0.92100  0.12590  Biso   1.000  C
  C42      1.0000 0.21970  0.07900  0.62590  Biso   1.000  C
  C43      1.0000 0.71970  0.42100  0.12590  Biso   1.000  C
  C44      1.0000 0.71970  0.57900  0.62590  Biso   1.000  C
  C45      1.0000 0.78030  0.07900  0.87410  Biso   1.000  C
  C46      1.0000 0.78030  0.92100  0.37410  Biso   1.000  C
  C47      1.0000 0.28030  0.57900  0.87410  Biso   1.000  C
  C48      1.0000 0.28030  0.42100  0.37410  Biso   1.000  C
  C49      1.0000 0.17430  0.84400  0.06230  Biso   1.000  C
  C50      1.0000 0.17430  0.15600  0.56230  Biso   1.000  C
  C51      1.0000 0.67430  0.34400  0.06230  Biso   1.000  C
  C52      1.0000 0.67430  0.65600  0.56230  Biso   1.000  C
  C53      1.0000 0.82570  0.15600  0.93770  Biso   1.000  C
  C54      1.0000 0.82570  0.84400  0.43770  Biso   1.000  C
  C55      1.0000 0.32570  0.65600  0.93770  Biso   1.000  C
  C56      1.0000 0.32570  0.34400  0.43770  Biso   1.000  C
  C57      1.0000 0.13800  0.80900  0.08200  Biso   1.000  C
  C58      1.0000 0.13800  0.19100  0.58200  Biso   1.000  C
  C59      1.0000 0.63800  0.30900  0.08200  Biso   1.000  C
  C60      1.0000 0.63800  0.69100  0.58200  Biso   1.000  C
  C61      1.0000 0.86200  0.19100  0.91800  Biso   1.000  C
  C62      1.0000 0.86200  0.80900  0.41800  Biso   1.000  C
  C63      1.0000 0.36200  0.69100  0.91800  Biso   1.000  C
  C64      1.0000 0.36200  0.30900  0.41800  Biso   1.000  C
  C65      1.0000 0.33590  0.93900  0.25330  Biso   1.000  C
  C66      1.0000 0.33590  0.06100  0.75330  Biso   1.000  C
  C67      1.0000 0.83590  0.43900  0.25330  Biso   1.000  C
  C68      1.0000 0.83590  0.56100  0.75330  Biso   1.000  C
  C69      1.0000 0.66410  0.06100  0.74670  Biso   1.000  C
  C70      1.0000 0.66410  0.93900  0.24670  Biso   1.000  C
  C71      1.0000 0.16410  0.56100  0.74670  Biso   1.000  C
  C72      1.0000 0.16410  0.43900  0.24670  Biso   1.000  C
  C73      1.0000 0.38470  0.97200  0.31940  Biso   1.000  C
  C74      1.0000 0.38470  0.02800  0.81940  Biso   1.000  C
  C75      1.0000 0.88470  0.47200  0.31940  Biso   1.000  C
  C76      1.0000 0.88470  0.52800  0.81940  Biso   1.000  C
  C77      1.0000 0.61530  0.02800  0.68060  Biso   1.000  C
  C78      1.0000 0.61530  0.97200  0.18060  Biso   1.000  C
  C79      1.0000 0.11530  0.52800  0.68060  Biso   1.000  C
  C80      1.0000 0.11530  0.47200  0.18060  Biso   1.000  C
  C81      1.0000 0.40000  0.90500  0.38780  Biso   1.000  C
  C82      1.0000 0.40000  0.09500  0.88780  Biso   1.000  C
  C83      1.0000 0.90000  0.40500  0.38780  Biso   1.000  C
  C84      1.0000 0.90000  0.59500  0.88780  Biso   1.000  C
  C85      1.0000 0.60000  0.09500  0.61220  Biso   1.000  C
  C86      1.0000 0.60000  0.90500  0.11220  Biso   1.000  C
  C87      1.0000 0.10000  0.59500  0.61220  Biso   1.000  C
  C88      1.0000 0.10000  0.40500  0.11220  Biso   1.000  C
  C89      1.0000 0.43600  0.92500  0.45000  Biso   1.000  C
  C90      1.0000 0.43600  0.07500  0.95000  Biso   1.000  C
  C91      1.0000 0.93600  0.42500  0.45000  Biso   1.000  C
  C92      1.0000 0.93600  0.57500  0.95000  Biso   1.000  C
  C93      1.0000 0.56400  0.07500  0.55000  Biso   1.000  C
  C94      1.0000 0.56400  0.92500  0.05000  Biso   1.000  C
  C95      1.0000 0.06400  0.57500  0.55000  Biso   1.000  C
  C96      1.0000 0.06400  0.42500  0.05000  Biso   1.000  C
  C97      1.0000 0.34890  0.02600  0.15110  Biso   1.000  C
  C98      1.0000 0.34890  0.97400  0.65110  Biso   1.000  C
  C99      1.0000 0.84890  0.52600  0.15110  Biso   1.000  C
  C100     1.0000 0.84890  0.47400  0.65110  Biso   1.000  C
  C101     1.0000 0.65110  0.97400  0.84890  Biso   1.000  C
  C102     1.0000 0.65110  0.02600  0.34890  Biso   1.000  C
  C103     1.0000 0.15110  0.47400  0.84890  Biso   1.000  C
  C104     1.0000 0.15110  0.52600  0.34890  Biso   1.000  C
  C105     1.0000 0.37730  0.93500  0.14200  Biso   1.000  C
  C106     1.0000 0.37730  0.06500  0.64200  Biso   1.000  C
  C107     1.0000 0.87730  0.43500  0.14200  Biso   1.000  C
  C108     1.0000 0.87730  0.56500  0.64200  Biso   1.000  C
  C109     1.0000 0.62270  0.06500  0.85800  Biso   1.000  C
  C110     1.0000 0.62270  0.93500  0.35800  Biso   1.000  C
  C111     1.0000 0.12270  0.56500  0.85800  Biso   1.000  C
  C112     1.0000 0.12270  0.43500  0.35800  Biso   1.000  C
  C113     1.0000 0.40900  0.95400  0.11200  Biso   1.000  C
  C114     1.0000 0.40900  0.04600  0.61200  Biso   1.000  C
  C115     1.0000 0.90900  0.45400  0.11200  Biso   1.000  C
  C116     1.0000 0.90900  0.54600  0.61200  Biso   1.000  C
  C117     1.0000 0.59100  0.04600  0.88800  Biso   1.000  C
  C118     1.0000 0.59100  0.95400  0.38800  Biso   1.000  C
  C119     1.0000 0.09100  0.54600  0.88800  Biso   1.000  C
  C120     1.0000 0.09100  0.45400  0.38800  Biso   1.000  C
  C121     1.0000 0.45600  0.94000  0.14000  Biso   1.000  C
  C122     1.0000 0.45600  0.06000  0.64000  Biso   1.000  C
  C123     1.0000 0.95600  0.44000  0.14000  Biso   1.000  C
  C124     1.0000 0.95600  0.56000  0.64000  Biso   1.000  C
  C125     1.0000 0.54400  0.06000  0.86000  Biso   1.000  C
  C126     1.0000 0.54400  0.94000  0.36000  Biso   1.000  C
  C127     1.0000 0.04400  0.56000  0.86000  Biso   1.000  C
  C128     1.0000 0.04400  0.44000  0.36000  Biso   1.000  C
  C129     1.0000 0.29750  0.12800  0.19600  Biso   1.000  C
  C130     1.0000 0.29750  0.87200  0.69600  Biso   1.000  C
  C131     1.0000 0.79750  0.62800  0.19600  Biso   1.000  C
  C132     1.0000 0.79750  0.37200  0.69600  Biso   1.000  C
  C133     1.0000 0.70250  0.87200  0.80400  Biso   1.000  C
  C134     1.0000 0.70250  0.12800  0.30400  Biso   1.000  C
  C135     1.0000 0.20250  0.37200  0.80400  Biso   1.000  C
  C136     1.0000 0.20250  0.62800  0.30400  Biso   1.000  C
  C137     1.0000 0.27320  0.21510  0.13550  Biso   1.000  C
  C138     1.0000 0.27320  0.78490  0.63550  Biso   1.000  C
  C139     1.0000 0.77320  0.71510  0.13550  Biso   1.000  C
  C140     1.0000 0.77320  0.28490  0.63550  Biso   1.000  C
  C141     1.0000 0.72680  0.78490  0.86450  Biso   1.000  C
  C142     1.0000 0.72680  0.21510  0.36450  Biso   1.000  C
  C143     1.0000 0.22680  0.28490  0.86450  Biso   1.000  C
  C144     1.0000 0.22680  0.71510  0.36450  Biso   1.000  C
  C145     1.0000 0.26730  0.33100  0.16200  Biso   1.000  C
  C146     1.0000 0.26730  0.66900  0.66200  Biso   1.000  C
  C147     1.0000 0.76730  0.83100  0.16200  Biso   1.000  C
  C148     1.0000 0.76730  0.16900  0.66200  Biso   1.000  C
  C149     1.0000 0.73270  0.66900  0.83800  Biso   1.000  C
  C150     1.0000 0.73270  0.33100  0.33800  Biso   1.000  C
  C151     1.0000 0.23270  0.16900  0.83800  Biso   1.000  C
  C152     1.0000 0.23270  0.83100  0.33800  Biso   1.000  C
  C153     1.0000 0.24380  0.42400  0.10120  Biso   1.000  C
  C154     1.0000 0.24380  0.57600  0.60120  Biso   1.000  C
  C155     1.0000 0.74380  0.92400  0.10120  Biso   1.000  C
  C156     1.0000 0.74380  0.07600  0.60120  Biso   1.000  C
  C157     1.0000 0.75620  0.57600  0.89880  Biso   1.000  C
  C158     1.0000 0.75620  0.42400  0.39880  Biso   1.000  C
  C159     1.0000 0.25620  0.07600  0.89880  Biso   1.000  C
  C160     1.0000 0.25620  0.92400  0.39880  Biso   1.000  C
  H1       1.0000 0.24460  0.99950  0.06870  Biso   1.000  H
  H2       1.0000 0.24460  0.00050  0.56870  Biso   1.000  H
  H3       1.0000 0.74460  0.49950  0.06870  Biso   1.000  H
  H4       1.0000 0.74460  0.50050  0.56870  Biso   1.000  H
  H5       1.0000 0.75540  0.00050  0.93130  Biso   1.000  H
  H6       1.0000 0.75540  0.99950  0.43130  Biso   1.000  H
  H7       1.0000 0.25540  0.50050  0.93130  Biso   1.000  H
  H8       1.0000 0.25540  0.49950  0.43130  Biso   1.000  H
  H9       1.0000 0.27200  0.87930  0.10090  Biso   1.000  H
  H10      1.0000 0.27200  0.12070  0.60090  Biso   1.000  H
  H11      1.0000 0.77200  0.37930  0.10090  Biso   1.000  H
  H12      1.0000 0.77200  0.62070  0.60090  Biso   1.000  H
  H13      1.0000 0.72800  0.12070  0.89910  Biso   1.000  H
  H14      1.0000 0.72800  0.87930  0.39910  Biso   1.000  H
  H15      1.0000 0.22800  0.62070  0.89910  Biso   1.000  H
  H16      1.0000 0.22800  0.37930  0.39910  Biso   1.000  H
  H17      1.0000 0.23510  0.87960  0.17280  Biso   1.000  H
  H18      1.0000 0.23510  0.12040  0.67280  Biso   1.000  H
  H19      1.0000 0.73510  0.37960  0.17280  Biso   1.000  H
  H20      1.0000 0.73510  0.62040  0.67280  Biso   1.000  H
  H21      1.0000 0.76490  0.12040  0.82720  Biso   1.000  H
  H22      1.0000 0.76490  0.87960  0.32720  Biso   1.000  H
  H23      1.0000 0.26490  0.62040  0.82720  Biso   1.000  H
  H24      1.0000 0.26490  0.37960  0.32720  Biso   1.000  H
  H25      1.0000 0.20260  0.98970  0.12800  Biso   1.000  H
  H26      1.0000 0.20260  0.01030  0.62800  Biso   1.000  H
  H27      1.0000 0.70260  0.48970  0.12800  Biso   1.000  H
  H28      1.0000 0.70260  0.51030  0.62800  Biso   1.000  H
  H29      1.0000 0.79740  0.01030  0.87200  Biso   1.000  H
  H30      1.0000 0.79740  0.98970  0.37200  Biso   1.000  H
  H31      1.0000 0.29740  0.51030  0.87200  Biso   1.000  H
  H32      1.0000 0.29740  0.48970  0.37200  Biso   1.000  H
  H33      1.0000 0.15500  0.88460  0.01650  Biso   1.000  H
  H34      1.0000 0.15500  0.11540  0.51650  Biso   1.000  H
  H35      1.0000 0.65500  0.38460  0.01650  Biso   1.000  H
  H36      1.0000 0.65500  0.61540  0.51650  Biso   1.000  H
  H37      1.0000 0.84500  0.11540  0.98350  Biso   1.000  H
  H38      1.0000 0.84500  0.88460  0.48350  Biso   1.000  H
  H39      1.0000 0.34500  0.61540  0.98350  Biso   1.000  H
  H40      1.0000 0.34500  0.38460  0.48350  Biso   1.000  H
  H41      1.0000 0.19040  0.77520  0.05620  Biso   1.000  H
  H42      1.0000 0.19040  0.22480  0.55620  Biso   1.000  H
  H43      1.0000 0.69040  0.27520  0.05620  Biso   1.000  H
  H44      1.0000 0.69040  0.72480  0.55620  Biso   1.000  H
  H45      1.0000 0.80960  0.22480  0.94380  Biso   1.000  H
  H46      1.0000 0.80960  0.77520  0.44380  Biso   1.000  H
  H47      1.0000 0.30960  0.72480  0.94380  Biso   1.000  H
  H48      1.0000 0.30960  0.27520  0.44380  Biso   1.000  H
  H49      1.0000 0.12400  0.87490  0.09010  Biso   1.000  H
  H50      1.0000 0.12400  0.12510  0.59010  Biso   1.000  H
  H51      1.0000 0.62400  0.37490  0.09010  Biso   1.000  H
  H52      1.0000 0.62400  0.62510  0.59010  Biso   1.000  H
  H53      1.0000 0.87600  0.12510  0.90990  Biso   1.000  H
  H54      1.0000 0.87600  0.87490  0.40990  Biso   1.000  H
  H55      1.0000 0.37600  0.62510  0.90990  Biso   1.000  H
  H56      1.0000 0.37600  0.37490  0.40990  Biso   1.000  H
  H57      1.0000 0.11280  0.76030  0.04400  Biso   1.000  H
  H58      1.0000 0.11280  0.23970  0.54400  Biso   1.000  H
  H59      1.0000 0.61280  0.26030  0.04400  Biso   1.000  H
  H60      1.0000 0.61280  0.73970  0.54400  Biso   1.000  H
  H61      1.0000 0.88720  0.23970  0.95600  Biso   1.000  H
  H62      1.0000 0.88720  0.76030  0.45600  Biso   1.000  H
  H63      1.0000 0.38720  0.73970  0.95600  Biso   1.000  H
  H64      1.0000 0.38720  0.26030  0.45600  Biso   1.000  H
  H65      1.0000 0.15940  0.76540  0.12970  Biso   1.000  H
  H66      1.0000 0.15940  0.23460  0.62970  Biso   1.000  H
  H67      1.0000 0.65940  0.26540  0.12970  Biso   1.000  H
  H68      1.0000 0.65940  0.73460  0.62970  Biso   1.000  H
  H69      1.0000 0.84060  0.23460  0.87030  Biso   1.000  H
  H70      1.0000 0.84060  0.76540  0.37030  Biso   1.000  H
  H71      1.0000 0.34060  0.73460  0.87030  Biso   1.000  H
  H72      1.0000 0.34060  0.26540  0.37030  Biso   1.000  H
  H73      1.0000 0.31080  0.93860  0.26850  Biso   1.000  H
  H74      1.0000 0.31080  0.06140  0.76850  Biso   1.000  H
  H75      1.0000 0.81080  0.43860  0.26850  Biso   1.000  H
  H76      1.0000 0.81080  0.56140  0.76850  Biso   1.000  H
  H77      1.0000 0.68920  0.06140  0.73150  Biso   1.000  H
  H78      1.0000 0.68920  0.93860  0.23150  Biso   1.000  H
  H79      1.0000 0.18920  0.56140  0.73150  Biso   1.000  H
  H80      1.0000 0.18920  0.43860  0.23150  Biso   1.000  H
  H81      1.0000 0.34080  0.86180  0.24100  Biso   1.000  H
  H82      1.0000 0.34080  0.13820  0.74100  Biso   1.000  H
  H83      1.0000 0.84080  0.36180  0.24100  Biso   1.000  H
  H84      1.0000 0.84080  0.63820  0.74100  Biso   1.000  H
  H85      1.0000 0.65920  0.13820  0.75900  Biso   1.000  H
  H86      1.0000 0.65920  0.86180  0.25900  Biso   1.000  H
  H87      1.0000 0.15920  0.63820  0.75900  Biso   1.000  H
  H88      1.0000 0.15920  0.36180  0.25900  Biso   1.000  H
  H89      1.0000 0.41230  0.95790  0.30680  Biso   1.000  H
  H90      1.0000 0.41230  0.04210  0.80680  Biso   1.000  H
  H91      1.0000 0.91230  0.45790  0.30680  Biso   1.000  H
  H92      1.0000 0.91230  0.54210  0.80680  Biso   1.000  H
  H93      1.0000 0.58770  0.04210  0.69320  Biso   1.000  H
  H94      1.0000 0.58770  0.95790  0.19320  Biso   1.000  H
  H95      1.0000 0.08770  0.54210  0.69320  Biso   1.000  H
  H96      1.0000 0.08770  0.45790  0.19320  Biso   1.000  H
  H97      1.0000 0.38320  0.04850  0.32820  Biso   1.000  H
  H98      1.0000 0.38320  0.95150  0.82820  Biso   1.000  H
  H99      1.0000 0.88320  0.54850  0.32820  Biso   1.000  H
  H100     1.0000 0.88320  0.45150  0.82820  Biso   1.000  H
  H101     1.0000 0.61680  0.95150  0.67180  Biso   1.000  H
  H102     1.0000 0.61680  0.04850  0.17180  Biso   1.000  H
  H103     1.0000 0.11680  0.45150  0.67180  Biso   1.000  H
  H104     1.0000 0.11680  0.54850  0.17180  Biso   1.000  H
  H105     1.0000 0.36890  0.89290  0.38530  Biso   1.000  H
  H106     1.0000 0.36890  0.10710  0.88530  Biso   1.000  H
  H107     1.0000 0.86890  0.39290  0.38530  Biso   1.000  H
  H108     1.0000 0.86890  0.60710  0.88530  Biso   1.000  H
  H109     1.0000 0.63110  0.10710  0.61470  Biso   1.000  H
  H110     1.0000 0.63110  0.89290  0.11470  Biso   1.000  H
  H111     1.0000 0.13110  0.60710  0.61470  Biso   1.000  H
  H112     1.0000 0.13110  0.39290  0.11470  Biso   1.000  H
  H113     1.0000 0.41410  0.83230  0.37980  Biso   1.000  H
  H114     1.0000 0.41410  0.16770  0.87980  Biso   1.000  H
  H115     1.0000 0.91410  0.33230  0.37980  Biso   1.000  H
  H116     1.0000 0.91410  0.66770  0.87980  Biso   1.000  H
  H117     1.0000 0.58590  0.16770  0.62020  Biso   1.000  H
  H118     1.0000 0.58590  0.83230  0.12020  Biso   1.000  H
  H119     1.0000 0.08590  0.66770  0.62020  Biso   1.000  H
  H120     1.0000 0.08590  0.33230  0.12020  Biso   1.000  H
  H121     1.0000 0.43260  0.86500  0.47890  Biso   1.000  H
  H122     1.0000 0.43260  0.13500  0.97890  Biso   1.000  H
  H123     1.0000 0.93260  0.36500  0.47890  Biso   1.000  H
  H124     1.0000 0.93260  0.63500  0.97890  Biso   1.000  H
  H125     1.0000 0.56740  0.13500  0.52110  Biso   1.000  H
  H126     1.0000 0.56740  0.86500  0.02110  Biso   1.000  H
  H127     1.0000 0.06740  0.63500  0.52110  Biso   1.000  H
  H128     1.0000 0.06740  0.36500  0.02110  Biso   1.000  H
  H129     1.0000 0.46600  0.93600  0.45450  Biso   1.000  H
  H130     1.0000 0.46600  0.06400  0.95450  Biso   1.000  H
  H131     1.0000 0.96600  0.43600  0.45450  Biso   1.000  H
  H132     1.0000 0.96600  0.56400  0.95450  Biso   1.000  H
  H133     1.0000 0.53400  0.06400  0.54550  Biso   1.000  H
  H134     1.0000 0.53400  0.93600  0.04550  Biso   1.000  H
  H135     1.0000 0.03400  0.56400  0.54550  Biso   1.000  H
  H136     1.0000 0.03400  0.43600  0.04550  Biso   1.000  H
  H137     1.0000 0.42080  0.99680  0.45990  Biso   1.000  H
  H138     1.0000 0.42080  0.00320  0.95990  Biso   1.000  H
  H139     1.0000 0.92080  0.49680  0.45990  Biso   1.000  H
  H140     1.0000 0.92080  0.50320  0.95990  Biso   1.000  H
  H141     1.0000 0.57920  0.00320  0.54010  Biso   1.000  H
  H142     1.0000 0.57920  0.99680  0.04010  Biso   1.000  H
  H143     1.0000 0.07920  0.50320  0.54010  Biso   1.000  H
  H144     1.0000 0.07920  0.49680  0.04010  Biso   1.000  H
  H145     1.0000 0.32880  0.06470  0.10380  Biso   1.000  H
  H146     1.0000 0.32880  0.93530  0.60380  Biso   1.000  H
  H147     1.0000 0.82880  0.56470  0.10380  Biso   1.000  H
  H148     1.0000 0.82880  0.43530  0.60380  Biso   1.000  H
  H149     1.0000 0.67120  0.93530  0.89620  Biso   1.000  H
  H150     1.0000 0.67120  0.06470  0.39620  Biso   1.000  H
  H151     1.0000 0.17120  0.43530  0.89620  Biso   1.000  H
  H152     1.0000 0.17120  0.56470  0.39620  Biso   1.000  H
  H153     1.0000 0.37630  0.07750  0.18850  Biso   1.000  H
  H154     1.0000 0.37630  0.92250  0.68850  Biso   1.000  H
  H155     1.0000 0.87630  0.57750  0.18850  Biso   1.000  H
  H156     1.0000 0.87630  0.42250  0.68850  Biso   1.000  H
  H157     1.0000 0.62370  0.92250  0.81150  Biso   1.000  H
  H158     1.0000 0.62370  0.07750  0.31150  Biso   1.000  H
  H159     1.0000 0.12370  0.42250  0.81150  Biso   1.000  H
  H160     1.0000 0.12370  0.57750  0.31150  Biso   1.000  H
  H161     1.0000 0.40090  0.90380  0.19170  Biso   1.000  H
  H162     1.0000 0.40090  0.09620  0.69170  Biso   1.000  H
  H163     1.0000 0.90090  0.40380  0.19170  Biso   1.000  H
  H164     1.0000 0.90090  0.59620  0.69170  Biso   1.000  H
  H165     1.0000 0.59910  0.09620  0.80830  Biso   1.000  H
  H166     1.0000 0.59910  0.90380  0.30830  Biso   1.000  H
  H167     1.0000 0.09910  0.59620  0.80830  Biso   1.000  H
  H168     1.0000 0.09910  0.40380  0.30830  Biso   1.000  H
  H169     1.0000 0.35000  0.87870  0.11110  Biso   1.000  H
  H170     1.0000 0.35000  0.12130  0.61110  Biso   1.000  H
  H171     1.0000 0.85000  0.37870  0.11110  Biso   1.000  H
  H172     1.0000 0.85000  0.62130  0.61110  Biso   1.000  H
  H173     1.0000 0.65000  0.12130  0.88890  Biso   1.000  H
  H174     1.0000 0.65000  0.87870  0.38890  Biso   1.000  H
  H175     1.0000 0.15000  0.62130  0.88890  Biso   1.000  H
  H176     1.0000 0.15000  0.37870  0.38890  Biso   1.000  H
  H177     1.0000 0.39360  0.88160  0.07440  Biso   1.000  H
  H178     1.0000 0.39360  0.11840  0.57440  Biso   1.000  H
  H179     1.0000 0.89360  0.38160  0.07440  Biso   1.000  H
  H180     1.0000 0.89360  0.61840  0.57440  Biso   1.000  H
  H181     1.0000 0.60640  0.11840  0.92560  Biso   1.000  H
  H182     1.0000 0.60640  0.88160  0.42560  Biso   1.000  H
  H183     1.0000 0.10640  0.61840  0.92560  Biso   1.000  H
  H184     1.0000 0.10640  0.38160  0.42560  Biso   1.000  H
  H185     1.0000 0.39730  0.01570  0.08610  Biso   1.000  H
  H186     1.0000 0.39730  0.98430  0.58610  Biso   1.000  H
  H187     1.0000 0.89730  0.51570  0.08610  Biso   1.000  H
  H188     1.0000 0.89730  0.48430  0.58610  Biso   1.000  H
  H189     1.0000 0.60270  0.98430  0.91390  Biso   1.000  H
  H190     1.0000 0.60270  0.01570  0.41390  Biso   1.000  H
  H191     1.0000 0.10270  0.48430  0.91390  Biso   1.000  H
  H192     1.0000 0.10270  0.51570  0.41390  Biso   1.000  H
  H193     1.0000 0.46930  0.86510  0.16310  Biso   1.000  H
  H194     1.0000 0.46930  0.13490  0.66310  Biso   1.000  H
  H195     1.0000 0.96930  0.36510  0.16310  Biso   1.000  H
  H196     1.0000 0.96930  0.63490  0.66310  Biso   1.000  H
  H197     1.0000 0.53070  0.13490  0.83690  Biso   1.000  H
  H198     1.0000 0.53070  0.86510  0.33690  Biso   1.000  H
  H199     1.0000 0.03070  0.63490  0.83690  Biso   1.000  H
  H200     1.0000 0.03070  0.36510  0.33690  Biso   1.000  H
  H201     1.0000 0.46260  0.94720  0.09900  Biso   1.000  H
  H202     1.0000 0.46260  0.05280  0.59900  Biso   1.000  H
  H203     1.0000 0.96260  0.44720  0.09900  Biso   1.000  H
  H204     1.0000 0.96260  0.55280  0.59900  Biso   1.000  H
  H205     1.0000 0.53740  0.05280  0.90100  Biso   1.000  H
  H206     1.0000 0.53740  0.94720  0.40100  Biso   1.000  H
  H207     1.0000 0.03740  0.55280  0.90100  Biso   1.000  H
  H208     1.0000 0.03740  0.44720  0.40100  Biso   1.000  H
  H209     1.0000 0.47300  0.99930  0.17500  Biso   1.000  H
  H210     1.0000 0.47300  0.00070  0.67500  Biso   1.000  H
  H211     1.0000 0.97300  0.49930  0.17500  Biso   1.000  H
  H212     1.0000 0.97300  0.50070  0.67500  Biso   1.000  H
  H213     1.0000 0.52700  0.00070  0.82500  Biso   1.000  H
  H214     1.0000 0.52700  0.99930  0.32500  Biso   1.000  H
  H215     1.0000 0.02700  0.50070  0.82500  Biso   1.000  H
  H216     1.0000 0.02700  0.49930  0.32500  Biso   1.000  H
  H217     1.0000 0.27360  0.11470  0.21330  Biso   1.000  H
  H218     1.0000 0.27360  0.88530  0.71330  Biso   1.000  H
  H219     1.0000 0.77360  0.61470  0.21330  Biso   1.000  H
  H220     1.0000 0.77360  0.38530  0.71330  Biso   1.000  H
  H221     1.0000 0.72640  0.88530  0.78670  Biso   1.000  H
  H222     1.0000 0.72640  0.11470  0.28670  Biso   1.000  H
  H223     1.0000 0.22640  0.38530  0.78670  Biso   1.000  H
  H224     1.0000 0.22640  0.61470  0.28670  Biso   1.000  H
  H225     1.0000 0.33090  0.15760  0.23730  Biso   1.000  H
  H226     1.0000 0.33090  0.84240  0.73730  Biso   1.000  H
  H227     1.0000 0.83090  0.65760  0.23730  Biso   1.000  H
  H228     1.0000 0.83090  0.34240  0.73730  Biso   1.000  H
  H229     1.0000 0.66910  0.84240  0.76270  Biso   1.000  H
  H230     1.0000 0.66910  0.15760  0.26270  Biso   1.000  H
  H231     1.0000 0.16910  0.34240  0.76270  Biso   1.000  H
  H232     1.0000 0.16910  0.65760  0.26270  Biso   1.000  H
  H233     1.0000 0.29490  0.22260  0.11380  Biso   1.000  H
  H234     1.0000 0.29490  0.77740  0.61380  Biso   1.000  H
  H235     1.0000 0.79490  0.72260  0.11380  Biso   1.000  H
  H236     1.0000 0.79490  0.27740  0.61380  Biso   1.000  H
  H237     1.0000 0.70510  0.77740  0.88620  Biso   1.000  H
  H238     1.0000 0.70510  0.22260  0.38620  Biso   1.000  H
  H239     1.0000 0.20510  0.27740  0.88620  Biso   1.000  H
  H240     1.0000 0.20510  0.72260  0.38620  Biso   1.000  H
  H241     1.0000 0.23780  0.18960  0.09610  Biso   1.000  H
  H242     1.0000 0.23780  0.81040  0.59610  Biso   1.000  H
  H243     1.0000 0.73780  0.68960  0.09610  Biso   1.000  H
  H244     1.0000 0.73780  0.31040  0.59610  Biso   1.000  H
  H245     1.0000 0.76220  0.81040  0.90390  Biso   1.000  H
  H246     1.0000 0.76220  0.18960  0.40390  Biso   1.000  H
  H247     1.0000 0.26220  0.31040  0.90390  Biso   1.000  H
  H248     1.0000 0.26220  0.68960  0.40390  Biso   1.000  H
  H249     1.0000 0.24600  0.32570  0.18170  Biso   1.000  H
  H250     1.0000 0.24600  0.67430  0.68170  Biso   1.000  H
  H251     1.0000 0.74600  0.82570  0.18170  Biso   1.000  H
  H252     1.0000 0.74600  0.17430  0.68170  Biso   1.000  H
  H253     1.0000 0.75400  0.67430  0.81830  Biso   1.000  H
  H254     1.0000 0.75400  0.32570  0.31830  Biso   1.000  H
  H255     1.0000 0.25400  0.17430  0.81830  Biso   1.000  H
  H256     1.0000 0.25400  0.82570  0.31830  Biso   1.000  H
  H257     1.0000 0.30310  0.35860  0.19960  Biso   1.000  H
  H258     1.0000 0.30310  0.64140  0.69960  Biso   1.000  H
  H259     1.0000 0.80310  0.85860  0.19960  Biso   1.000  H
  H260     1.0000 0.80310  0.14140  0.69960  Biso   1.000  H
  H261     1.0000 0.69690  0.64140  0.80040  Biso   1.000  H
  H262     1.0000 0.69690  0.35860  0.30040  Biso   1.000  H
  H263     1.0000 0.19690  0.14140  0.80040  Biso   1.000  H
  H264     1.0000 0.19690  0.85860  0.30040  Biso   1.000  H
  H265     1.0000 0.24210  0.49390  0.12290  Biso   1.000  H
  H266     1.0000 0.24210  0.50610  0.62290  Biso   1.000  H
  H267     1.0000 0.74210  0.99390  0.12290  Biso   1.000  H
  H268     1.0000 0.74210  0.00610  0.62290  Biso   1.000  H
  H269     1.0000 0.75790  0.50610  0.87710  Biso   1.000  H
  H270     1.0000 0.75790  0.49390  0.37710  Biso   1.000  H
  H271     1.0000 0.25790  0.00610  0.87710  Biso   1.000  H
  H272     1.0000 0.25790  0.99390  0.37710  Biso   1.000  H
  H273     1.0000 0.26530  0.43160  0.08010  Biso   1.000  H
  H274     1.0000 0.26530  0.56840  0.58010  Biso   1.000  H
  H275     1.0000 0.76530  0.93160  0.08010  Biso   1.000  H
  H276     1.0000 0.76530  0.06840  0.58010  Biso   1.000  H
  H277     1.0000 0.73470  0.56840  0.91990  Biso   1.000  H
  H278     1.0000 0.73470  0.43160  0.41990  Biso   1.000  H
  H279     1.0000 0.23470  0.06840  0.91990  Biso   1.000  H
  H280     1.0000 0.23470  0.93160  0.41990  Biso   1.000  H
  H281     1.0000 0.20820  0.39890  0.06230  Biso   1.000  H
  H282     1.0000 0.20820  0.60110  0.56230  Biso   1.000  H
  H283     1.0000 0.70820  0.89890  0.06230  Biso   1.000  H
  H284     1.0000 0.70820  0.10110  0.56230  Biso   1.000  H
  H285     1.0000 0.79180  0.60110  0.93770  Biso   1.000  H
  H286     1.0000 0.79180  0.39890  0.43770  Biso   1.000  H
  H287     1.0000 0.29180  0.10110  0.93770  Biso   1.000  H
  H288     1.0000 0.29180  0.89890  0.43770  Biso   1.000  H
