data_image0
_cell_length_a       29.179
_cell_length_b       11.462
_cell_length_c       20.735
_cell_angle_alpha    90
_cell_angle_beta     122.602
_cell_angle_gamma    90

_symmetry_space_group_name_H-M    "P 1"
_symmetry_int_tables_number       1

loop_
  _symmetry_equiv_pos_as_xyz
  'x, y, z'

loop_
  _atom_site_label
  _atom_site_occupancy
  _atom_site_fract_x
  _atom_site_fract_y
  _atom_site_fract_z
  _atom_site_thermal_displace_type
  _atom_site_B_iso_or_equiv
  _atom_site_type_symbol
  Pt1      1.0000 0.00000  0.90612  0.25000  Biso   1.000  Pt
  Pt2      1.0000 0.00000  0.09388  0.75000  Biso   1.000  Pt
  Pt3      1.0000 0.50000  0.40612  0.25000  Biso   1.000  Pt
  Pt4      1.0000 0.50000  0.59388  0.75000  Biso   1.000  Pt
  I1       1.0000 0.13136  0.17052  0.43897  Biso   1.000  I
  I2       1.0000 0.13136  0.82948  0.93897  Biso   1.000  I
  I3       1.0000 0.63136  0.67052  0.43897  Biso   1.000  I
  I4       1.0000 0.63136  0.32948  0.93897  Biso   1.000  I
  I5       1.0000 0.86864  0.82948  0.56103  Biso   1.000  I
  I6       1.0000 0.86864  0.17052  0.06103  Biso   1.000  I
  I7       1.0000 0.36864  0.32948  0.56103  Biso   1.000  I
  I8       1.0000 0.36864  0.67052  0.06103  Biso   1.000  I
  I9       1.0000 0.95691  0.22417  0.31517  Biso   1.000  I
  I10      1.0000 0.95691  0.77583  0.81517  Biso   1.000  I
  I11      1.0000 0.45691  0.72417  0.31517  Biso   1.000  I
  I12      1.0000 0.45691  0.27583  0.81517  Biso   1.000  I
  I13      1.0000 0.04309  0.77583  0.68483  Biso   1.000  I
  I14      1.0000 0.04309  0.22417  0.18483  Biso   1.000  I
  I15      1.0000 0.54309  0.27583  0.68483  Biso   1.000  I
  I16      1.0000 0.54309  0.72417  0.18483  Biso   1.000  I
  Cu1      1.0000 0.04084  0.09810  0.41890  Biso   1.000  Cu
  Cu2      1.0000 0.04084  0.90190  0.91890  Biso   1.000  Cu
  Cu3      1.0000 0.54084  0.59810  0.41890  Biso   1.000  Cu
  Cu4      1.0000 0.54084  0.40190  0.91890  Biso   1.000  Cu
  Cu5      1.0000 0.95916  0.90190  0.58110  Biso   1.000  Cu
  Cu6      1.0000 0.95916  0.09810  0.08110  Biso   1.000  Cu
  Cu7      1.0000 0.45916  0.40190  0.58110  Biso   1.000  Cu
  Cu8      1.0000 0.45916  0.59810  0.08110  Biso   1.000  Cu
  Cu9      1.0000 0.06920  0.10440  0.30303  Biso   1.000  Cu
  Cu10     1.0000 0.06920  0.89560  0.80303  Biso   1.000  Cu
  Cu11     1.0000 0.56920  0.60440  0.30303  Biso   1.000  Cu
  Cu12     1.0000 0.56920  0.39560  0.80303  Biso   1.000  Cu
  Cu13     1.0000 0.93080  0.89560  0.69697  Biso   1.000  Cu
  Cu14     1.0000 0.93080  0.10440  0.19697  Biso   1.000  Cu
  Cu15     1.0000 0.43080  0.39560  0.69697  Biso   1.000  Cu
  Cu16     1.0000 0.43080  0.60440  0.19697  Biso   1.000  Cu
  Cu17     1.0000 0.95730  0.15150  0.20200  Biso   1.000  Cu
  Cu18     1.0000 0.95730  0.84850  0.70200  Biso   1.000  Cu
  Cu19     1.0000 0.45730  0.65150  0.20200  Biso   1.000  Cu
  Cu20     1.0000 0.45730  0.34850  0.70200  Biso   1.000  Cu
  Cu21     1.0000 0.04270  0.84850  0.79800  Biso   1.000  Cu
  Cu22     1.0000 0.04270  0.15150  0.29800  Biso   1.000  Cu
  Cu23     1.0000 0.54270  0.34850  0.79800  Biso   1.000  Cu
  Cu24     1.0000 0.54270  0.65150  0.29800  Biso   1.000  Cu
  S1       1.0000 0.02022  0.90320  0.37345  Biso   1.000  S
  S2       1.0000 0.02022  0.09680  0.87345  Biso   1.000  S
  S3       1.0000 0.52022  0.40320  0.37345  Biso   1.000  S
  S4       1.0000 0.52022  0.59680  0.87345  Biso   1.000  S
  S5       1.0000 0.97978  0.09680  0.62655  Biso   1.000  S
  S6       1.0000 0.97978  0.90320  0.12655  Biso   1.000  S
  S7       1.0000 0.47978  0.59680  0.62655  Biso   1.000  S
  S8       1.0000 0.47978  0.40320  0.12655  Biso   1.000  S
  S9       1.0000 0.90865  0.90150  0.20440  Biso   1.000  S
  S10      1.0000 0.90865  0.09850  0.70440  Biso   1.000  S
  S11      1.0000 0.40865  0.40150  0.20440  Biso   1.000  S
  S12      1.0000 0.40865  0.59850  0.70440  Biso   1.000  S
  S13      1.0000 0.09135  0.09850  0.79560  Biso   1.000  S
  S14      1.0000 0.09135  0.90150  0.29560  Biso   1.000  S
  S15      1.0000 0.59135  0.59850  0.79560  Biso   1.000  S
  S16      1.0000 0.59135  0.40150  0.29560  Biso   1.000  S
  N1       1.0000 0.95520  0.89720  0.48250  Biso   1.000  N
  N2       1.0000 0.95520  0.10280  0.98250  Biso   1.000  N
  N3       1.0000 0.45520  0.39720  0.48250  Biso   1.000  N
  N4       1.0000 0.45520  0.60280  0.98250  Biso   1.000  N
  N5       1.0000 0.04480  0.10280  0.51750  Biso   1.000  N
  N6       1.0000 0.04480  0.89720  0.01750  Biso   1.000  N
  N7       1.0000 0.54480  0.60280  0.51750  Biso   1.000  N
  N8       1.0000 0.54480  0.39720  0.01750  Biso   1.000  N
  N9       1.0000 0.81550  0.87820  0.27120  Biso   1.000  N
  N10      1.0000 0.81550  0.12180  0.77120  Biso   1.000  N
  N11      1.0000 0.31550  0.37820  0.27120  Biso   1.000  N
  N12      1.0000 0.31550  0.62180  0.77120  Biso   1.000  N
  N13      1.0000 0.18450  0.12180  0.72880  Biso   1.000  N
  N14      1.0000 0.18450  0.87820  0.22880  Biso   1.000  N
  N15      1.0000 0.68450  0.62180  0.72880  Biso   1.000  N
  N16      1.0000 0.68450  0.37820  0.22880  Biso   1.000  N
  N17      1.0000 0.19080  0.51210  0.82210  Biso   1.000  N
  N18      1.0000 0.19080  0.48790  0.32210  Biso   1.000  N
  N19      1.0000 0.69080  0.01210  0.82210  Biso   1.000  N
  N20      1.0000 0.69080  0.98790  0.32210  Biso   1.000  N
  N21      1.0000 0.80920  0.48790  0.17790  Biso   1.000  N
  N22      1.0000 0.80920  0.51210  0.67790  Biso   1.000  N
  N23      1.0000 0.30920  0.98790  0.17790  Biso   1.000  N
  N24      1.0000 0.30920  0.01210  0.67790  Biso   1.000  N
  C1       1.0000 0.95570  0.89860  0.35920  Biso   1.000  C
  C2       1.0000 0.95570  0.10140  0.85920  Biso   1.000  C
  C3       1.0000 0.45570  0.39860  0.35920  Biso   1.000  C
  C4       1.0000 0.45570  0.60140  0.85920  Biso   1.000  C
  C5       1.0000 0.04430  0.10140  0.64080  Biso   1.000  C
  C6       1.0000 0.04430  0.89860  0.14080  Biso   1.000  C
  C7       1.0000 0.54430  0.60140  0.64080  Biso   1.000  C
  C8       1.0000 0.54430  0.39860  0.14080  Biso   1.000  C
  C9       1.0000 0.90940  0.89480  0.28890  Biso   1.000  C
  C10      1.0000 0.90940  0.10520  0.78890  Biso   1.000  C
  C11      1.0000 0.40940  0.39480  0.28890  Biso   1.000  C
  C12      1.0000 0.40940  0.60520  0.78890  Biso   1.000  C
  C13      1.0000 0.09060  0.10520  0.71110  Biso   1.000  C
  C14      1.0000 0.09060  0.89480  0.21110  Biso   1.000  C
  C15      1.0000 0.59060  0.60520  0.71110  Biso   1.000  C
  C16      1.0000 0.59060  0.39480  0.21110  Biso   1.000  C
  C17      1.0000 0.95410  0.89670  0.42690  Biso   1.000  C
  C18      1.0000 0.95410  0.10330  0.92690  Biso   1.000  C
  C19      1.0000 0.45410  0.39670  0.42690  Biso   1.000  C
  C20      1.0000 0.45410  0.60330  0.92690  Biso   1.000  C
  C21      1.0000 0.04590  0.10330  0.57310  Biso   1.000  C
  C22      1.0000 0.04590  0.89670  0.07310  Biso   1.000  C
  C23      1.0000 0.54590  0.60330  0.57310  Biso   1.000  C
  C24      1.0000 0.54590  0.39670  0.07310  Biso   1.000  C
  C25      1.0000 0.85720  0.88880  0.27980  Biso   1.000  C
  C26      1.0000 0.85720  0.11120  0.77980  Biso   1.000  C
  C27      1.0000 0.35720  0.38880  0.27980  Biso   1.000  C
  C28      1.0000 0.35720  0.61120  0.77980  Biso   1.000  C
  C29      1.0000 0.14280  0.11120  0.72020  Biso   1.000  C
  C30      1.0000 0.14280  0.88880  0.22020  Biso   1.000  C
  C31      1.0000 0.64280  0.61120  0.72020  Biso   1.000  C
  C32      1.0000 0.64280  0.38880  0.22020  Biso   1.000  C
  C33      1.0000 0.15280  0.52500  0.85200  Biso   1.000  C
  C34      1.0000 0.15280  0.47500  0.35200  Biso   1.000  C
  C35      1.0000 0.65280  0.02500  0.85200  Biso   1.000  C
  C36      1.0000 0.65280  0.97500  0.35200  Biso   1.000  C
  C37      1.0000 0.84720  0.47500  0.14800  Biso   1.000  C
  C38      1.0000 0.84720  0.52500  0.64800  Biso   1.000  C
  C39      1.0000 0.34720  0.97500  0.14800  Biso   1.000  C
  C40      1.0000 0.34720  0.02500  0.64800  Biso   1.000  C
  C41      1.0000 0.12500  0.43600  0.86100  Biso   1.000  C
  C42      1.0000 0.12500  0.56400  0.36100  Biso   1.000  C
  C43      1.0000 0.62500  0.93600  0.86100  Biso   1.000  C
  C44      1.0000 0.62500  0.06400  0.36100  Biso   1.000  C
  C45      1.0000 0.87500  0.56400  0.13900  Biso   1.000  C
  C46      1.0000 0.87500  0.43600  0.63900  Biso   1.000  C
  C47      1.0000 0.37500  0.06400  0.13900  Biso   1.000  C
  C48      1.0000 0.37500  0.93600  0.63900  Biso   1.000  C
  C49      1.0000 0.08900  0.45800  0.88700  Biso   1.000  C
  C50      1.0000 0.08900  0.54200  0.38700  Biso   1.000  C
  C51      1.0000 0.58900  0.95800  0.88700  Biso   1.000  C
  C52      1.0000 0.58900  0.04200  0.38700  Biso   1.000  C
  C53      1.0000 0.91100  0.54200  0.11300  Biso   1.000  C
  C54      1.0000 0.91100  0.45800  0.61300  Biso   1.000  C
  C55      1.0000 0.41100  0.04200  0.11300  Biso   1.000  C
  C56      1.0000 0.41100  0.95800  0.61300  Biso   1.000  C
  C57      1.0000 0.04400  0.43900  0.86300  Biso   1.000  C
  C58      1.0000 0.04400  0.56100  0.36300  Biso   1.000  C
  C59      1.0000 0.54400  0.93900  0.86300  Biso   1.000  C
  C60      1.0000 0.54400  0.06100  0.36300  Biso   1.000  C
  C61      1.0000 0.95600  0.56100  0.13700  Biso   1.000  C
  C62      1.0000 0.95600  0.43900  0.63700  Biso   1.000  C
  C63      1.0000 0.45600  0.06100  0.13700  Biso   1.000  C
  C64      1.0000 0.45600  0.93900  0.63700  Biso   1.000  C
  C65      1.0000 0.16450  0.43700  0.74900  Biso   1.000  C
  C66      1.0000 0.16450  0.56300  0.24900  Biso   1.000  C
  C67      1.0000 0.66450  0.93700  0.74900  Biso   1.000  C
  C68      1.0000 0.66450  0.06300  0.24900  Biso   1.000  C
  C69      1.0000 0.83550  0.56300  0.25100  Biso   1.000  C
  C70      1.0000 0.83550  0.43700  0.75100  Biso   1.000  C
  C71      1.0000 0.33550  0.06300  0.25100  Biso   1.000  C
  C72      1.0000 0.33550  0.93700  0.75100  Biso   1.000  C
  C73      1.0000 0.11450  0.47100  0.68000  Biso   1.000  C
  C74      1.0000 0.11450  0.52900  0.18000  Biso   1.000  C
  C75      1.0000 0.61450  0.97100  0.68000  Biso   1.000  C
  C76      1.0000 0.61450  0.02900  0.18000  Biso   1.000  C
  C77      1.0000 0.88550  0.52900  0.32000  Biso   1.000  C
  C78      1.0000 0.88550  0.47100  0.82000  Biso   1.000  C
  C79      1.0000 0.38550  0.02900  0.32000  Biso   1.000  C
  C80      1.0000 0.38550  0.97100  0.82000  Biso   1.000  C
  C81      1.0000 0.09800  0.40000  0.60900  Biso   1.000  C
  C82      1.0000 0.09800  0.60000  0.10900  Biso   1.000  C
  C83      1.0000 0.59800  0.90000  0.60900  Biso   1.000  C
  C84      1.0000 0.59800  0.10000  0.10900  Biso   1.000  C
  C85      1.0000 0.90200  0.60000  0.39100  Biso   1.000  C
  C86      1.0000 0.90200  0.40000  0.89100  Biso   1.000  C
  C87      1.0000 0.40200  0.10000  0.39100  Biso   1.000  C
  C88      1.0000 0.40200  0.90000  0.89100  Biso   1.000  C
  C89      1.0000 0.06400  0.41700  0.54900  Biso   1.000  C
  C90      1.0000 0.06400  0.58300  0.04900  Biso   1.000  C
  C91      1.0000 0.56400  0.91700  0.54900  Biso   1.000  C
  C92      1.0000 0.56400  0.08300  0.04900  Biso   1.000  C
  C93      1.0000 0.93600  0.58300  0.45100  Biso   1.000  C
  C94      1.0000 0.93600  0.41700  0.95100  Biso   1.000  C
  C95      1.0000 0.43600  0.08300  0.45100  Biso   1.000  C
  C96      1.0000 0.43600  0.91700  0.95100  Biso   1.000  C
  C97      1.0000 0.20160  0.62900  0.80370  Biso   1.000  C
  C98      1.0000 0.20160  0.37100  0.30370  Biso   1.000  C
  C99      1.0000 0.70160  0.12900  0.80370  Biso   1.000  C
  C100     1.0000 0.70160  0.87100  0.30370  Biso   1.000  C
  C101     1.0000 0.79840  0.37100  0.19630  Biso   1.000  C
  C102     1.0000 0.79840  0.62900  0.69630  Biso   1.000  C
  C103     1.0000 0.29840  0.87100  0.19630  Biso   1.000  C
  C104     1.0000 0.29840  0.12900  0.69630  Biso   1.000  C
  C105     1.0000 0.22740  0.71700  0.86380  Biso   1.000  C
  C106     1.0000 0.22740  0.28300  0.36380  Biso   1.000  C
  C107     1.0000 0.72740  0.21700  0.86380  Biso   1.000  C
  C108     1.0000 0.72740  0.78300  0.36380  Biso   1.000  C
  C109     1.0000 0.77260  0.28300  0.13620  Biso   1.000  C
  C110     1.0000 0.77260  0.71700  0.63620  Biso   1.000  C
  C111     1.0000 0.27260  0.78300  0.13620  Biso   1.000  C
  C112     1.0000 0.27260  0.21700  0.63620  Biso   1.000  C
  C113     1.0000 0.23190  0.83400  0.83720  Biso   1.000  C
  C114     1.0000 0.23190  0.16600  0.33720  Biso   1.000  C
  C115     1.0000 0.73190  0.33400  0.83720  Biso   1.000  C
  C116     1.0000 0.73190  0.66600  0.33720  Biso   1.000  C
  C117     1.0000 0.76810  0.16600  0.16280  Biso   1.000  C
  C118     1.0000 0.76810  0.83400  0.66280  Biso   1.000  C
  C119     1.0000 0.26810  0.66600  0.16280  Biso   1.000  C
  C120     1.0000 0.26810  0.33400  0.66280  Biso   1.000  C
  C121     1.0000 0.25590  0.92200  0.89630  Biso   1.000  C
  C122     1.0000 0.25590  0.07800  0.39630  Biso   1.000  C
  C123     1.0000 0.75590  0.42200  0.89630  Biso   1.000  C
  C124     1.0000 0.75590  0.57800  0.39630  Biso   1.000  C
  C125     1.0000 0.74410  0.07800  0.10370  Biso   1.000  C
  C126     1.0000 0.74410  0.92200  0.60370  Biso   1.000  C
  C127     1.0000 0.24410  0.57800  0.10370  Biso   1.000  C
  C128     1.0000 0.24410  0.42200  0.60370  Biso   1.000  C
  C129     1.0000 0.24100  0.45600  0.88400  Biso   1.000  C
  C130     1.0000 0.24100  0.54400  0.38400  Biso   1.000  C
  C131     1.0000 0.74100  0.95600  0.88400  Biso   1.000  C
  C132     1.0000 0.74100  0.04400  0.38400  Biso   1.000  C
  C133     1.0000 0.75900  0.54400  0.11600  Biso   1.000  C
  C134     1.0000 0.75900  0.45600  0.61600  Biso   1.000  C
  C135     1.0000 0.25900  0.04400  0.11600  Biso   1.000  C
  C136     1.0000 0.25900  0.95600  0.61600  Biso   1.000  C
  C137     1.0000 0.28090  0.41600  0.87340  Biso   1.000  C
  C138     1.0000 0.28090  0.58400  0.37340  Biso   1.000  C
  C139     1.0000 0.78090  0.91600  0.87340  Biso   1.000  C
  C140     1.0000 0.78090  0.08400  0.37340  Biso   1.000  C
  C141     1.0000 0.71910  0.58400  0.12660  Biso   1.000  C
  C142     1.0000 0.71910  0.41600  0.62660  Biso   1.000  C
  C143     1.0000 0.21910  0.08400  0.12660  Biso   1.000  C
  C144     1.0000 0.21910  0.91600  0.62660  Biso   1.000  C
  C145     1.0000 0.32770  0.34200  0.93600  Biso   1.000  C
  C146     1.0000 0.32770  0.65800  0.43600  Biso   1.000  C
  C147     1.0000 0.82770  0.84200  0.93600  Biso   1.000  C
  C148     1.0000 0.82770  0.15800  0.43600  Biso   1.000  C
  C149     1.0000 0.67230  0.65800  0.06400  Biso   1.000  C
  C150     1.0000 0.67230  0.34200  0.56400  Biso   1.000  C
  C151     1.0000 0.17230  0.15800  0.06400  Biso   1.000  C
  C152     1.0000 0.17230  0.84200  0.56400  Biso   1.000  C
  C153     1.0000 0.36400  0.30700  0.92100  Biso   1.000  C
  C154     1.0000 0.36400  0.69300  0.42100  Biso   1.000  C
  C155     1.0000 0.86400  0.80700  0.92100  Biso   1.000  C
  C156     1.0000 0.86400  0.19300  0.42100  Biso   1.000  C
  C157     1.0000 0.63600  0.69300  0.07900  Biso   1.000  C
  C158     1.0000 0.63600  0.30700  0.57900  Biso   1.000  C
  C159     1.0000 0.13600  0.19300  0.07900  Biso   1.000  C
  C160     1.0000 0.13600  0.80700  0.57900  Biso   1.000  C
  H1       1.0000 0.17540  0.55660  0.90230  Biso   1.000  H
  H2       1.0000 0.17540  0.44340  0.40230  Biso   1.000  H
  H3       1.0000 0.67540  0.05660  0.90230  Biso   1.000  H
  H4       1.0000 0.67540  0.94340  0.40230  Biso   1.000  H
  H5       1.0000 0.82460  0.44340  0.09770  Biso   1.000  H
  H6       1.0000 0.82460  0.55660  0.59770  Biso   1.000  H
  H7       1.0000 0.32460  0.94340  0.09770  Biso   1.000  H
  H8       1.0000 0.32460  0.05660  0.59770  Biso   1.000  H
  H9       1.0000 0.12610  0.57880  0.81980  Biso   1.000  H
  H10      1.0000 0.12610  0.42120  0.31980  Biso   1.000  H
  H11      1.0000 0.62610  0.07880  0.81980  Biso   1.000  H
  H12      1.0000 0.62610  0.92120  0.31980  Biso   1.000  H
  H13      1.0000 0.87390  0.42120  0.18020  Biso   1.000  H
  H14      1.0000 0.87390  0.57880  0.68020  Biso   1.000  H
  H15      1.0000 0.37390  0.92120  0.18020  Biso   1.000  H
  H16      1.0000 0.37390  0.07880  0.68020  Biso   1.000  H
  H17      1.0000 0.10220  0.40370  0.81190  Biso   1.000  H
  H18      1.0000 0.10220  0.59630  0.31190  Biso   1.000  H
  H19      1.0000 0.60220  0.90370  0.81190  Biso   1.000  H
  H20      1.0000 0.60220  0.09630  0.31190  Biso   1.000  H
  H21      1.0000 0.89780  0.59630  0.18810  Biso   1.000  H
  H22      1.0000 0.89780  0.40370  0.68810  Biso   1.000  H
  H23      1.0000 0.39780  0.09630  0.18810  Biso   1.000  H
  H24      1.0000 0.39780  0.90370  0.68810  Biso   1.000  H
  H25      1.0000 0.15170  0.38100  0.89410  Biso   1.000  H
  H26      1.0000 0.15170  0.61900  0.39410  Biso   1.000  H
  H27      1.0000 0.65170  0.88100  0.89410  Biso   1.000  H
  H28      1.0000 0.65170  0.11900  0.39410  Biso   1.000  H
  H29      1.0000 0.84830  0.61900  0.10590  Biso   1.000  H
  H30      1.0000 0.84830  0.38100  0.60590  Biso   1.000  H
  H31      1.0000 0.34830  0.11900  0.10590  Biso   1.000  H
  H32      1.0000 0.34830  0.88100  0.60590  Biso   1.000  H
  H33      1.0000 0.10560  0.39290  0.93030  Biso   1.000  H
  H34      1.0000 0.10560  0.60710  0.43030  Biso   1.000  H
  H35      1.0000 0.60560  0.89290  0.93030  Biso   1.000  H
  H36      1.0000 0.60560  0.10710  0.43030  Biso   1.000  H
  H37      1.0000 0.89440  0.60710  0.06970  Biso   1.000  H
  H38      1.0000 0.89440  0.39290  0.56970  Biso   1.000  H
  H39      1.0000 0.39440  0.10710  0.06970  Biso   1.000  H
  H40      1.0000 0.39440  0.89290  0.56970  Biso   1.000  H
  H41      1.0000 0.09930  0.52500  0.91100  Biso   1.000  H
  H42      1.0000 0.09930  0.47500  0.41100  Biso   1.000  H
  H43      1.0000 0.59930  0.02500  0.91100  Biso   1.000  H
  H44      1.0000 0.59930  0.97500  0.41100  Biso   1.000  H
  H45      1.0000 0.90070  0.47500  0.08900  Biso   1.000  H
  H46      1.0000 0.90070  0.52500  0.58900  Biso   1.000  H
  H47      1.0000 0.40070  0.97500  0.08900  Biso   1.000  H
  H48      1.0000 0.40070  0.02500  0.58900  Biso   1.000  H
  H49      1.0000 0.03660  0.45450  0.89990  Biso   1.000  H
  H50      1.0000 0.03660  0.54550  0.39990  Biso   1.000  H
  H51      1.0000 0.53660  0.95450  0.89990  Biso   1.000  H
  H52      1.0000 0.53660  0.04550  0.39990  Biso   1.000  H
  H53      1.0000 0.96340  0.54550  0.10010  Biso   1.000  H
  H54      1.0000 0.96340  0.45450  0.60010  Biso   1.000  H
  H55      1.0000 0.46340  0.04550  0.10010  Biso   1.000  H
  H56      1.0000 0.46340  0.95450  0.60010  Biso   1.000  H
  H57      1.0000 0.02720  0.49720  0.82260  Biso   1.000  H
  H58      1.0000 0.02720  0.50280  0.32260  Biso   1.000  H
  H59      1.0000 0.52720  0.99720  0.82260  Biso   1.000  H
  H60      1.0000 0.52720  0.00280  0.32260  Biso   1.000  H
  H61      1.0000 0.97280  0.50280  0.17740  Biso   1.000  H
  H62      1.0000 0.97280  0.49720  0.67740  Biso   1.000  H
  H63      1.0000 0.47280  0.00280  0.17740  Biso   1.000  H
  H64      1.0000 0.47280  0.99720  0.67740  Biso   1.000  H
  H65      1.0000 0.03350  0.36500  0.84160  Biso   1.000  H
  H66      1.0000 0.03350  0.63500  0.34160  Biso   1.000  H
  H67      1.0000 0.53350  0.86500  0.84160  Biso   1.000  H
  H68      1.0000 0.53350  0.13500  0.34160  Biso   1.000  H
  H69      1.0000 0.96650  0.63500  0.15840  Biso   1.000  H
  H70      1.0000 0.96650  0.36500  0.65840  Biso   1.000  H
  H71      1.0000 0.46650  0.13500  0.15840  Biso   1.000  H
  H72      1.0000 0.46650  0.86500  0.65840  Biso   1.000  H
  H73      1.0000 0.19160  0.43140  0.73560  Biso   1.000  H
  H74      1.0000 0.19160  0.56860  0.23560  Biso   1.000  H
  H75      1.0000 0.69160  0.93140  0.73560  Biso   1.000  H
  H76      1.0000 0.69160  0.06860  0.23560  Biso   1.000  H
  H77      1.0000 0.80840  0.56860  0.26440  Biso   1.000  H
  H78      1.0000 0.80840  0.43140  0.76440  Biso   1.000  H
  H79      1.0000 0.30840  0.06860  0.26440  Biso   1.000  H
  H80      1.0000 0.30840  0.93140  0.76440  Biso   1.000  H
  H81      1.0000 0.15970  0.36160  0.76330  Biso   1.000  H
  H82      1.0000 0.15970  0.63840  0.26330  Biso   1.000  H
  H83      1.0000 0.65970  0.86160  0.76330  Biso   1.000  H
  H84      1.0000 0.65970  0.13840  0.26330  Biso   1.000  H
  H85      1.0000 0.84030  0.63840  0.23670  Biso   1.000  H
  H86      1.0000 0.84030  0.36160  0.73670  Biso   1.000  H
  H87      1.0000 0.34030  0.13840  0.23670  Biso   1.000  H
  H88      1.0000 0.34030  0.86160  0.73670  Biso   1.000  H
  H89      1.0000 0.08730  0.46650  0.69210  Biso   1.000  H
  H90      1.0000 0.08730  0.53350  0.19210  Biso   1.000  H
  H91      1.0000 0.58730  0.96650  0.69210  Biso   1.000  H
  H92      1.0000 0.58730  0.03350  0.19210  Biso   1.000  H
  H93      1.0000 0.91270  0.53350  0.30790  Biso   1.000  H
  H94      1.0000 0.91270  0.46650  0.80790  Biso   1.000  H
  H95      1.0000 0.41270  0.03350  0.30790  Biso   1.000  H
  H96      1.0000 0.41270  0.96650  0.80790  Biso   1.000  H
  H97      1.0000 0.11870  0.54730  0.66890  Biso   1.000  H
  H98      1.0000 0.11870  0.45270  0.16890  Biso   1.000  H
  H99      1.0000 0.61870  0.04730  0.66890  Biso   1.000  H
  H100     1.0000 0.61870  0.95270  0.16890  Biso   1.000  H
  H101     1.0000 0.88130  0.45270  0.33110  Biso   1.000  H
  H102     1.0000 0.88130  0.54730  0.83110  Biso   1.000  H
  H103     1.0000 0.38130  0.95270  0.33110  Biso   1.000  H
  H104     1.0000 0.38130  0.04730  0.83110  Biso   1.000  H
  H105     1.0000 0.12840  0.37690  0.61230  Biso   1.000  H
  H106     1.0000 0.12840  0.62310  0.11230  Biso   1.000  H
  H107     1.0000 0.62840  0.87690  0.61230  Biso   1.000  H
  H108     1.0000 0.62840  0.12310  0.11230  Biso   1.000  H
  H109     1.0000 0.87160  0.62310  0.38770  Biso   1.000  H
  H110     1.0000 0.87160  0.37690  0.88770  Biso   1.000  H
  H111     1.0000 0.37160  0.12310  0.38770  Biso   1.000  H
  H112     1.0000 0.37160  0.87690  0.88770  Biso   1.000  H
  H113     1.0000 0.08150  0.32750  0.61860  Biso   1.000  H
  H114     1.0000 0.08150  0.67250  0.11860  Biso   1.000  H
  H115     1.0000 0.58150  0.82750  0.61860  Biso   1.000  H
  H116     1.0000 0.58150  0.17250  0.11860  Biso   1.000  H
  H117     1.0000 0.91850  0.67250  0.38140  Biso   1.000  H
  H118     1.0000 0.91850  0.32750  0.88140  Biso   1.000  H
  H119     1.0000 0.41850  0.17250  0.38140  Biso   1.000  H
  H120     1.0000 0.41850  0.82750  0.88140  Biso   1.000  H
  H121     1.0000 0.07950  0.48190  0.53590  Biso   1.000  H
  H122     1.0000 0.07950  0.51810  0.03590  Biso   1.000  H
  H123     1.0000 0.57950  0.98190  0.53590  Biso   1.000  H
  H124     1.0000 0.57950  0.01810  0.03590  Biso   1.000  H
  H125     1.0000 0.92050  0.51810  0.46410  Biso   1.000  H
  H126     1.0000 0.92050  0.48190  0.96410  Biso   1.000  H
  H127     1.0000 0.42050  0.01810  0.46410  Biso   1.000  H
  H128     1.0000 0.42050  0.98190  0.96410  Biso   1.000  H
  H129     1.0000 0.06360  0.35110  0.51940  Biso   1.000  H
  H130     1.0000 0.06360  0.64890  0.01940  Biso   1.000  H
  H131     1.0000 0.56360  0.85110  0.51940  Biso   1.000  H
  H132     1.0000 0.56360  0.14890  0.01940  Biso   1.000  H
  H133     1.0000 0.93640  0.64890  0.48060  Biso   1.000  H
  H134     1.0000 0.93640  0.35110  0.98060  Biso   1.000  H
  H135     1.0000 0.43640  0.14890  0.48060  Biso   1.000  H
  H136     1.0000 0.43640  0.85110  0.98060  Biso   1.000  H
  H137     1.0000 0.03250  0.43330  0.54240  Biso   1.000  H
  H138     1.0000 0.03250  0.56670  0.04240  Biso   1.000  H
  H139     1.0000 0.53250  0.93330  0.54240  Biso   1.000  H
  H140     1.0000 0.53250  0.06670  0.04240  Biso   1.000  H
  H141     1.0000 0.96750  0.56670  0.45760  Biso   1.000  H
  H142     1.0000 0.96750  0.43330  0.95760  Biso   1.000  H
  H143     1.0000 0.46750  0.06670  0.45760  Biso   1.000  H
  H144     1.0000 0.46750  0.93330  0.95760  Biso   1.000  H
  H145     1.0000 0.22460  0.61830  0.78430  Biso   1.000  H
  H146     1.0000 0.22460  0.38170  0.28430  Biso   1.000  H
  H147     1.0000 0.72460  0.11830  0.78430  Biso   1.000  H
  H148     1.0000 0.72460  0.88170  0.28430  Biso   1.000  H
  H149     1.0000 0.77540  0.38170  0.21570  Biso   1.000  H
  H150     1.0000 0.77540  0.61830  0.71570  Biso   1.000  H
  H151     1.0000 0.27540  0.88170  0.21570  Biso   1.000  H
  H152     1.0000 0.27540  0.11830  0.71570  Biso   1.000  H
  H153     1.0000 0.16770  0.66020  0.76370  Biso   1.000  H
  H154     1.0000 0.16770  0.33980  0.26370  Biso   1.000  H
  H155     1.0000 0.66770  0.16020  0.76370  Biso   1.000  H
  H156     1.0000 0.66770  0.83980  0.26370  Biso   1.000  H
  H157     1.0000 0.83230  0.33980  0.23630  Biso   1.000  H
  H158     1.0000 0.83230  0.66020  0.73630  Biso   1.000  H
  H159     1.0000 0.33230  0.83980  0.23630  Biso   1.000  H
  H160     1.0000 0.33230  0.16020  0.73630  Biso   1.000  H
  H161     1.0000 0.20630  0.72370  0.88610  Biso   1.000  H
  H162     1.0000 0.20630  0.27630  0.38610  Biso   1.000  H
  H163     1.0000 0.70630  0.22370  0.88610  Biso   1.000  H
  H164     1.0000 0.70630  0.77630  0.38610  Biso   1.000  H
  H165     1.0000 0.79370  0.27630  0.11390  Biso   1.000  H
  H166     1.0000 0.79370  0.72370  0.61390  Biso   1.000  H
  H167     1.0000 0.29370  0.77630  0.11390  Biso   1.000  H
  H168     1.0000 0.29370  0.22370  0.61390  Biso   1.000  H
  H169     1.0000 0.26280  0.69040  0.90120  Biso   1.000  H
  H170     1.0000 0.26280  0.30960  0.40120  Biso   1.000  H
  H171     1.0000 0.76280  0.19040  0.90120  Biso   1.000  H
  H172     1.0000 0.76280  0.80960  0.40120  Biso   1.000  H
  H173     1.0000 0.73720  0.30960  0.09880  Biso   1.000  H
  H174     1.0000 0.73720  0.69040  0.59880  Biso   1.000  H
  H175     1.0000 0.23720  0.80960  0.09880  Biso   1.000  H
  H176     1.0000 0.23720  0.19040  0.59880  Biso   1.000  H
  H177     1.0000 0.25330  0.82560  0.81590  Biso   1.000  H
  H178     1.0000 0.25330  0.17440  0.31590  Biso   1.000  H
  H179     1.0000 0.75330  0.32560  0.81590  Biso   1.000  H
  H180     1.0000 0.75330  0.67440  0.31590  Biso   1.000  H
  H181     1.0000 0.74670  0.17440  0.18410  Biso   1.000  H
  H182     1.0000 0.74670  0.82560  0.68410  Biso   1.000  H
  H183     1.0000 0.24670  0.67440  0.18410  Biso   1.000  H
  H184     1.0000 0.24670  0.32560  0.68410  Biso   1.000  H
  H185     1.0000 0.19620  0.85790  0.79890  Biso   1.000  H
  H186     1.0000 0.19620  0.14210  0.29890  Biso   1.000  H
  H187     1.0000 0.69620  0.35790  0.79890  Biso   1.000  H
  H188     1.0000 0.69620  0.64210  0.29890  Biso   1.000  H
  H189     1.0000 0.80380  0.14210  0.20110  Biso   1.000  H
  H190     1.0000 0.80380  0.85790  0.70110  Biso   1.000  H
  H191     1.0000 0.30380  0.64210  0.20110  Biso   1.000  H
  H192     1.0000 0.30380  0.35790  0.70110  Biso   1.000  H
  H193     1.0000 0.29190  0.89910  0.93500  Biso   1.000  H
  H194     1.0000 0.29190  0.10090  0.43500  Biso   1.000  H
  H195     1.0000 0.79190  0.39910  0.93500  Biso   1.000  H
  H196     1.0000 0.79190  0.60090  0.43500  Biso   1.000  H
  H197     1.0000 0.70810  0.10090  0.06500  Biso   1.000  H
  H198     1.0000 0.70810  0.89910  0.56500  Biso   1.000  H
  H199     1.0000 0.20810  0.60090  0.06500  Biso   1.000  H
  H200     1.0000 0.20810  0.39910  0.56500  Biso   1.000  H
  H201     1.0000 0.25710  0.99370  0.87450  Biso   1.000  H
  H202     1.0000 0.25710  0.00630  0.37450  Biso   1.000  H
  H203     1.0000 0.75710  0.49370  0.87450  Biso   1.000  H
  H204     1.0000 0.75710  0.50630  0.37450  Biso   1.000  H
  H205     1.0000 0.74290  0.00630  0.12550  Biso   1.000  H
  H206     1.0000 0.74290  0.99370  0.62550  Biso   1.000  H
  H207     1.0000 0.24290  0.50630  0.12550  Biso   1.000  H
  H208     1.0000 0.24290  0.49370  0.62550  Biso   1.000  H
  H209     1.0000 0.23480  0.93080  0.91840  Biso   1.000  H
  H210     1.0000 0.23480  0.06920  0.41840  Biso   1.000  H
  H211     1.0000 0.73480  0.43080  0.91840  Biso   1.000  H
  H212     1.0000 0.73480  0.56920  0.41840  Biso   1.000  H
  H213     1.0000 0.76520  0.06920  0.08160  Biso   1.000  H
  H214     1.0000 0.76520  0.93080  0.58160  Biso   1.000  H
  H215     1.0000 0.26520  0.56920  0.08160  Biso   1.000  H
  H216     1.0000 0.26520  0.43080  0.58160  Biso   1.000  H
  H217     1.0000 0.25800  0.51260  0.92470  Biso   1.000  H
  H218     1.0000 0.25800  0.48740  0.42470  Biso   1.000  H
  H219     1.0000 0.75800  0.01260  0.92470  Biso   1.000  H
  H220     1.0000 0.75800  0.98740  0.42470  Biso   1.000  H
  H221     1.0000 0.74200  0.48740  0.07530  Biso   1.000  H
  H222     1.0000 0.74200  0.51260  0.57530  Biso   1.000  H
  H223     1.0000 0.24200  0.98740  0.07530  Biso   1.000  H
  H224     1.0000 0.24200  0.01260  0.57530  Biso   1.000  H
  H225     1.0000 0.22890  0.39260  0.90160  Biso   1.000  H
  H226     1.0000 0.22890  0.60740  0.40160  Biso   1.000  H
  H227     1.0000 0.72890  0.89260  0.90160  Biso   1.000  H
  H228     1.0000 0.72890  0.10740  0.40160  Biso   1.000  H
  H229     1.0000 0.77110  0.60740  0.09840  Biso   1.000  H
  H230     1.0000 0.77110  0.39260  0.59840  Biso   1.000  H
  H231     1.0000 0.27110  0.10740  0.09840  Biso   1.000  H
  H232     1.0000 0.27110  0.89260  0.59840  Biso   1.000  H
  H233     1.0000 0.26270  0.36470  0.82920  Biso   1.000  H
  H234     1.0000 0.26270  0.63530  0.32920  Biso   1.000  H
  H235     1.0000 0.76270  0.86470  0.82920  Biso   1.000  H
  H236     1.0000 0.76270  0.13530  0.32920  Biso   1.000  H
  H237     1.0000 0.73730  0.63530  0.17080  Biso   1.000  H
  H238     1.0000 0.73730  0.36470  0.67080  Biso   1.000  H
  H239     1.0000 0.23730  0.13530  0.17080  Biso   1.000  H
  H240     1.0000 0.23730  0.86470  0.67080  Biso   1.000  H
  H241     1.0000 0.29640  0.47800  0.86400  Biso   1.000  H
  H242     1.0000 0.29640  0.52200  0.36400  Biso   1.000  H
  H243     1.0000 0.79640  0.97800  0.86400  Biso   1.000  H
  H244     1.0000 0.79640  0.02200  0.36400  Biso   1.000  H
  H245     1.0000 0.70360  0.52200  0.13600  Biso   1.000  H
  H246     1.0000 0.70360  0.47800  0.63600  Biso   1.000  H
  H247     1.0000 0.20360  0.02200  0.13600  Biso   1.000  H
  H248     1.0000 0.20360  0.97800  0.63600  Biso   1.000  H
  H249     1.0000 0.34680  0.38930  0.98050  Biso   1.000  H
  H250     1.0000 0.34680  0.61070  0.48050  Biso   1.000  H
  H251     1.0000 0.84680  0.88930  0.98050  Biso   1.000  H
  H252     1.0000 0.84680  0.11070  0.48050  Biso   1.000  H
  H253     1.0000 0.65320  0.61070  0.01950  Biso   1.000  H
  H254     1.0000 0.65320  0.38930  0.51950  Biso   1.000  H
  H255     1.0000 0.15320  0.11070  0.01950  Biso   1.000  H
  H256     1.0000 0.15320  0.88930  0.51950  Biso   1.000  H
  H257     1.0000 0.31260  0.27640  0.94690  Biso   1.000  H
  H258     1.0000 0.31260  0.72360  0.44690  Biso   1.000  H
  H259     1.0000 0.81260  0.77640  0.94690  Biso   1.000  H
  H260     1.0000 0.81260  0.22360  0.44690  Biso   1.000  H
  H261     1.0000 0.68740  0.72360  0.05310  Biso   1.000  H
  H262     1.0000 0.68740  0.27640  0.55310  Biso   1.000  H
  H263     1.0000 0.18740  0.22360  0.05310  Biso   1.000  H
  H264     1.0000 0.18740  0.77640  0.55310  Biso   1.000  H
  H265     1.0000 0.39020  0.25870  0.96260  Biso   1.000  H
  H266     1.0000 0.39020  0.74130  0.46260  Biso   1.000  H
  H267     1.0000 0.89020  0.75870  0.96260  Biso   1.000  H
  H268     1.0000 0.89020  0.24130  0.46260  Biso   1.000  H
  H269     1.0000 0.60980  0.74130  0.03740  Biso   1.000  H
  H270     1.0000 0.60980  0.25870  0.53740  Biso   1.000  H
  H271     1.0000 0.10980  0.24130  0.03740  Biso   1.000  H
  H272     1.0000 0.10980  0.75870  0.53740  Biso   1.000  H
  H273     1.0000 0.34440  0.25300  0.87650  Biso   1.000  H
  H274     1.0000 0.34440  0.74700  0.37650  Biso   1.000  H
  H275     1.0000 0.84440  0.75300  0.87650  Biso   1.000  H
  H276     1.0000 0.84440  0.24700  0.37650  Biso   1.000  H
  H277     1.0000 0.65560  0.74700  0.12350  Biso   1.000  H
  H278     1.0000 0.65560  0.25300  0.62350  Biso   1.000  H
  H279     1.0000 0.15560  0.24700  0.12350  Biso   1.000  H
  H280     1.0000 0.15560  0.75300  0.62350  Biso   1.000  H
  H281     1.0000 0.37870  0.36580  0.91010  Biso   1.000  H
  H282     1.0000 0.37870  0.63420  0.41010  Biso   1.000  H
  H283     1.0000 0.87870  0.86580  0.91010  Biso   1.000  H
  H284     1.0000 0.87870  0.13420  0.41010  Biso   1.000  H
  H285     1.0000 0.62130  0.63420  0.08990  Biso   1.000  H
  H286     1.0000 0.62130  0.36580  0.58990  Biso   1.000  H
  H287     1.0000 0.12130  0.13420  0.08990  Biso   1.000  H
  H288     1.0000 0.12130  0.86580  0.58990  Biso   1.000  H
