data_image0
_cell_length_a       29.22
_cell_length_b       11.457
_cell_length_c       20.43
_cell_angle_alpha    90
_cell_angle_beta     121.87
_cell_angle_gamma    90

_symmetry_space_group_name_H-M    "P 1"
_symmetry_int_tables_number       1

loop_
  _symmetry_equiv_pos_as_xyz
  'x, y, z'

loop_
  _atom_site_label
  _atom_site_occupancy
  _atom_site_fract_x
  _atom_site_fract_y
  _atom_site_fract_z
  _atom_site_thermal_displace_type
  _atom_site_B_iso_or_equiv
  _atom_site_type_symbol
  I1       1.0000 0.87000  0.17862  0.55936  Biso   1.000  I
  I2       1.0000 0.87000  0.82138  0.05936  Biso   1.000  I
  I3       1.0000 0.37000  0.67862  0.55936  Biso   1.000  I
  I4       1.0000 0.37000  0.32138  0.05936  Biso   1.000  I
  I5       1.0000 0.13000  0.82138  0.44064  Biso   1.000  I
  I6       1.0000 0.13000  0.17862  0.94064  Biso   1.000  I
  I7       1.0000 0.63000  0.32138  0.44064  Biso   1.000  I
  I8       1.0000 0.63000  0.67862  0.94064  Biso   1.000  I
  I9       1.0000 0.04398  0.22862  0.68497  Biso   1.000  I
  I10      1.0000 0.04398  0.77138  0.18497  Biso   1.000  I
  I11      1.0000 0.54398  0.72862  0.68497  Biso   1.000  I
  I12      1.0000 0.54398  0.27138  0.18497  Biso   1.000  I
  I13      1.0000 0.95602  0.77138  0.31503  Biso   1.000  I
  I14      1.0000 0.95602  0.22862  0.81503  Biso   1.000  I
  I15      1.0000 0.45602  0.27138  0.31503  Biso   1.000  I
  I16      1.0000 0.45602  0.72862  0.81503  Biso   1.000  I
  Cu1      1.0000 0.96092  0.10054  0.58483  Biso   1.000  Cu
  Cu2      1.0000 0.96092  0.89946  0.08483  Biso   1.000  Cu
  Cu3      1.0000 0.46092  0.60054  0.58483  Biso   1.000  Cu
  Cu4      1.0000 0.46092  0.39946  0.08483  Biso   1.000  Cu
  Cu5      1.0000 0.03908  0.89946  0.41517  Biso   1.000  Cu
  Cu6      1.0000 0.03908  0.10054  0.91517  Biso   1.000  Cu
  Cu7      1.0000 0.53908  0.39946  0.41517  Biso   1.000  Cu
  Cu8      1.0000 0.53908  0.60054  0.91517  Biso   1.000  Cu
  Cu9      1.0000 0.92772  0.10650  0.69630  Biso   1.000  Cu
  Cu10     1.0000 0.92772  0.89350  0.19630  Biso   1.000  Cu
  Cu11     1.0000 0.42772  0.60650  0.69630  Biso   1.000  Cu
  Cu12     1.0000 0.42772  0.39350  0.19630  Biso   1.000  Cu
  Cu13     1.0000 0.07228  0.89350  0.30370  Biso   1.000  Cu
  Cu14     1.0000 0.07228  0.10650  0.80370  Biso   1.000  Cu
  Cu15     1.0000 0.57228  0.39350  0.30370  Biso   1.000  Cu
  Cu16     1.0000 0.57228  0.60650  0.80370  Biso   1.000  Cu
  Cu17     1.0000 0.04540  0.15400  0.79780  Biso   1.000  Cu
  Cu18     1.0000 0.04540  0.84600  0.29780  Biso   1.000  Cu
  Cu19     1.0000 0.54540  0.65400  0.79780  Biso   1.000  Cu
  Cu20     1.0000 0.54540  0.34600  0.29780  Biso   1.000  Cu
  Cu21     1.0000 0.95460  0.84600  0.20220  Biso   1.000  Cu
  Cu22     1.0000 0.95460  0.15400  0.70220  Biso   1.000  Cu
  Cu23     1.0000 0.45460  0.34600  0.20220  Biso   1.000  Cu
  Cu24     1.0000 0.45460  0.65400  0.70220  Biso   1.000  Cu
  Ni1      1.0000 0.00000  0.91082  0.75000  Biso   1.000  Ni
  Ni2      1.0000 0.00000  0.08918  0.25000  Biso   1.000  Ni
  Ni3      1.0000 0.50000  0.41082  0.75000  Biso   1.000  Ni
  Ni4      1.0000 0.50000  0.58918  0.25000  Biso   1.000  Ni
  S1       1.0000 0.98023  0.90670  0.63092  Biso   1.000  S
  S2       1.0000 0.98023  0.09330  0.13092  Biso   1.000  S
  S3       1.0000 0.48023  0.40670  0.63092  Biso   1.000  S
  S4       1.0000 0.48023  0.59330  0.13092  Biso   1.000  S
  S5       1.0000 0.01977  0.09330  0.36908  Biso   1.000  S
  S6       1.0000 0.01977  0.90670  0.86908  Biso   1.000  S
  S7       1.0000 0.51977  0.59330  0.36908  Biso   1.000  S
  S8       1.0000 0.51977  0.40670  0.86908  Biso   1.000  S
  S9       1.0000 0.91359  0.90730  0.70464  Biso   1.000  S
  S10      1.0000 0.91359  0.09270  0.20464  Biso   1.000  S
  S11      1.0000 0.41359  0.40730  0.70464  Biso   1.000  S
  S12      1.0000 0.41359  0.59270  0.20464  Biso   1.000  S
  S13      1.0000 0.08641  0.09270  0.29536  Biso   1.000  S
  S14      1.0000 0.08641  0.90730  0.79536  Biso   1.000  S
  S15      1.0000 0.58641  0.59270  0.29536  Biso   1.000  S
  S16      1.0000 0.58641  0.40730  0.79536  Biso   1.000  S
  N1       1.0000 0.04340  0.89640  0.51600  Biso   1.000  N
  N2       1.0000 0.04340  0.10360  0.01600  Biso   1.000  N
  N3       1.0000 0.54340  0.39640  0.51600  Biso   1.000  N
  N4       1.0000 0.54340  0.60360  0.01600  Biso   1.000  N
  N5       1.0000 0.95660  0.10360  0.48400  Biso   1.000  N
  N6       1.0000 0.95660  0.89640  0.98400  Biso   1.000  N
  N7       1.0000 0.45660  0.60360  0.48400  Biso   1.000  N
  N8       1.0000 0.45660  0.39640  0.98400  Biso   1.000  N
  N9       1.0000 0.81600  0.88150  0.76670  Biso   1.000  N
  N10      1.0000 0.81600  0.11850  0.26670  Biso   1.000  N
  N11      1.0000 0.31600  0.38150  0.76670  Biso   1.000  N
  N12      1.0000 0.31600  0.61850  0.26670  Biso   1.000  N
  N13      1.0000 0.18400  0.11850  0.23330  Biso   1.000  N
  N14      1.0000 0.18400  0.88150  0.73330  Biso   1.000  N
  N15      1.0000 0.68400  0.61850  0.23330  Biso   1.000  N
  N16      1.0000 0.68400  0.38150  0.73330  Biso   1.000  N
  N17      1.0000 0.30780  0.00990  0.17630  Biso   1.000  N
  N18      1.0000 0.30780  0.99010  0.67630  Biso   1.000  N
  N19      1.0000 0.80780  0.50990  0.17630  Biso   1.000  N
  N20      1.0000 0.80780  0.49010  0.67630  Biso   1.000  N
  N21      1.0000 0.69220  0.99010  0.82370  Biso   1.000  N
  N22      1.0000 0.69220  0.00990  0.32370  Biso   1.000  N
  N23      1.0000 0.19220  0.49010  0.82370  Biso   1.000  N
  N24      1.0000 0.19220  0.50990  0.32370  Biso   1.000  N
  C1       1.0000 0.04360  0.90100  0.64160  Biso   1.000  C
  C2       1.0000 0.04360  0.09900  0.14160  Biso   1.000  C
  C3       1.0000 0.54360  0.40100  0.64160  Biso   1.000  C
  C4       1.0000 0.54360  0.59900  0.14160  Biso   1.000  C
  C5       1.0000 0.95640  0.09900  0.35840  Biso   1.000  C
  C6       1.0000 0.95640  0.90100  0.85840  Biso   1.000  C
  C7       1.0000 0.45640  0.59900  0.35840  Biso   1.000  C
  C8       1.0000 0.45640  0.40100  0.85840  Biso   1.000  C
  C9       1.0000 0.91090  0.89910  0.78810  Biso   1.000  C
  C10      1.0000 0.91090  0.10090  0.28810  Biso   1.000  C
  C11      1.0000 0.41090  0.39910  0.78810  Biso   1.000  C
  C12      1.0000 0.41090  0.60090  0.28810  Biso   1.000  C
  C13      1.0000 0.08910  0.10090  0.21190  Biso   1.000  C
  C14      1.0000 0.08910  0.89910  0.71190  Biso   1.000  C
  C15      1.0000 0.58910  0.60090  0.21190  Biso   1.000  C
  C16      1.0000 0.58910  0.39910  0.71190  Biso   1.000  C
  C17      1.0000 0.04480  0.89890  0.57240  Biso   1.000  C
  C18      1.0000 0.04480  0.10110  0.07240  Biso   1.000  C
  C19      1.0000 0.54480  0.39890  0.57240  Biso   1.000  C
  C20      1.0000 0.54480  0.60110  0.07240  Biso   1.000  C
  C21      1.0000 0.95520  0.10110  0.42760  Biso   1.000  C
  C22      1.0000 0.95520  0.89890  0.92760  Biso   1.000  C
  C23      1.0000 0.45520  0.60110  0.42760  Biso   1.000  C
  C24      1.0000 0.45520  0.39890  0.92760  Biso   1.000  C
  C25      1.0000 0.85810  0.89140  0.77680  Biso   1.000  C
  C26      1.0000 0.85810  0.10860  0.27680  Biso   1.000  C
  C27      1.0000 0.35810  0.39140  0.77680  Biso   1.000  C
  C28      1.0000 0.35810  0.60860  0.27680  Biso   1.000  C
  C29      1.0000 0.14190  0.10860  0.22320  Biso   1.000  C
  C30      1.0000 0.14190  0.89140  0.72320  Biso   1.000  C
  C31      1.0000 0.64190  0.60860  0.22320  Biso   1.000  C
  C32      1.0000 0.64190  0.39140  0.72320  Biso   1.000  C
  C33      1.0000 0.34750  0.02400  0.15030  Biso   1.000  C
  C34      1.0000 0.34750  0.97600  0.65030  Biso   1.000  C
  C35      1.0000 0.84750  0.52400  0.15030  Biso   1.000  C
  C36      1.0000 0.84750  0.47600  0.65030  Biso   1.000  C
  C37      1.0000 0.65250  0.97600  0.84970  Biso   1.000  C
  C38      1.0000 0.65250  0.02400  0.34970  Biso   1.000  C
  C39      1.0000 0.15250  0.47600  0.84970  Biso   1.000  C
  C40      1.0000 0.15250  0.52400  0.34970  Biso   1.000  C
  C41      1.0000 0.37500  0.92800  0.14100  Biso   1.000  C
  C42      1.0000 0.37500  0.07200  0.64100  Biso   1.000  C
  C43      1.0000 0.87500  0.42800  0.14100  Biso   1.000  C
  C44      1.0000 0.87500  0.57200  0.64100  Biso   1.000  C
  C45      1.0000 0.62500  0.07200  0.85900  Biso   1.000  C
  C46      1.0000 0.62500  0.92800  0.35900  Biso   1.000  C
  C47      1.0000 0.12500  0.57200  0.85900  Biso   1.000  C
  C48      1.0000 0.12500  0.42800  0.35900  Biso   1.000  C
  C49      1.0000 0.40760  0.94300  0.11200  Biso   1.000  C
  C50      1.0000 0.40760  0.05700  0.61200  Biso   1.000  C
  C51      1.0000 0.90760  0.44300  0.11200  Biso   1.000  C
  C52      1.0000 0.90760  0.55700  0.61200  Biso   1.000  C
  C53      1.0000 0.59240  0.05700  0.88800  Biso   1.000  C
  C54      1.0000 0.59240  0.94300  0.38800  Biso   1.000  C
  C55      1.0000 0.09240  0.55700  0.88800  Biso   1.000  C
  C56      1.0000 0.09240  0.44300  0.38800  Biso   1.000  C
  C57      1.0000 0.45520  0.93800  0.14100  Biso   1.000  C
  C58      1.0000 0.45520  0.06200  0.64100  Biso   1.000  C
  C59      1.0000 0.95520  0.43800  0.14100  Biso   1.000  C
  C60      1.0000 0.95520  0.56200  0.64100  Biso   1.000  C
  C61      1.0000 0.54480  0.06200  0.85900  Biso   1.000  C
  C62      1.0000 0.54480  0.93800  0.35900  Biso   1.000  C
  C63      1.0000 0.04480  0.56200  0.85900  Biso   1.000  C
  C64      1.0000 0.04480  0.43800  0.35900  Biso   1.000  C
  C65      1.0000 0.33230  0.93700  0.25090  Biso   1.000  C
  C66      1.0000 0.33230  0.06300  0.75090  Biso   1.000  C
  C67      1.0000 0.83230  0.43700  0.25090  Biso   1.000  C
  C68      1.0000 0.83230  0.56300  0.75090  Biso   1.000  C
  C69      1.0000 0.66770  0.06300  0.74910  Biso   1.000  C
  C70      1.0000 0.66770  0.93700  0.24910  Biso   1.000  C
  C71      1.0000 0.16770  0.56300  0.74910  Biso   1.000  C
  C72      1.0000 0.16770  0.43700  0.24910  Biso   1.000  C
  C73      1.0000 0.38190  0.96800  0.31830  Biso   1.000  C
  C74      1.0000 0.38190  0.03200  0.81830  Biso   1.000  C
  C75      1.0000 0.88190  0.46800  0.31830  Biso   1.000  C
  C76      1.0000 0.88190  0.53200  0.81830  Biso   1.000  C
  C77      1.0000 0.61810  0.03200  0.68170  Biso   1.000  C
  C78      1.0000 0.61810  0.96800  0.18170  Biso   1.000  C
  C79      1.0000 0.11810  0.53200  0.68170  Biso   1.000  C
  C80      1.0000 0.11810  0.46800  0.18170  Biso   1.000  C
  C81      1.0000 0.39740  0.90000  0.38900  Biso   1.000  C
  C82      1.0000 0.39740  0.10000  0.88900  Biso   1.000  C
  C83      1.0000 0.89740  0.40000  0.38900  Biso   1.000  C
  C84      1.0000 0.89740  0.60000  0.88900  Biso   1.000  C
  C85      1.0000 0.60260  0.10000  0.61100  Biso   1.000  C
  C86      1.0000 0.60260  0.90000  0.11100  Biso   1.000  C
  C87      1.0000 0.10260  0.60000  0.61100  Biso   1.000  C
  C88      1.0000 0.10260  0.40000  0.11100  Biso   1.000  C
  C89      1.0000 0.43850  0.91800  0.45000  Biso   1.000  C
  C90      1.0000 0.43850  0.08200  0.95000  Biso   1.000  C
  C91      1.0000 0.93850  0.41800  0.45000  Biso   1.000  C
  C92      1.0000 0.93850  0.58200  0.95000  Biso   1.000  C
  C93      1.0000 0.56150  0.08200  0.55000  Biso   1.000  C
  C94      1.0000 0.56150  0.91800  0.05000  Biso   1.000  C
  C95      1.0000 0.06150  0.58200  0.55000  Biso   1.000  C
  C96      1.0000 0.06150  0.41800  0.05000  Biso   1.000  C
  C97      1.0000 0.25820  0.95030  0.11030  Biso   1.000  C
  C98      1.0000 0.25820  0.04970  0.61030  Biso   1.000  C
  C99      1.0000 0.75820  0.45030  0.11030  Biso   1.000  C
  C100     1.0000 0.75820  0.54970  0.61030  Biso   1.000  C
  C101     1.0000 0.74180  0.04970  0.88970  Biso   1.000  C
  C102     1.0000 0.74180  0.95030  0.38970  Biso   1.000  C
  C103     1.0000 0.24180  0.54970  0.88970  Biso   1.000  C
  C104     1.0000 0.24180  0.45030  0.38970  Biso   1.000  C
  C105     1.0000 0.21510  0.92500  0.12410  Biso   1.000  C
  C106     1.0000 0.21510  0.07500  0.62410  Biso   1.000  C
  C107     1.0000 0.71510  0.42500  0.12410  Biso   1.000  C
  C108     1.0000 0.71510  0.57500  0.62410  Biso   1.000  C
  C109     1.0000 0.78490  0.07500  0.87590  Biso   1.000  C
  C110     1.0000 0.78490  0.92500  0.37590  Biso   1.000  C
  C111     1.0000 0.28490  0.57500  0.87590  Biso   1.000  C
  C112     1.0000 0.28490  0.42500  0.37590  Biso   1.000  C
  C113     1.0000 0.17090  0.85200  0.06170  Biso   1.000  C
  C114     1.0000 0.17090  0.14800  0.56170  Biso   1.000  C
  C115     1.0000 0.67090  0.35200  0.06170  Biso   1.000  C
  C116     1.0000 0.67090  0.64800  0.56170  Biso   1.000  C
  C117     1.0000 0.82910  0.14800  0.93830  Biso   1.000  C
  C118     1.0000 0.82910  0.85200  0.43830  Biso   1.000  C
  C119     1.0000 0.32910  0.64800  0.93830  Biso   1.000  C
  C120     1.0000 0.32910  0.35200  0.43830  Biso   1.000  C
  C121     1.0000 0.13780  0.80500  0.08160  Biso   1.000  C
  C122     1.0000 0.13780  0.19500  0.58160  Biso   1.000  C
  C123     1.0000 0.63780  0.30500  0.08160  Biso   1.000  C
  C124     1.0000 0.63780  0.69500  0.58160  Biso   1.000  C
  C125     1.0000 0.86220  0.19500  0.91840  Biso   1.000  C
  C126     1.0000 0.86220  0.80500  0.41840  Biso   1.000  C
  C127     1.0000 0.36220  0.69500  0.91840  Biso   1.000  C
  C128     1.0000 0.36220  0.30500  0.41840  Biso   1.000  C
  C129     1.0000 0.29620  0.12880  0.19570  Biso   1.000  C
  C130     1.0000 0.29620  0.87120  0.69570  Biso   1.000  C
  C131     1.0000 0.79620  0.62880  0.19570  Biso   1.000  C
  C132     1.0000 0.79620  0.37120  0.69570  Biso   1.000  C
  C133     1.0000 0.70380  0.87120  0.80430  Biso   1.000  C
  C134     1.0000 0.70380  0.12880  0.30430  Biso   1.000  C
  C135     1.0000 0.20380  0.37120  0.80430  Biso   1.000  C
  C136     1.0000 0.20380  0.62880  0.30430  Biso   1.000  C
  C137     1.0000 0.27290  0.21660  0.13450  Biso   1.000  C
  C138     1.0000 0.27290  0.78340  0.63450  Biso   1.000  C
  C139     1.0000 0.77290  0.71660  0.13450  Biso   1.000  C
  C140     1.0000 0.77290  0.28340  0.63450  Biso   1.000  C
  C141     1.0000 0.72710  0.78340  0.86550  Biso   1.000  C
  C142     1.0000 0.72710  0.21660  0.36550  Biso   1.000  C
  C143     1.0000 0.22710  0.28340  0.86550  Biso   1.000  C
  C144     1.0000 0.22710  0.71660  0.36550  Biso   1.000  C
  C145     1.0000 0.26700  0.33300  0.16250  Biso   1.000  C
  C146     1.0000 0.26700  0.66700  0.66250  Biso   1.000  C
  C147     1.0000 0.76700  0.83300  0.16250  Biso   1.000  C
  C148     1.0000 0.76700  0.16700  0.66250  Biso   1.000  C
  C149     1.0000 0.73300  0.66700  0.83750  Biso   1.000  C
  C150     1.0000 0.73300  0.33300  0.33750  Biso   1.000  C
  C151     1.0000 0.23300  0.16700  0.83750  Biso   1.000  C
  C152     1.0000 0.23300  0.83300  0.33750  Biso   1.000  C
  C153     1.0000 0.24470  0.42410  0.09980  Biso   1.000  C
  C154     1.0000 0.24470  0.57590  0.59980  Biso   1.000  C
  C155     1.0000 0.74470  0.92410  0.09980  Biso   1.000  C
  C156     1.0000 0.74470  0.07590  0.59980  Biso   1.000  C
  C157     1.0000 0.75530  0.57590  0.90020  Biso   1.000  C
  C158     1.0000 0.75530  0.42410  0.40020  Biso   1.000  C
  C159     1.0000 0.25530  0.07590  0.90020  Biso   1.000  C
  C160     1.0000 0.25530  0.92410  0.40020  Biso   1.000  C
  H1       1.0000 0.32900  0.06420  0.10280  Biso   1.000  H
  H2       1.0000 0.32900  0.93580  0.60280  Biso   1.000  H
  H3       1.0000 0.82900  0.56420  0.10280  Biso   1.000  H
  H4       1.0000 0.82900  0.43580  0.60280  Biso   1.000  H
  H5       1.0000 0.67100  0.93580  0.89720  Biso   1.000  H
  H6       1.0000 0.67100  0.06420  0.39720  Biso   1.000  H
  H7       1.0000 0.17100  0.43580  0.89720  Biso   1.000  H
  H8       1.0000 0.17100  0.56420  0.39720  Biso   1.000  H
  H9       1.0000 0.37570  0.07220  0.18840  Biso   1.000  H
  H10      1.0000 0.37570  0.92780  0.68840  Biso   1.000  H
  H11      1.0000 0.87570  0.57220  0.18840  Biso   1.000  H
  H12      1.0000 0.87570  0.42780  0.68840  Biso   1.000  H
  H13      1.0000 0.62430  0.92780  0.81160  Biso   1.000  H
  H14      1.0000 0.62430  0.07220  0.31160  Biso   1.000  H
  H15      1.0000 0.12430  0.42780  0.81160  Biso   1.000  H
  H16      1.0000 0.12430  0.57220  0.31160  Biso   1.000  H
  H17      1.0000 0.39390  0.88770  0.18780  Biso   1.000  H
  H18      1.0000 0.39390  0.11230  0.68780  Biso   1.000  H
  H19      1.0000 0.89390  0.38770  0.18780  Biso   1.000  H
  H20      1.0000 0.89390  0.61230  0.68780  Biso   1.000  H
  H21      1.0000 0.60610  0.11230  0.81220  Biso   1.000  H
  H22      1.0000 0.60610  0.88770  0.31220  Biso   1.000  H
  H23      1.0000 0.10610  0.61230  0.81220  Biso   1.000  H
  H24      1.0000 0.10610  0.38770  0.31220  Biso   1.000  H
  H25      1.0000 0.34600  0.87610  0.10330  Biso   1.000  H
  H26      1.0000 0.34600  0.12390  0.60330  Biso   1.000  H
  H27      1.0000 0.84600  0.37610  0.10330  Biso   1.000  H
  H28      1.0000 0.84600  0.62390  0.60330  Biso   1.000  H
  H29      1.0000 0.65400  0.12390  0.89670  Biso   1.000  H
  H30      1.0000 0.65400  0.87610  0.39670  Biso   1.000  H
  H31      1.0000 0.15400  0.62390  0.89670  Biso   1.000  H
  H32      1.0000 0.15400  0.37610  0.39670  Biso   1.000  H
  H33      1.0000 0.39420  0.89530  0.06930  Biso   1.000  H
  H34      1.0000 0.39420  0.10470  0.56930  Biso   1.000  H
  H35      1.0000 0.89420  0.39530  0.06930  Biso   1.000  H
  H36      1.0000 0.89420  0.60470  0.56930  Biso   1.000  H
  H37      1.0000 0.60580  0.10470  0.93070  Biso   1.000  H
  H38      1.0000 0.60580  0.89530  0.43070  Biso   1.000  H
  H39      1.0000 0.10580  0.60470  0.93070  Biso   1.000  H
  H40      1.0000 0.10580  0.39530  0.43070  Biso   1.000  H
  H41      1.0000 0.40270  0.02360  0.09760  Biso   1.000  H
  H42      1.0000 0.40270  0.97640  0.59760  Biso   1.000  H
  H43      1.0000 0.90270  0.52360  0.09760  Biso   1.000  H
  H44      1.0000 0.90270  0.47640  0.59760  Biso   1.000  H
  H45      1.0000 0.59730  0.97640  0.90240  Biso   1.000  H
  H46      1.0000 0.59730  0.02360  0.40240  Biso   1.000  H
  H47      1.0000 0.09730  0.47640  0.90240  Biso   1.000  H
  H48      1.0000 0.09730  0.52360  0.40240  Biso   1.000  H
  H49      1.0000 0.46680  0.85420  0.15830  Biso   1.000  H
  H50      1.0000 0.46680  0.14580  0.65830  Biso   1.000  H
  H51      1.0000 0.96680  0.35420  0.15830  Biso   1.000  H
  H52      1.0000 0.96680  0.64580  0.65830  Biso   1.000  H
  H53      1.0000 0.53320  0.14580  0.84170  Biso   1.000  H
  H54      1.0000 0.53320  0.85420  0.34170  Biso   1.000  H
  H55      1.0000 0.03320  0.64580  0.84170  Biso   1.000  H
  H56      1.0000 0.03320  0.35420  0.34170  Biso   1.000  H
  H57      1.0000 0.46670  0.95380  0.10670  Biso   1.000  H
  H58      1.0000 0.46670  0.04620  0.60670  Biso   1.000  H
  H59      1.0000 0.96670  0.45380  0.10670  Biso   1.000  H
  H60      1.0000 0.96670  0.54620  0.60670  Biso   1.000  H
  H61      1.0000 0.53330  0.04620  0.89330  Biso   1.000  H
  H62      1.0000 0.53330  0.95380  0.39330  Biso   1.000  H
  H63      1.0000 0.03330  0.54620  0.89330  Biso   1.000  H
  H64      1.0000 0.03330  0.45380  0.39330  Biso   1.000  H
  H65      1.0000 0.47530  0.98240  0.18670  Biso   1.000  H
  H66      1.0000 0.47530  0.01760  0.68670  Biso   1.000  H
  H67      1.0000 0.97530  0.48240  0.18670  Biso   1.000  H
  H68      1.0000 0.97530  0.51760  0.68670  Biso   1.000  H
  H69      1.0000 0.52470  0.01760  0.81330  Biso   1.000  H
  H70      1.0000 0.52470  0.98240  0.31330  Biso   1.000  H
  H71      1.0000 0.02470  0.51760  0.81330  Biso   1.000  H
  H72      1.0000 0.02470  0.48240  0.31330  Biso   1.000  H
  H73      1.0000 0.30610  0.93530  0.26520  Biso   1.000  H
  H74      1.0000 0.30610  0.06470  0.76520  Biso   1.000  H
  H75      1.0000 0.80610  0.43530  0.26520  Biso   1.000  H
  H76      1.0000 0.80610  0.56470  0.76520  Biso   1.000  H
  H77      1.0000 0.69390  0.06470  0.73480  Biso   1.000  H
  H78      1.0000 0.69390  0.93530  0.23480  Biso   1.000  H
  H79      1.0000 0.19390  0.56470  0.73480  Biso   1.000  H
  H80      1.0000 0.19390  0.43530  0.23480  Biso   1.000  H
  H81      1.0000 0.33680  0.85980  0.23770  Biso   1.000  H
  H82      1.0000 0.33680  0.14020  0.73770  Biso   1.000  H
  H83      1.0000 0.83680  0.35980  0.23770  Biso   1.000  H
  H84      1.0000 0.83680  0.64020  0.73770  Biso   1.000  H
  H85      1.0000 0.66320  0.14020  0.76230  Biso   1.000  H
  H86      1.0000 0.66320  0.85980  0.26230  Biso   1.000  H
  H87      1.0000 0.16320  0.64020  0.76230  Biso   1.000  H
  H88      1.0000 0.16320  0.35980  0.26230  Biso   1.000  H
  H89      1.0000 0.40910  0.96010  0.30670  Biso   1.000  H
  H90      1.0000 0.40910  0.03990  0.80670  Biso   1.000  H
  H91      1.0000 0.90910  0.46010  0.30670  Biso   1.000  H
  H92      1.0000 0.90910  0.53990  0.80670  Biso   1.000  H
  H93      1.0000 0.59090  0.03990  0.69330  Biso   1.000  H
  H94      1.0000 0.59090  0.96010  0.19330  Biso   1.000  H
  H95      1.0000 0.09090  0.53990  0.69330  Biso   1.000  H
  H96      1.0000 0.09090  0.46010  0.19330  Biso   1.000  H
  H97      1.0000 0.37900  0.04640  0.32960  Biso   1.000  H
  H98      1.0000 0.37900  0.95360  0.82960  Biso   1.000  H
  H99      1.0000 0.87900  0.54640  0.32960  Biso   1.000  H
  H100     1.0000 0.87900  0.45360  0.82960  Biso   1.000  H
  H101     1.0000 0.62100  0.95360  0.67040  Biso   1.000  H
  H102     1.0000 0.62100  0.04640  0.17040  Biso   1.000  H
  H103     1.0000 0.12100  0.45360  0.67040  Biso   1.000  H
  H104     1.0000 0.12100  0.54640  0.17040  Biso   1.000  H
  H105     1.0000 0.36960  0.90150  0.39660  Biso   1.000  H
  H106     1.0000 0.36960  0.09850  0.89660  Biso   1.000  H
  H107     1.0000 0.86960  0.40150  0.39660  Biso   1.000  H
  H108     1.0000 0.86960  0.59850  0.89660  Biso   1.000  H
  H109     1.0000 0.63040  0.09850  0.60340  Biso   1.000  H
  H110     1.0000 0.63040  0.90150  0.10340  Biso   1.000  H
  H111     1.0000 0.13040  0.59850  0.60340  Biso   1.000  H
  H112     1.0000 0.13040  0.40150  0.10340  Biso   1.000  H
  H113     1.0000 0.40320  0.82060  0.37680  Biso   1.000  H
  H114     1.0000 0.40320  0.17940  0.87680  Biso   1.000  H
  H115     1.0000 0.90320  0.32060  0.37680  Biso   1.000  H
  H116     1.0000 0.90320  0.67940  0.87680  Biso   1.000  H
  H117     1.0000 0.59680  0.17940  0.62320  Biso   1.000  H
  H118     1.0000 0.59680  0.82060  0.12320  Biso   1.000  H
  H119     1.0000 0.09680  0.67940  0.62320  Biso   1.000  H
  H120     1.0000 0.09680  0.32060  0.12320  Biso   1.000  H
  H121     1.0000 0.44230  0.86470  0.48810  Biso   1.000  H
  H122     1.0000 0.44230  0.13530  0.98810  Biso   1.000  H
  H123     1.0000 0.94230  0.36470  0.48810  Biso   1.000  H
  H124     1.0000 0.94230  0.63530  0.98810  Biso   1.000  H
  H125     1.0000 0.55770  0.13530  0.51190  Biso   1.000  H
  H126     1.0000 0.55770  0.86470  0.01190  Biso   1.000  H
  H127     1.0000 0.05770  0.63530  0.51190  Biso   1.000  H
  H128     1.0000 0.05770  0.36470  0.01190  Biso   1.000  H
  H129     1.0000 0.46990  0.91560  0.44710  Biso   1.000  H
  H130     1.0000 0.46990  0.08440  0.94710  Biso   1.000  H
  H131     1.0000 0.96990  0.41560  0.44710  Biso   1.000  H
  H132     1.0000 0.96990  0.58440  0.94710  Biso   1.000  H
  H133     1.0000 0.53010  0.08440  0.55290  Biso   1.000  H
  H134     1.0000 0.53010  0.91560  0.05290  Biso   1.000  H
  H135     1.0000 0.03010  0.58440  0.55290  Biso   1.000  H
  H136     1.0000 0.03010  0.41560  0.05290  Biso   1.000  H
  H137     1.0000 0.43630  0.99620  0.46700  Biso   1.000  H
  H138     1.0000 0.43630  0.00380  0.96700  Biso   1.000  H
  H139     1.0000 0.93630  0.49620  0.46700  Biso   1.000  H
  H140     1.0000 0.93630  0.50380  0.96700  Biso   1.000  H
  H141     1.0000 0.56370  0.00380  0.53300  Biso   1.000  H
  H142     1.0000 0.56370  0.99620  0.03300  Biso   1.000  H
  H143     1.0000 0.06370  0.50380  0.53300  Biso   1.000  H
  H144     1.0000 0.06370  0.49620  0.03300  Biso   1.000  H
  H145     1.0000 0.24380  0.00010  0.06660  Biso   1.000  H
  H146     1.0000 0.24380  0.99990  0.56660  Biso   1.000  H
  H147     1.0000 0.74380  0.50010  0.06660  Biso   1.000  H
  H148     1.0000 0.74380  0.49990  0.56660  Biso   1.000  H
  H149     1.0000 0.75620  0.99990  0.93340  Biso   1.000  H
  H150     1.0000 0.75620  0.00010  0.43340  Biso   1.000  H
  H151     1.0000 0.25620  0.49990  0.93340  Biso   1.000  H
  H152     1.0000 0.25620  0.50010  0.43340  Biso   1.000  H
  H153     1.0000 0.26960  0.87920  0.09960  Biso   1.000  H
  H154     1.0000 0.26960  0.12080  0.59960  Biso   1.000  H
  H155     1.0000 0.76960  0.37920  0.09960  Biso   1.000  H
  H156     1.0000 0.76960  0.62080  0.59960  Biso   1.000  H
  H157     1.0000 0.73040  0.12080  0.90040  Biso   1.000  H
  H158     1.0000 0.73040  0.87920  0.40040  Biso   1.000  H
  H159     1.0000 0.23040  0.62080  0.90040  Biso   1.000  H
  H160     1.0000 0.23040  0.37920  0.40040  Biso   1.000  H
  H161     1.0000 0.23070  0.88320  0.17160  Biso   1.000  H
  H162     1.0000 0.23070  0.11680  0.67160  Biso   1.000  H
  H163     1.0000 0.73070  0.38320  0.17160  Biso   1.000  H
  H164     1.0000 0.73070  0.61680  0.67160  Biso   1.000  H
  H165     1.0000 0.76930  0.11680  0.82840  Biso   1.000  H
  H166     1.0000 0.76930  0.88320  0.32840  Biso   1.000  H
  H167     1.0000 0.26930  0.61680  0.82840  Biso   1.000  H
  H168     1.0000 0.26930  0.38320  0.32840  Biso   1.000  H
  H169     1.0000 0.20040  0.99540  0.12760  Biso   1.000  H
  H170     1.0000 0.20040  0.00460  0.62760  Biso   1.000  H
  H171     1.0000 0.70040  0.49540  0.12760  Biso   1.000  H
  H172     1.0000 0.70040  0.50460  0.62760  Biso   1.000  H
  H173     1.0000 0.79960  0.00460  0.87240  Biso   1.000  H
  H174     1.0000 0.79960  0.99540  0.37240  Biso   1.000  H
  H175     1.0000 0.29960  0.50460  0.87240  Biso   1.000  H
  H176     1.0000 0.29960  0.49540  0.37240  Biso   1.000  H
  H177     1.0000 0.15040  0.89720  0.01700  Biso   1.000  H
  H178     1.0000 0.15040  0.10280  0.51700  Biso   1.000  H
  H179     1.0000 0.65040  0.39720  0.01700  Biso   1.000  H
  H180     1.0000 0.65040  0.60280  0.51700  Biso   1.000  H
  H181     1.0000 0.84960  0.10280  0.98300  Biso   1.000  H
  H182     1.0000 0.84960  0.89720  0.48300  Biso   1.000  H
  H183     1.0000 0.34960  0.60280  0.98300  Biso   1.000  H
  H184     1.0000 0.34960  0.39720  0.48300  Biso   1.000  H
  H185     1.0000 0.18690  0.78770  0.04970  Biso   1.000  H
  H186     1.0000 0.18690  0.21230  0.54970  Biso   1.000  H
  H187     1.0000 0.68690  0.28770  0.04970  Biso   1.000  H
  H188     1.0000 0.68690  0.71230  0.54970  Biso   1.000  H
  H189     1.0000 0.81310  0.21230  0.95030  Biso   1.000  H
  H190     1.0000 0.81310  0.78770  0.45030  Biso   1.000  H
  H191     1.0000 0.31310  0.71230  0.95030  Biso   1.000  H
  H192     1.0000 0.31310  0.28770  0.45030  Biso   1.000  H
  H193     1.0000 0.12260  0.86900  0.09470  Biso   1.000  H
  H194     1.0000 0.12260  0.13100  0.59470  Biso   1.000  H
  H195     1.0000 0.62260  0.36900  0.09470  Biso   1.000  H
  H196     1.0000 0.62260  0.63100  0.59470  Biso   1.000  H
  H197     1.0000 0.87740  0.13100  0.90530  Biso   1.000  H
  H198     1.0000 0.87740  0.86900  0.40530  Biso   1.000  H
  H199     1.0000 0.37740  0.63100  0.90530  Biso   1.000  H
  H200     1.0000 0.37740  0.36900  0.40530  Biso   1.000  H
  H201     1.0000 0.11170  0.76050  0.04290  Biso   1.000  H
  H202     1.0000 0.11170  0.23950  0.54290  Biso   1.000  H
  H203     1.0000 0.61170  0.26050  0.04290  Biso   1.000  H
  H204     1.0000 0.61170  0.73950  0.54290  Biso   1.000  H
  H205     1.0000 0.88830  0.23950  0.95710  Biso   1.000  H
  H206     1.0000 0.88830  0.76050  0.45710  Biso   1.000  H
  H207     1.0000 0.38830  0.73950  0.95710  Biso   1.000  H
  H208     1.0000 0.38830  0.26050  0.45710  Biso   1.000  H
  H209     1.0000 0.15940  0.75990  0.12800  Biso   1.000  H
  H210     1.0000 0.15940  0.24010  0.62800  Biso   1.000  H
  H211     1.0000 0.65940  0.25990  0.12800  Biso   1.000  H
  H212     1.0000 0.65940  0.74010  0.62800  Biso   1.000  H
  H213     1.0000 0.84060  0.24010  0.87200  Biso   1.000  H
  H214     1.0000 0.84060  0.75990  0.37200  Biso   1.000  H
  H215     1.0000 0.34060  0.74010  0.87200  Biso   1.000  H
  H216     1.0000 0.34060  0.25990  0.37200  Biso   1.000  H
  H217     1.0000 0.27140  0.11800  0.21240  Biso   1.000  H
  H218     1.0000 0.27140  0.88200  0.71240  Biso   1.000  H
  H219     1.0000 0.77140  0.61800  0.21240  Biso   1.000  H
  H220     1.0000 0.77140  0.38200  0.71240  Biso   1.000  H
  H221     1.0000 0.72860  0.88200  0.78760  Biso   1.000  H
  H222     1.0000 0.72860  0.11800  0.28760  Biso   1.000  H
  H223     1.0000 0.22860  0.38200  0.78760  Biso   1.000  H
  H224     1.0000 0.22860  0.61800  0.28760  Biso   1.000  H
  H225     1.0000 0.32890  0.15910  0.23670  Biso   1.000  H
  H226     1.0000 0.32890  0.84090  0.73670  Biso   1.000  H
  H227     1.0000 0.82890  0.65910  0.23670  Biso   1.000  H
  H228     1.0000 0.82890  0.34090  0.73670  Biso   1.000  H
  H229     1.0000 0.67110  0.84090  0.76330  Biso   1.000  H
  H230     1.0000 0.67110  0.15910  0.26330  Biso   1.000  H
  H231     1.0000 0.17110  0.34090  0.76330  Biso   1.000  H
  H232     1.0000 0.17110  0.65910  0.26330  Biso   1.000  H
  H233     1.0000 0.29520  0.22510  0.11400  Biso   1.000  H
  H234     1.0000 0.29520  0.77490  0.61400  Biso   1.000  H
  H235     1.0000 0.79520  0.72510  0.11400  Biso   1.000  H
  H236     1.0000 0.79520  0.27490  0.61400  Biso   1.000  H
  H237     1.0000 0.70480  0.77490  0.88600  Biso   1.000  H
  H238     1.0000 0.70480  0.22510  0.38600  Biso   1.000  H
  H239     1.0000 0.20480  0.27490  0.88600  Biso   1.000  H
  H240     1.0000 0.20480  0.72510  0.38600  Biso   1.000  H
  H241     1.0000 0.23780  0.19180  0.09470  Biso   1.000  H
  H242     1.0000 0.23780  0.80820  0.59470  Biso   1.000  H
  H243     1.0000 0.73780  0.69180  0.09470  Biso   1.000  H
  H244     1.0000 0.73780  0.30820  0.59470  Biso   1.000  H
  H245     1.0000 0.76220  0.80820  0.90530  Biso   1.000  H
  H246     1.0000 0.76220  0.19180  0.40530  Biso   1.000  H
  H247     1.0000 0.26220  0.30820  0.90530  Biso   1.000  H
  H248     1.0000 0.26220  0.69180  0.40530  Biso   1.000  H
  H249     1.0000 0.24390  0.32630  0.18120  Biso   1.000  H
  H250     1.0000 0.24390  0.67370  0.68120  Biso   1.000  H
  H251     1.0000 0.74390  0.82630  0.18120  Biso   1.000  H
  H252     1.0000 0.74390  0.17370  0.68120  Biso   1.000  H
  H253     1.0000 0.75610  0.67370  0.81880  Biso   1.000  H
  H254     1.0000 0.75610  0.32630  0.31880  Biso   1.000  H
  H255     1.0000 0.25610  0.17370  0.81880  Biso   1.000  H
  H256     1.0000 0.25610  0.82630  0.31880  Biso   1.000  H
  H257     1.0000 0.30180  0.35830  0.20270  Biso   1.000  H
  H258     1.0000 0.30180  0.64170  0.70270  Biso   1.000  H
  H259     1.0000 0.80180  0.85830  0.20270  Biso   1.000  H
  H260     1.0000 0.80180  0.14170  0.70270  Biso   1.000  H
  H261     1.0000 0.69820  0.64170  0.79730  Biso   1.000  H
  H262     1.0000 0.69820  0.35830  0.29730  Biso   1.000  H
  H263     1.0000 0.19820  0.14170  0.79730  Biso   1.000  H
  H264     1.0000 0.19820  0.85830  0.29730  Biso   1.000  H
  H265     1.0000 0.24190  0.49520  0.11920  Biso   1.000  H
  H266     1.0000 0.24190  0.50480  0.61920  Biso   1.000  H
  H267     1.0000 0.74190  0.99520  0.11920  Biso   1.000  H
  H268     1.0000 0.74190  0.00480  0.61920  Biso   1.000  H
  H269     1.0000 0.75810  0.50480  0.88080  Biso   1.000  H
  H270     1.0000 0.75810  0.49520  0.38080  Biso   1.000  H
  H271     1.0000 0.25810  0.00480  0.88080  Biso   1.000  H
  H272     1.0000 0.25810  0.99520  0.38080  Biso   1.000  H
  H273     1.0000 0.26820  0.43030  0.08050  Biso   1.000  H
  H274     1.0000 0.26820  0.56970  0.58050  Biso   1.000  H
  H275     1.0000 0.76820  0.93030  0.08050  Biso   1.000  H
  H276     1.0000 0.76820  0.06970  0.58050  Biso   1.000  H
  H277     1.0000 0.73180  0.56970  0.91950  Biso   1.000  H
  H278     1.0000 0.73180  0.43030  0.41950  Biso   1.000  H
  H279     1.0000 0.23180  0.06970  0.91950  Biso   1.000  H
  H280     1.0000 0.23180  0.93030  0.41950  Biso   1.000  H
  H281     1.0000 0.21020  0.39820  0.05890  Biso   1.000  H
  H282     1.0000 0.21020  0.60180  0.55890  Biso   1.000  H
  H283     1.0000 0.71020  0.89820  0.05890  Biso   1.000  H
  H284     1.0000 0.71020  0.10180  0.55890  Biso   1.000  H
  H285     1.0000 0.78980  0.60180  0.94110  Biso   1.000  H
  H286     1.0000 0.78980  0.39820  0.44110  Biso   1.000  H
  H287     1.0000 0.28980  0.10180  0.94110  Biso   1.000  H
  H288     1.0000 0.28980  0.89820  0.44110  Biso   1.000  H
