data_image0
_cell_length_a       20.4015
_cell_length_b       3.8868
_cell_length_c       19.3384
_cell_angle_alpha    90
_cell_angle_beta     99.332
_cell_angle_gamma    90

_symmetry_space_group_name_H-M    "P 1"
_symmetry_int_tables_number       1

loop_
  _symmetry_equiv_pos_as_xyz
  'x, y, z'

loop_
  _atom_site_label
  _atom_site_occupancy
  _atom_site_fract_x
  _atom_site_fract_y
  _atom_site_fract_z
  _atom_site_thermal_displace_type
  _atom_site_B_iso_or_equiv
  _atom_site_type_symbol
  Br1      1.0000 0.33298  0.42745  0.35871  Biso   1.000  Br
  Br2      1.0000 0.66702  0.92745  0.14129  Biso   1.000  Br
  Br3      1.0000 0.66702  0.57255  0.64129  Biso   1.000  Br
  Br4      1.0000 0.33298  0.07255  0.85871  Biso   1.000  Br
  Cu1      1.0000 0.30090  0.97192  0.42494  Biso   1.000  Cu
  Cu2      1.0000 0.69910  0.47192  0.07506  Biso   1.000  Cu
  Cu3      1.0000 0.69910  0.02808  0.57506  Biso   1.000  Cu
  Cu4      1.0000 0.30090  0.52808  0.92494  Biso   1.000  Cu
  N1       1.0000 0.19556  0.75690  0.50523  Biso   1.000  N
  N2       1.0000 0.80444  0.25690  0.99477  Biso   1.000  N
  N3       1.0000 0.80444  0.24310  0.49477  Biso   1.000  N
  N4       1.0000 0.19556  0.74310  0.00523  Biso   1.000  N
  N5       1.0000 0.29186  0.79470  0.57090  Biso   1.000  N
  N6       1.0000 0.70814  0.29470  0.92910  Biso   1.000  N
  N7       1.0000 0.70814  0.20530  0.42910  Biso   1.000  N
  N8       1.0000 0.29186  0.70530  0.07090  Biso   1.000  N
  C1       1.0000 0.15560  0.63970  0.38180  Biso   1.000  C
  C2       1.0000 0.84440  0.13970  0.11820  Biso   1.000  C
  C3       1.0000 0.84440  0.36030  0.61820  Biso   1.000  C
  C4       1.0000 0.15560  0.86030  0.88180  Biso   1.000  C
  H1       1.0000 0.19730  0.53820  0.37800  Biso   1.000  H
  H2       1.0000 0.80270  0.03820  0.12200  Biso   1.000  H
  H3       1.0000 0.80270  0.46180  0.62200  Biso   1.000  H
  H4       1.0000 0.19730  0.96180  0.87800  Biso   1.000  H
  C5       1.0000 0.10540  0.65670  0.32370  Biso   1.000  C
  C6       1.0000 0.89460  0.15670  0.17630  Biso   1.000  C
  C7       1.0000 0.89460  0.34330  0.67630  Biso   1.000  C
  C8       1.0000 0.10540  0.84330  0.82370  Biso   1.000  C
  H5       1.0000 0.11300  0.56830  0.27980  Biso   1.000  H
  H6       1.0000 0.88700  0.06830  0.22020  Biso   1.000  H
  H7       1.0000 0.88700  0.43170  0.72020  Biso   1.000  H
  H8       1.0000 0.11300  0.93170  0.77980  Biso   1.000  H
  C9       1.0000 0.04430  0.80260  0.32960  Biso   1.000  C
  C10      1.0000 0.95570  0.30260  0.17040  Biso   1.000  C
  C11      1.0000 0.95570  0.19740  0.67040  Biso   1.000  C
  C12      1.0000 0.04430  0.69740  0.82960  Biso   1.000  C
  H9       1.0000 0.01020  0.81370  0.28990  Biso   1.000  H
  H10      1.0000 0.98980  0.31370  0.21010  Biso   1.000  H
  H11      1.0000 0.98980  0.18630  0.71010  Biso   1.000  H
  H12      1.0000 0.01020  0.68630  0.78990  Biso   1.000  H
  C13      1.0000 0.03300  0.93290  0.39420  Biso   1.000  C
  C14      1.0000 0.96700  0.43290  0.10580  Biso   1.000  C
  C15      1.0000 0.96700  0.06710  0.60580  Biso   1.000  C
  C16      1.0000 0.03300  0.56710  0.89420  Biso   1.000  C
  H13      1.0000 0.99110  0.02960  0.39860  Biso   1.000  H
  H14      1.0000 0.00890  0.52960  0.10140  Biso   1.000  H
  H15      1.0000 0.00890  0.97040  0.60140  Biso   1.000  H
  H16      1.0000 0.99110  0.47040  0.89860  Biso   1.000  H
  C17      1.0000 0.08340  0.92010  0.45170  Biso   1.000  C
  C18      1.0000 0.91660  0.42010  0.04830  Biso   1.000  C
  C19      1.0000 0.91660  0.07990  0.54830  Biso   1.000  C
  C20      1.0000 0.08340  0.57990  0.95170  Biso   1.000  C
  H17      1.0000 0.07640  0.01170  0.49550  Biso   1.000  H
  H18      1.0000 0.92360  0.51170  0.00450  Biso   1.000  H
  H19      1.0000 0.92360  0.98830  0.50450  Biso   1.000  H
  H20      1.0000 0.07640  0.48830  0.99550  Biso   1.000  H
  C21      1.0000 0.14400  0.77280  0.44490  Biso   1.000  C
  C22      1.0000 0.85600  0.27280  0.05510  Biso   1.000  C
  C23      1.0000 0.85600  0.22720  0.55510  Biso   1.000  C
  C24      1.0000 0.14400  0.72720  0.94490  Biso   1.000  C
  C25      1.0000 0.26070  0.84270  0.50380  Biso   1.000  C
  C26      1.0000 0.73930  0.34270  0.99620  Biso   1.000  C
  C27      1.0000 0.73930  0.15730  0.49620  Biso   1.000  C
  C28      1.0000 0.26070  0.65730  0.00380  Biso   1.000  C
  C29      1.0000 0.18570  0.65540  0.57170  Biso   1.000  C
  C30      1.0000 0.81430  0.15540  0.92830  Biso   1.000  C
  C31      1.0000 0.81430  0.34460  0.42830  Biso   1.000  C
  C32      1.0000 0.18570  0.84460  0.07170  Biso   1.000  C
  C33      1.0000 0.13030  0.53660  0.59770  Biso   1.000  C
  C34      1.0000 0.86970  0.03660  0.90230  Biso   1.000  C
  C35      1.0000 0.86970  0.46340  0.40230  Biso   1.000  C
  C36      1.0000 0.13030  0.96340  0.09770  Biso   1.000  C
  H21      1.0000 0.08830  0.51810  0.56840  Biso   1.000  H
  H22      1.0000 0.91170  0.01810  0.93160  Biso   1.000  H
  H23      1.0000 0.91170  0.48190  0.43160  Biso   1.000  H
  H24      1.0000 0.08830  0.98190  0.06840  Biso   1.000  H
  C37      1.0000 0.13870  0.44590  0.66790  Biso   1.000  C
  C38      1.0000 0.86130  0.94590  0.83210  Biso   1.000  C
  C39      1.0000 0.86130  0.55410  0.33210  Biso   1.000  C
  C40      1.0000 0.13870  0.05410  0.16790  Biso   1.000  C
  H25      1.0000 0.10170  0.36550  0.68750  Biso   1.000  H
  H26      1.0000 0.89830  0.86550  0.81250  Biso   1.000  H
  H27      1.0000 0.89830  0.63450  0.31250  Biso   1.000  H
  H28      1.0000 0.10170  0.13450  0.18750  Biso   1.000  H
  C41      1.0000 0.20150  0.47180  0.71060  Biso   1.000  C
  C42      1.0000 0.79850  0.97180  0.78940  Biso   1.000  C
  C43      1.0000 0.79850  0.52820  0.28940  Biso   1.000  C
  C44      1.0000 0.20150  0.02820  0.21060  Biso   1.000  C
  H29      1.0000 0.20590  0.40630  0.75850  Biso   1.000  H
  H30      1.0000 0.79410  0.90630  0.74150  Biso   1.000  H
  H31      1.0000 0.79410  0.59370  0.24150  Biso   1.000  H
  H32      1.0000 0.20590  0.09370  0.25850  Biso   1.000  H
  C45      1.0000 0.25630  0.58820  0.68530  Biso   1.000  C
  C46      1.0000 0.74370  0.08820  0.81470  Biso   1.000  C
  C47      1.0000 0.74370  0.41180  0.31470  Biso   1.000  C
  C48      1.0000 0.25630  0.91180  0.18530  Biso   1.000  C
  H33      1.0000 0.29830  0.60520  0.71460  Biso   1.000  H
  H34      1.0000 0.70170  0.10520  0.78540  Biso   1.000  H
  H35      1.0000 0.70170  0.39480  0.28540  Biso   1.000  H
  H36      1.0000 0.29830  0.89480  0.21460  Biso   1.000  H
  C49      1.0000 0.24800  0.68180  0.61420  Biso   1.000  C
  C50      1.0000 0.75200  0.18180  0.88580  Biso   1.000  C
  C51      1.0000 0.75200  0.31820  0.38580  Biso   1.000  C
  C52      1.0000 0.24800  0.81820  0.11420  Biso   1.000  C
  C53      1.0000 0.36170  0.85500  0.59330  Biso   1.000  C
  C54      1.0000 0.63830  0.35500  0.90670  Biso   1.000  C
  C55      1.0000 0.63830  0.14500  0.40670  Biso   1.000  C
  C56      1.0000 0.36170  0.64500  0.09330  Biso   1.000  C
  C57      1.0000 0.38220  0.02270  0.65740  Biso   1.000  C
  C58      1.0000 0.61780  0.52270  0.84260  Biso   1.000  C
  C59      1.0000 0.61780  0.97730  0.34260  Biso   1.000  C
  C60      1.0000 0.38220  0.47730  0.15740  Biso   1.000  C
  H37      1.0000 0.35080  0.09180  0.68590  Biso   1.000  H
  H38      1.0000 0.64920  0.59180  0.81410  Biso   1.000  H
  H39      1.0000 0.64920  0.90820  0.31410  Biso   1.000  H
  H40      1.0000 0.35080  0.40820  0.18590  Biso   1.000  H
  C61      1.0000 0.44930  0.08520  0.67810  Biso   1.000  C
  C62      1.0000 0.55070  0.58520  0.82190  Biso   1.000  C
  C63      1.0000 0.55070  0.91480  0.32190  Biso   1.000  C
  C64      1.0000 0.44930  0.41480  0.17810  Biso   1.000  C
  H41      1.0000 0.46380  0.19880  0.72140  Biso   1.000  H
  H42      1.0000 0.53620  0.69880  0.77860  Biso   1.000  H
  H43      1.0000 0.53620  0.80120  0.27860  Biso   1.000  H
  H44      1.0000 0.46380  0.30120  0.22140  Biso   1.000  H
  C65      1.0000 0.49580  0.98600  0.63720  Biso   1.000  C
  C66      1.0000 0.50420  0.48600  0.86280  Biso   1.000  C
  C67      1.0000 0.50420  0.01400  0.36280  Biso   1.000  C
  C68      1.0000 0.49580  0.51400  0.13720  Biso   1.000  C
  H45      1.0000 0.54170  0.03380  0.65180  Biso   1.000  H
  H46      1.0000 0.45830  0.53380  0.84820  Biso   1.000  H
  H47      1.0000 0.45830  0.96620  0.34820  Biso   1.000  H
  H48      1.0000 0.54170  0.46620  0.15180  Biso   1.000  H
  C69      1.0000 0.47460  0.81570  0.57450  Biso   1.000  C
  C70      1.0000 0.52540  0.31570  0.92550  Biso   1.000  C
  C71      1.0000 0.52540  0.18430  0.42550  Biso   1.000  C
  C72      1.0000 0.47460  0.68430  0.07450  Biso   1.000  C
  H49      1.0000 0.50630  0.74510  0.54640  Biso   1.000  H
  H50      1.0000 0.49370  0.24510  0.95360  Biso   1.000  H
  H51      1.0000 0.49370  0.25490  0.45360  Biso   1.000  H
  H52      1.0000 0.50630  0.75490  0.04640  Biso   1.000  H
  C73      1.0000 0.40740  0.74630  0.55190  Biso   1.000  C
  C74      1.0000 0.59260  0.24630  0.94810  Biso   1.000  C
  C75      1.0000 0.59260  0.25370  0.44810  Biso   1.000  C
  C76      1.0000 0.40740  0.75370  0.05190  Biso   1.000  C
  H53      1.0000 0.39320  0.62730  0.50920  Biso   1.000  H
  H54      1.0000 0.60680  0.12730  0.99080  Biso   1.000  H
  H55      1.0000 0.60680  0.37270  0.49080  Biso   1.000  H
  H56      1.0000 0.39320  0.87270  0.00920  Biso   1.000  H
