data_image0
_cell_length_a       18.8953
_cell_length_b       18.8953
_cell_length_c       11.191
_cell_angle_alpha    90
_cell_angle_beta     90
_cell_angle_gamma    120

_symmetry_space_group_name_H-M    "P 1"
_symmetry_int_tables_number       1

loop_
  _symmetry_equiv_pos_as_xyz
  'x, y, z'

loop_
  _atom_site_label
  _atom_site_occupancy
  _atom_site_fract_x
  _atom_site_fract_y
  _atom_site_fract_z
  _atom_site_thermal_displace_type
  _atom_site_B_iso_or_equiv
  _atom_site_type_symbol
  Cu1      1.0000 0.42734  0.24451  0.05161  Biso   1.000  Cu
  Cu2      1.0000 0.18283  0.42734  0.21828  Biso   1.000  Cu
  Cu3      1.0000 0.24451  0.81717  0.88494  Biso   1.000  Cu
  Cu4      1.0000 0.75549  0.18283  0.38494  Biso   1.000  Cu
  Cu5      1.0000 0.81717  0.57266  0.71828  Biso   1.000  Cu
  Cu6      1.0000 0.57266  0.75549  0.55161  Biso   1.000  Cu
  Co1      1.0000 0.43282  0.36552  0.17848  Biso   1.000  Co
  Co2      1.0000 0.06730  0.43282  0.34515  Biso   1.000  Co
  Co3      1.0000 0.36552  0.93270  0.01181  Biso   1.000  Co
  Co4      1.0000 0.63448  0.06730  0.51181  Biso   1.000  Co
  Co5      1.0000 0.93270  0.56718  0.84515  Biso   1.000  Co
  Co6      1.0000 0.56718  0.63448  0.67848  Biso   1.000  Co
  N1       1.0000 0.54820  0.42180  0.13720  Biso   1.000  N
  N2       1.0000 0.12640  0.54820  0.30387  Biso   1.000  N
  N3       1.0000 0.42180  0.87360  0.97053  Biso   1.000  N
  N4       1.0000 0.57820  0.12640  0.47053  Biso   1.000  N
  N5       1.0000 0.87360  0.45180  0.80387  Biso   1.000  N
  N6       1.0000 0.45180  0.57820  0.63720  Biso   1.000  N
  N7       1.0000 0.53180  0.33060  0.98760  Biso   1.000  N
  N8       1.0000 0.20120  0.53180  0.15427  Biso   1.000  N
  N9       1.0000 0.33060  0.79880  0.82093  Biso   1.000  N
  N10      1.0000 0.66940  0.20120  0.32093  Biso   1.000  N
  N11      1.0000 0.79880  0.46820  0.65427  Biso   1.000  N
  N12      1.0000 0.46820  0.66940  0.48760  Biso   1.000  N
  N13      1.0000 0.47060  0.45230  0.31560  Biso   1.000  N
  N14      1.0000 0.01830  0.47060  0.48227  Biso   1.000  N
  N15      1.0000 0.45230  0.98170  0.14893  Biso   1.000  N
  N16      1.0000 0.54770  0.01830  0.64893  Biso   1.000  N
  N17      1.0000 0.98170  0.52940  0.98227  Biso   1.000  N
  N18      1.0000 0.52940  0.54770  0.81560  Biso   1.000  N
  N19      1.0000 0.39890  0.28650  0.30810  Biso   1.000  N
  N20      1.0000 0.11240  0.39890  0.47477  Biso   1.000  N
  N21      1.0000 0.28650  0.88760  0.14143  Biso   1.000  N
  N22      1.0000 0.71350  0.11240  0.64143  Biso   1.000  N
  N23      1.0000 0.88760  0.60110  0.97477  Biso   1.000  N
  N24      1.0000 0.60110  0.71350  0.80810  Biso   1.000  N
  N25      1.0000 0.34560  0.18070  0.17370  Biso   1.000  N
  N26      1.0000 0.16490  0.34560  0.34037  Biso   1.000  N
  N27      1.0000 0.18070  0.83510  0.00703  Biso   1.000  N
  N28      1.0000 0.81930  0.16490  0.50703  Biso   1.000  N
  N29      1.0000 0.83510  0.65440  0.84037  Biso   1.000  N
  N30      1.0000 0.65440  0.81930  0.67370  Biso   1.000  N
  N31      1.0000 0.35830  0.40510  0.13250  Biso   1.000  N
  N32      1.0000 0.95320  0.35830  0.29917  Biso   1.000  N
  N33      1.0000 0.40510  0.04680  0.96583  Biso   1.000  N
  N34      1.0000 0.59490  0.95320  0.46583  Biso   1.000  N
  N35      1.0000 0.04680  0.64170  0.79917  Biso   1.000  N
  N36      1.0000 0.64170  0.59490  0.63250  Biso   1.000  N
  N37      1.0000 0.23230  0.38950  0.06370  Biso   1.000  N
  N38      1.0000 0.84280  0.23230  0.23037  Biso   1.000  N
  N39      1.0000 0.38950  0.15720  0.89703  Biso   1.000  N
  N40      1.0000 0.61050  0.84280  0.39703  Biso   1.000  N
  N41      1.0000 0.15720  0.76770  0.73037  Biso   1.000  N
  N42      1.0000 0.76770  0.61050  0.56370  Biso   1.000  N
  C1       1.0000 0.58140  0.40300  0.04530  Biso   1.000  C
  C2       1.0000 0.17840  0.58140  0.21197  Biso   1.000  C
  C3       1.0000 0.40300  0.82160  0.87863  Biso   1.000  C
  C4       1.0000 0.59700  0.17840  0.37863  Biso   1.000  C
  C5       1.0000 0.82160  0.41860  0.71197  Biso   1.000  C
  C6       1.0000 0.41860  0.59700  0.54530  Biso   1.000  C
  C7       1.0000 0.56270  0.31020  0.89300  Biso   1.000  C
  C8       1.0000 0.25250  0.56270  0.05967  Biso   1.000  C
  C9       1.0000 0.31020  0.74750  0.72633  Biso   1.000  C
  C10      1.0000 0.68980  0.25250  0.22633  Biso   1.000  C
  C11      1.0000 0.74750  0.43730  0.55967  Biso   1.000  C
  C12      1.0000 0.43730  0.68980  0.39300  Biso   1.000  C
  H1       1.0000 0.52760  0.26080  0.85180  Biso   1.000  H
  H2       1.0000 0.26680  0.52760  0.01847  Biso   1.000  H
  H3       1.0000 0.26080  0.73320  0.68513  Biso   1.000  H
  H4       1.0000 0.73920  0.26680  0.18513  Biso   1.000  H
  H5       1.0000 0.73320  0.47240  0.51847  Biso   1.000  H
  H6       1.0000 0.47240  0.73920  0.35180  Biso   1.000  H
  C13      1.0000 0.64180  0.35650  0.85290  Biso   1.000  C
  C14      1.0000 0.28530  0.64180  0.01957  Biso   1.000  C
  C15      1.0000 0.35650  0.71470  0.68623  Biso   1.000  C
  C16      1.0000 0.64350  0.28530  0.18623  Biso   1.000  C
  C17      1.0000 0.71470  0.35820  0.51957  Biso   1.000  C
  C18      1.0000 0.35820  0.64350  0.35290  Biso   1.000  C
  H7       1.0000 0.66060  0.33970  0.78590  Biso   1.000  H
  H8       1.0000 0.32090  0.66060  0.95257  Biso   1.000  H
  H9       1.0000 0.33970  0.67910  0.61923  Biso   1.000  H
  H10      1.0000 0.66030  0.32090  0.11923  Biso   1.000  H
  H11      1.0000 0.67910  0.33940  0.45257  Biso   1.000  H
  H12      1.0000 0.33940  0.66030  0.28590  Biso   1.000  H
  C19      1.0000 0.69370  0.42900  0.91380  Biso   1.000  C
  C20      1.0000 0.26470  0.69370  0.08047  Biso   1.000  C
  C21      1.0000 0.42900  0.73530  0.74713  Biso   1.000  C
  C22      1.0000 0.57100  0.26470  0.24713  Biso   1.000  C
  C23      1.0000 0.73530  0.30630  0.58047  Biso   1.000  C
  C24      1.0000 0.30630  0.57100  0.41380  Biso   1.000  C
  H13      1.0000 0.74910  0.46170  0.88990  Biso   1.000  H
  H14      1.0000 0.28740  0.74910  0.05657  Biso   1.000  H
  H15      1.0000 0.46170  0.71260  0.72323  Biso   1.000  H
  H16      1.0000 0.53830  0.28740  0.22323  Biso   1.000  H
  H17      1.0000 0.71260  0.25090  0.55657  Biso   1.000  H
  H18      1.0000 0.25090  0.53830  0.38990  Biso   1.000  H
  C25      1.0000 0.66410  0.45230  0.00730  Biso   1.000  C
  C26      1.0000 0.21180  0.66410  0.17397  Biso   1.000  C
  C27      1.0000 0.45230  0.78820  0.84063  Biso   1.000  C
  C28      1.0000 0.54770  0.21180  0.34063  Biso   1.000  C
  C29      1.0000 0.78820  0.33590  0.67397  Biso   1.000  C
  C30      1.0000 0.33590  0.54770  0.50730  Biso   1.000  C
  H19      1.0000 0.69890  0.50190  0.04790  Biso   1.000  H
  H20      1.0000 0.19700  0.69890  0.21457  Biso   1.000  H
  H21      1.0000 0.50190  0.80300  0.88123  Biso   1.000  H
  H22      1.0000 0.49810  0.19700  0.38123  Biso   1.000  H
  H23      1.0000 0.80300  0.30110  0.71457  Biso   1.000  H
  H24      1.0000 0.30110  0.49810  0.54790  Biso   1.000  H
  C31      1.0000 0.60120  0.49310  0.21040  Biso   1.000  C
  C32      1.0000 0.10810  0.60120  0.37707  Biso   1.000  C
  C33      1.0000 0.49310  0.89190  0.04373  Biso   1.000  C
  C34      1.0000 0.50690  0.10810  0.54373  Biso   1.000  C
  C35      1.0000 0.89190  0.39880  0.87707  Biso   1.000  C
  C36      1.0000 0.39880  0.50690  0.71040  Biso   1.000  C
  H25      1.0000 0.61110  0.54370  0.16940  Biso   1.000  H
  H26      1.0000 0.06740  0.61110  0.33607  Biso   1.000  H
  H27      1.0000 0.54370  0.93260  0.00273  Biso   1.000  H
  H28      1.0000 0.45630  0.06740  0.50273  Biso   1.000  H
  H29      1.0000 0.93260  0.38890  0.83607  Biso   1.000  H
  H30      1.0000 0.38890  0.45630  0.66940  Biso   1.000  H
  H31      1.0000 0.65450  0.49620  0.22330  Biso   1.000  H
  H32      1.0000 0.15830  0.65450  0.38997  Biso   1.000  H
  H33      1.0000 0.49620  0.84170  0.05663  Biso   1.000  H
  H34      1.0000 0.50380  0.15830  0.55663  Biso   1.000  H
  H35      1.0000 0.84170  0.34550  0.88997  Biso   1.000  H
  H36      1.0000 0.34550  0.50380  0.72330  Biso   1.000  H
  C37      1.0000 0.55850  0.48480  0.33160  Biso   1.000  C
  C38      1.0000 0.07370  0.55850  0.49827  Biso   1.000  C
  C39      1.0000 0.48480  0.92630  0.16493  Biso   1.000  C
  C40      1.0000 0.51520  0.07370  0.66493  Biso   1.000  C
  C41      1.0000 0.92630  0.44150  0.99827  Biso   1.000  C
  C42      1.0000 0.44150  0.51520  0.83160  Biso   1.000  C
  H37      1.0000 0.56730  0.44780  0.38430  Biso   1.000  H
  H38      1.0000 0.11950  0.56730  0.55097  Biso   1.000  H
  H39      1.0000 0.44780  0.88050  0.21763  Biso   1.000  H
  H40      1.0000 0.55220  0.11950  0.71763  Biso   1.000  H
  H41      1.0000 0.88050  0.43270  0.05097  Biso   1.000  H
  H42      1.0000 0.43270  0.55220  0.88430  Biso   1.000  H
  H43      1.0000 0.58290  0.53890  0.37070  Biso   1.000  H
  H44      1.0000 0.04400  0.58290  0.53737  Biso   1.000  H
  H45      1.0000 0.53890  0.95600  0.20403  Biso   1.000  H
  H46      1.0000 0.46110  0.04400  0.70403  Biso   1.000  H
  H47      1.0000 0.95600  0.41710  0.03737  Biso   1.000  H
  H48      1.0000 0.41710  0.46110  0.87070  Biso   1.000  H
  C43      1.0000 0.42230  0.40770  0.42150  Biso   1.000  C
  C44      1.0000 0.01460  0.42230  0.58817  Biso   1.000  C
  C45      1.0000 0.40770  0.98540  0.25483  Biso   1.000  C
  C46      1.0000 0.59230  0.01460  0.75483  Biso   1.000  C
  C47      1.0000 0.98540  0.57770  0.08817  Biso   1.000  C
  C48      1.0000 0.57770  0.59230  0.92150  Biso   1.000  C
  H49      1.0000 0.36710  0.40150  0.41660  Biso   1.000  H
  H50      1.0000 0.96560  0.36710  0.58327  Biso   1.000  H
  H51      1.0000 0.40150  0.03440  0.24993  Biso   1.000  H
  H52      1.0000 0.59850  0.96560  0.74993  Biso   1.000  H
  H53      1.0000 0.03440  0.63290  0.08327  Biso   1.000  H
  H54      1.0000 0.63290  0.59850  0.91660  Biso   1.000  H
  H55      1.0000 0.44920  0.43910  0.49480  Biso   1.000  H
  H56      1.0000 0.01010  0.44920  0.66147  Biso   1.000  H
  H57      1.0000 0.43910  0.98990  0.32813  Biso   1.000  H
  H58      1.0000 0.56090  0.01010  0.82813  Biso   1.000  H
  H59      1.0000 0.98990  0.55080  0.16147  Biso   1.000  H
  H60      1.0000 0.55080  0.56090  0.99480  Biso   1.000  H
  C49      1.0000 0.41480  0.32160  0.42780  Biso   1.000  C
  C50      1.0000 0.09320  0.41480  0.59447  Biso   1.000  C
  C51      1.0000 0.32160  0.90680  0.26113  Biso   1.000  C
  C52      1.0000 0.67840  0.09320  0.76113  Biso   1.000  C
  C53      1.0000 0.90680  0.58520  0.09447  Biso   1.000  C
  C54      1.0000 0.58520  0.67840  0.92780  Biso   1.000  C
  H61      1.0000 0.46610  0.32670  0.45930  Biso   1.000  H
  H62      1.0000 0.13940  0.46610  0.62597  Biso   1.000  H
  H63      1.0000 0.32670  0.86060  0.29263  Biso   1.000  H
  H64      1.0000 0.67330  0.13940  0.79263  Biso   1.000  H
  H65      1.0000 0.86060  0.53390  0.12597  Biso   1.000  H
  H66      1.0000 0.53390  0.67330  0.95930  Biso   1.000  H
  H67      1.0000 0.36960  0.28560  0.48210  Biso   1.000  H
  H68      1.0000 0.08400  0.36960  0.64877  Biso   1.000  H
  H69      1.0000 0.28560  0.91600  0.31543  Biso   1.000  H
  H70      1.0000 0.71440  0.08400  0.81543  Biso   1.000  H
  H71      1.0000 0.91600  0.63040  0.14877  Biso   1.000  H
  H72      1.0000 0.63040  0.71440  0.98210  Biso   1.000  H
  C55      1.0000 0.35560  0.20690  0.29150  Biso   1.000  C
  C56      1.0000 0.14870  0.35560  0.45817  Biso   1.000  C
  C57      1.0000 0.20690  0.85130  0.12483  Biso   1.000  C
  C58      1.0000 0.79310  0.14870  0.62483  Biso   1.000  C
  C59      1.0000 0.85130  0.64440  0.95817  Biso   1.000  C
  C60      1.0000 0.64440  0.79310  0.79150  Biso   1.000  C
  C61      1.0000 0.28760  0.10320  0.14750  Biso   1.000  C
  C62      1.0000 0.18440  0.28760  0.31417  Biso   1.000  C
  C63      1.0000 0.10320  0.81560  0.98083  Biso   1.000  C
  C64      1.0000 0.89680  0.18440  0.48083  Biso   1.000  C
  C65      1.0000 0.81560  0.71240  0.81417  Biso   1.000  C
  C66      1.0000 0.71240  0.89680  0.64750  Biso   1.000  C
  H73      1.0000 0.27700  0.08700  0.06610  Biso   1.000  H
  H74      1.0000 0.19000  0.27700  0.23277  Biso   1.000  H
  H75      1.0000 0.08700  0.81000  0.89943  Biso   1.000  H
  H76      1.0000 0.91300  0.19000  0.39943  Biso   1.000  H
  H77      1.0000 0.81000  0.72300  0.73277  Biso   1.000  H
  H78      1.0000 0.72300  0.91300  0.56610  Biso   1.000  H
  C67      1.0000 0.24250  0.04610  0.23650  Biso   1.000  C
  C68      1.0000 0.19640  0.24250  0.40317  Biso   1.000  C
  C69      1.0000 0.04610  0.80360  0.06983  Biso   1.000  C
  C70      1.0000 0.95390  0.19640  0.56983  Biso   1.000  C
  C71      1.0000 0.80360  0.75750  0.90317  Biso   1.000  C
  C72      1.0000 0.75750  0.95390  0.73650  Biso   1.000  C
  H79      1.0000 0.20010  0.99280  0.21580  Biso   1.000  H
  H80      1.0000 0.20730  0.20010  0.38247  Biso   1.000  H
  H81      1.0000 0.99280  0.79270  0.04913  Biso   1.000  H
  H82      1.0000 0.00720  0.20730  0.54913  Biso   1.000  H
  H83      1.0000 0.79270  0.79990  0.88247  Biso   1.000  H
  H84      1.0000 0.79990  0.00720  0.71580  Biso   1.000  H
  C73      1.0000 0.26080  0.06840  0.35380  Biso   1.000  C
  C74      1.0000 0.19240  0.26080  0.52047  Biso   1.000  C
  C75      1.0000 0.06840  0.80760  0.18713  Biso   1.000  C
  C76      1.0000 0.93160  0.19240  0.68713  Biso   1.000  C
  C77      1.0000 0.80760  0.73920  0.02047  Biso   1.000  C
  C78      1.0000 0.73920  0.93160  0.85380  Biso   1.000  C
  H85      1.0000 0.23360  0.02930  0.41510  Biso   1.000  H
  H86      1.0000 0.20430  0.23360  0.58177  Biso   1.000  H
  H87      1.0000 0.02930  0.79570  0.24843  Biso   1.000  H
  H88      1.0000 0.97070  0.20430  0.74843  Biso   1.000  H
  H89      1.0000 0.79570  0.76640  0.08177  Biso   1.000  H
  H90      1.0000 0.76640  0.97070  0.91510  Biso   1.000  H
  C79      1.0000 0.31780  0.14690  0.38310  Biso   1.000  C
  C80      1.0000 0.17090  0.31780  0.54977  Biso   1.000  C
  C81      1.0000 0.14690  0.82910  0.21643  Biso   1.000  C
  C82      1.0000 0.85310  0.17090  0.71643  Biso   1.000  C
  C83      1.0000 0.82910  0.68220  0.04977  Biso   1.000  C
  C84      1.0000 0.68220  0.85310  0.88310  Biso   1.000  C
  H91      1.0000 0.33240  0.16140  0.46440  Biso   1.000  H
  H92      1.0000 0.17100  0.33240  0.63107  Biso   1.000  H
  H93      1.0000 0.16140  0.82900  0.29773  Biso   1.000  H
  H94      1.0000 0.83860  0.17100  0.79773  Biso   1.000  H
  H95      1.0000 0.82900  0.66760  0.13107  Biso   1.000  H
  H96      1.0000 0.66760  0.83860  0.96440  Biso   1.000  H
  C85      1.0000 0.45050  0.51340  0.26910  Biso   1.000  C
  C86      1.0000 0.93710  0.45050  0.43577  Biso   1.000  C
  C87      1.0000 0.51340  0.06290  0.10243  Biso   1.000  C
  C88      1.0000 0.48660  0.93710  0.60243  Biso   1.000  C
  C89      1.0000 0.06290  0.54950  0.93577  Biso   1.000  C
  C90      1.0000 0.54950  0.48660  0.76910  Biso   1.000  C
  H97      1.0000 0.49230  0.54890  0.21010  Biso   1.000  H
  H98      1.0000 0.94340  0.49230  0.37677  Biso   1.000  H
  H99      1.0000 0.54890  0.05660  0.04343  Biso   1.000  H
  H100     1.0000 0.45110  0.94340  0.54343  Biso   1.000  H
  H101     1.0000 0.05660  0.50770  0.87677  Biso   1.000  H
  H102     1.0000 0.50770  0.45110  0.71010  Biso   1.000  H
  H103     1.0000 0.45100  0.54830  0.33560  Biso   1.000  H
  H104     1.0000 0.90270  0.45100  0.50227  Biso   1.000  H
  H105     1.0000 0.54830  0.09730  0.16893  Biso   1.000  H
  H106     1.0000 0.45170  0.90270  0.66893  Biso   1.000  H
  H107     1.0000 0.09730  0.54900  0.00227  Biso   1.000  H
  H108     1.0000 0.54900  0.45170  0.83560  Biso   1.000  H
  C91      1.0000 0.36680  0.47130  0.21040  Biso   1.000  C
  C92      1.0000 0.89550  0.36680  0.37707  Biso   1.000  C
  C93      1.0000 0.47130  0.10450  0.04373  Biso   1.000  C
  C94      1.0000 0.52870  0.89550  0.54373  Biso   1.000  C
  C95      1.0000 0.10450  0.63320  0.87707  Biso   1.000  C
  C96      1.0000 0.63320  0.52870  0.71040  Biso   1.000  C
  H109     1.0000 0.32380  0.44890  0.27260  Biso   1.000  H
  H110     1.0000 0.87490  0.32380  0.43927  Biso   1.000  H
  H111     1.0000 0.44890  0.12510  0.10593  Biso   1.000  H
  H112     1.0000 0.55110  0.87490  0.60593  Biso   1.000  H
  H113     1.0000 0.12510  0.67620  0.93927  Biso   1.000  H
  H114     1.0000 0.67620  0.55110  0.77260  Biso   1.000  H
  H115     1.0000 0.35970  0.51150  0.16270  Biso   1.000  H
  H116     1.0000 0.84820  0.35970  0.32937  Biso   1.000  H
  H117     1.0000 0.51150  0.15180  0.99603  Biso   1.000  H
  H118     1.0000 0.48850  0.84820  0.49603  Biso   1.000  H
  H119     1.0000 0.15180  0.64030  0.82937  Biso   1.000  H
  H120     1.0000 0.64030  0.48850  0.66270  Biso   1.000  H
  C97      1.0000 0.29240  0.36890  0.06010  Biso   1.000  C
  C98      1.0000 0.92350  0.29240  0.22677  Biso   1.000  C
  C99      1.0000 0.36890  0.07650  0.89343  Biso   1.000  C
  C100     1.0000 0.63110  0.92350  0.39343  Biso   1.000  C
  C101     1.0000 0.07650  0.70760  0.72677  Biso   1.000  C
  C102     1.0000 0.70760  0.63110  0.56010  Biso   1.000  C
  C103     1.0000 0.17160  0.35420  0.98110  Biso   1.000  C
  C104     1.0000 0.81740  0.17160  0.14777  Biso   1.000  C
  C105     1.0000 0.35420  0.18260  0.81443  Biso   1.000  C
  C106     1.0000 0.64580  0.81740  0.31443  Biso   1.000  C
  C107     1.0000 0.18260  0.82840  0.64777  Biso   1.000  C
  C108     1.0000 0.82840  0.64580  0.48110  Biso   1.000  C
  H121     1.0000 0.13190  0.37090  0.98040  Biso   1.000  H
  H122     1.0000 0.76100  0.13190  0.14707  Biso   1.000  H
  H123     1.0000 0.37090  0.23900  0.81373  Biso   1.000  H
  H124     1.0000 0.62910  0.76100  0.31373  Biso   1.000  H
  H125     1.0000 0.23900  0.86810  0.64707  Biso   1.000  H
  H126     1.0000 0.86810  0.62910  0.48040  Biso   1.000  H
  C109     1.0000 0.16300  0.29730  0.89960  Biso   1.000  C
  C110     1.0000 0.86570  0.16300  0.06627  Biso   1.000  C
  C111     1.0000 0.29730  0.13430  0.73293  Biso   1.000  C
  C112     1.0000 0.70270  0.86570  0.23293  Biso   1.000  C
  C113     1.0000 0.13430  0.83700  0.56627  Biso   1.000  C
  C114     1.0000 0.83700  0.70270  0.39960  Biso   1.000  C
  H127     1.0000 0.11870  0.27490  0.84470  Biso   1.000  H
  H128     1.0000 0.84380  0.11870  0.01137  Biso   1.000  H
  H129     1.0000 0.27490  0.15620  0.67803  Biso   1.000  H
  H130     1.0000 0.72510  0.84380  0.17803  Biso   1.000  H
  H131     1.0000 0.15620  0.88130  0.51137  Biso   1.000  H
  H132     1.0000 0.88130  0.72510  0.34470  Biso   1.000  H
  C115     1.0000 0.22190  0.27260  0.89920  Biso   1.000  C
  C116     1.0000 0.94930  0.22190  0.06587  Biso   1.000  C
  C117     1.0000 0.27260  0.05070  0.73253  Biso   1.000  C
  C118     1.0000 0.72740  0.94930  0.23253  Biso   1.000  C
  C119     1.0000 0.05070  0.77810  0.56587  Biso   1.000  C
  C120     1.0000 0.77810  0.72740  0.39920  Biso   1.000  C
  H133     1.0000 0.21760  0.23190  0.84490  Biso   1.000  H
  H134     1.0000 0.98570  0.21760  0.01157  Biso   1.000  H
  H135     1.0000 0.23190  0.01430  0.67823  Biso   1.000  H
  H136     1.0000 0.76810  0.98570  0.17823  Biso   1.000  H
  H137     1.0000 0.01430  0.78240  0.51157  Biso   1.000  H
  H138     1.0000 0.78240  0.76810  0.34490  Biso   1.000  H
  C121     1.0000 0.28530  0.30790  0.97780  Biso   1.000  C
  C122     1.0000 0.97740  0.28530  0.14447  Biso   1.000  C
  C123     1.0000 0.30790  0.02260  0.81113  Biso   1.000  C
  C124     1.0000 0.69210  0.97740  0.31113  Biso   1.000  C
  C125     1.0000 0.02260  0.71470  0.64447  Biso   1.000  C
  C126     1.0000 0.71470  0.69210  0.47780  Biso   1.000  C
  H139     1.0000 0.32550  0.29170  0.97800  Biso   1.000  H
  H140     1.0000 0.03380  0.32550  0.14467  Biso   1.000  H
  H141     1.0000 0.29170  0.96620  0.81133  Biso   1.000  H
  H142     1.0000 0.70830  0.03380  0.31133  Biso   1.000  H
  H143     1.0000 0.96620  0.67450  0.64467  Biso   1.000  H
  H144     1.0000 0.67450  0.70830  0.47800  Biso   1.000  H
