data_image0
_cell_length_a       11.6326
_cell_length_b       9.6838
_cell_length_c       11.1798
_cell_angle_alpha    90
_cell_angle_beta     108.41
_cell_angle_gamma    90

_symmetry_space_group_name_H-M    "P 1"
_symmetry_int_tables_number       1

loop_
  _symmetry_equiv_pos_as_xyz
  'x, y, z'

loop_
  _atom_site_label
  _atom_site_occupancy
  _atom_site_fract_x
  _atom_site_fract_y
  _atom_site_fract_z
  _atom_site_thermal_displace_type
  _atom_site_B_iso_or_equiv
  _atom_site_type_symbol
  Cu1      1.0000 0.82953  0.14189  0.75170  Biso   1.000  Cu
  Cu2      1.0000 0.17047  0.64189  0.74830  Biso   1.000  Cu
  Cu3      1.0000 0.17047  0.85811  0.24830  Biso   1.000  Cu
  Cu4      1.0000 0.82953  0.35811  0.25170  Biso   1.000  Cu
  N1       1.0000 0.69089  0.36599  0.53940  Biso   1.000  N
  N2       1.0000 0.30911  0.86599  0.96060  Biso   1.000  N
  N3       1.0000 0.30911  0.63401  0.46060  Biso   1.000  N
  N4       1.0000 0.69089  0.13401  0.03940  Biso   1.000  N
  N5       1.0000 0.78036  0.27637  0.60195  Biso   1.000  N
  N6       1.0000 0.21964  0.77637  0.89805  Biso   1.000  N
  N7       1.0000 0.21964  0.72363  0.39805  Biso   1.000  N
  N8       1.0000 0.78036  0.22363  0.10195  Biso   1.000  N
  N9       1.0000 0.81965  0.33970  0.42686  Biso   1.000  N
  N10      1.0000 0.18035  0.83970  0.07314  Biso   1.000  N
  N11      1.0000 0.18035  0.66030  0.57314  Biso   1.000  N
  N12      1.0000 0.81965  0.16030  0.92686  Biso   1.000  N
  N13      1.0000 0.68705  0.50170  0.23718  Biso   1.000  N
  N14      1.0000 0.31295  0.00170  0.26282  Biso   1.000  N
  N15      1.0000 0.31295  0.49830  0.76282  Biso   1.000  N
  N16      1.0000 0.68705  0.99830  0.73718  Biso   1.000  N
  N17      1.0000 0.97700  0.11690  0.68985  Biso   1.000  N
  N18      1.0000 0.02300  0.61690  0.81015  Biso   1.000  N
  N19      1.0000 0.02300  0.88310  0.31015  Biso   1.000  N
  N20      1.0000 0.97700  0.38310  0.18985  Biso   1.000  N
  C1       1.0000 0.71851  0.40160  0.43690  Biso   1.000  C
  C2       1.0000 0.28149  0.90160  0.06310  Biso   1.000  C
  C3       1.0000 0.28149  0.59840  0.56310  Biso   1.000  C
  C4       1.0000 0.71851  0.09840  0.93690  Biso   1.000  C
  C5       1.0000 0.85527  0.26430  0.53278  Biso   1.000  C
  C6       1.0000 0.14473  0.76430  0.96722  Biso   1.000  C
  C7       1.0000 0.14473  0.73570  0.46722  Biso   1.000  C
  C8       1.0000 0.85527  0.23570  0.03278  Biso   1.000  C
  C9       1.0000 0.64894  0.49510  0.33870  Biso   1.000  C
  C10      1.0000 0.35106  0.99510  0.16130  Biso   1.000  C
  C11      1.0000 0.35106  0.50490  0.66130  Biso   1.000  C
  C12      1.0000 0.64894  0.00490  0.83870  Biso   1.000  C
  C13      1.0000 0.54970  0.57020  0.34650  Biso   1.000  C
  C14      1.0000 0.45030  0.07020  0.15350  Biso   1.000  C
  C15      1.0000 0.45030  0.42980  0.65350  Biso   1.000  C
  C16      1.0000 0.54970  0.92980  0.84650  Biso   1.000  C
  H1       1.0000 0.52530  0.56410  0.41790  Biso   1.000  H
  H2       1.0000 0.47470  0.06410  0.08210  Biso   1.000  H
  H3       1.0000 0.47470  0.43590  0.58210  Biso   1.000  H
  H4       1.0000 0.52530  0.93590  0.91790  Biso   1.000  H
  C17      1.0000 0.48840  0.65320  0.24780  Biso   1.000  C
  C18      1.0000 0.51160  0.15320  0.25220  Biso   1.000  C
  C19      1.0000 0.51160  0.34680  0.75220  Biso   1.000  C
  C20      1.0000 0.48840  0.84680  0.74780  Biso   1.000  C
  H5       1.0000 0.42130  0.70340  0.25090  Biso   1.000  H
  H6       1.0000 0.57870  0.20340  0.24910  Biso   1.000  H
  H7       1.0000 0.57870  0.29660  0.74910  Biso   1.000  H
  H8       1.0000 0.42130  0.79660  0.75090  Biso   1.000  H
  C21      1.0000 0.52710  0.66120  0.14410  Biso   1.000  C
  C22      1.0000 0.47290  0.16120  0.35590  Biso   1.000  C
  C23      1.0000 0.47290  0.33880  0.85590  Biso   1.000  C
  C24      1.0000 0.52710  0.83880  0.64410  Biso   1.000  C
  H9       1.0000 0.48790  0.71800  0.07650  Biso   1.000  H
  H10      1.0000 0.51210  0.21800  0.42350  Biso   1.000  H
  H11      1.0000 0.51210  0.28200  0.92350  Biso   1.000  H
  H12      1.0000 0.48790  0.78200  0.57650  Biso   1.000  H
  C25      1.0000 0.62510  0.58350  0.14290  Biso   1.000  C
  C26      1.0000 0.37490  0.08350  0.35710  Biso   1.000  C
  C27      1.0000 0.37490  0.41650  0.85710  Biso   1.000  C
  C28      1.0000 0.62510  0.91650  0.64290  Biso   1.000  C
  H13      1.0000 0.65000  0.58800  0.07170  Biso   1.000  H
  H14      1.0000 0.35000  0.08800  0.42830  Biso   1.000  H
  H15      1.0000 0.35000  0.41200  0.92830  Biso   1.000  H
  H16      1.0000 0.65000  0.91200  0.57170  Biso   1.000  H
  C29      1.0000 0.96740  0.18630  0.58300  Biso   1.000  C
  C30      1.0000 0.03260  0.68630  0.91700  Biso   1.000  C
  C31      1.0000 0.03260  0.81370  0.41700  Biso   1.000  C
  C32      1.0000 0.96740  0.31370  0.08300  Biso   1.000  C
  C33      1.0000 0.05990  0.18960  0.53050  Biso   1.000  C
  C34      1.0000 0.94010  0.68960  0.96950  Biso   1.000  C
  C35      1.0000 0.94010  0.81040  0.46950  Biso   1.000  C
  C36      1.0000 0.05990  0.31040  0.03050  Biso   1.000  C
  H17      1.0000 0.05050  0.23690  0.45560  Biso   1.000  H
  H18      1.0000 0.94950  0.73690  0.04440  Biso   1.000  H
  H19      1.0000 0.94950  0.76310  0.54440  Biso   1.000  H
  H20      1.0000 0.05050  0.26310  0.95560  Biso   1.000  H
  C37      1.0000 0.16570  0.12210  0.59050  Biso   1.000  C
  C38      1.0000 0.83430  0.62210  0.90950  Biso   1.000  C
  C39      1.0000 0.83430  0.87790  0.40950  Biso   1.000  C
  C40      1.0000 0.16570  0.37790  0.09050  Biso   1.000  C
  H21      1.0000 0.22950  0.12390  0.55730  Biso   1.000  H
  H22      1.0000 0.77050  0.62390  0.94270  Biso   1.000  H
  H23      1.0000 0.77050  0.87610  0.44270  Biso   1.000  H
  H24      1.0000 0.22950  0.37610  0.05730  Biso   1.000  H
  C41      1.0000 0.17700  0.05140  0.70060  Biso   1.000  C
  C42      1.0000 0.82300  0.55140  0.79940  Biso   1.000  C
  C43      1.0000 0.82300  0.94860  0.29940  Biso   1.000  C
  C44      1.0000 0.17700  0.44860  0.20060  Biso   1.000  C
  H25      1.0000 0.24810  0.00490  0.74280  Biso   1.000  H
  H26      1.0000 0.75190  0.50490  0.75720  Biso   1.000  H
  H27      1.0000 0.75190  0.99510  0.25720  Biso   1.000  H
  H28      1.0000 0.24810  0.49510  0.24280  Biso   1.000  H
  C45      1.0000 0.08140  0.05150  0.74590  Biso   1.000  C
  C46      1.0000 0.91860  0.55150  0.75410  Biso   1.000  C
  C47      1.0000 0.91860  0.94850  0.25410  Biso   1.000  C
  C48      1.0000 0.08140  0.44850  0.24590  Biso   1.000  C
  H29      1.0000 0.08900  0.00340  0.82000  Biso   1.000  H
  H30      1.0000 0.91100  0.50340  0.68000  Biso   1.000  H
  H31      1.0000 0.91100  0.99660  0.18000  Biso   1.000  H
  H32      1.0000 0.08900  0.49660  0.32000  Biso   1.000  H
