data_image0
_cell_length_a       11.4967
_cell_length_b       11.4967
_cell_length_c       18.224
_cell_angle_alpha    90
_cell_angle_beta     90
_cell_angle_gamma    90

_symmetry_space_group_name_H-M    "P 1"
_symmetry_int_tables_number       1

loop_
  _symmetry_equiv_pos_as_xyz
  'x, y, z'

loop_
  _atom_site_label
  _atom_site_occupancy
  _atom_site_fract_x
  _atom_site_fract_y
  _atom_site_fract_z
  _atom_site_thermal_displace_type
  _atom_site_B_iso_or_equiv
  _atom_site_type_symbol
  Cu1      1.0000 0.78455  0.40129  0.04024  Biso   1.000  Cu
  Cu2      1.0000 0.21545  0.59871  0.54024  Biso   1.000  Cu
  Cu3      1.0000 0.09871  0.28455  0.29024  Biso   1.000  Cu
  Cu4      1.0000 0.90129  0.71545  0.79024  Biso   1.000  Cu
  Cu5      1.0000 0.71545  0.90129  0.20976  Biso   1.000  Cu
  Cu6      1.0000 0.28455  0.09871  0.70976  Biso   1.000  Cu
  Cu7      1.0000 0.40129  0.78455  0.95976  Biso   1.000  Cu
  Cu8      1.0000 0.59871  0.21545  0.45976  Biso   1.000  Cu
  C1       1.0000 0.67280  0.53310  0.16990  Biso   1.000  C
  C2       1.0000 0.32720  0.46690  0.66990  Biso   1.000  C
  C3       1.0000 0.96690  0.17280  0.41990  Biso   1.000  C
  C4       1.0000 0.03310  0.82720  0.91990  Biso   1.000  C
  C5       1.0000 0.82720  0.03310  0.08010  Biso   1.000  C
  C6       1.0000 0.17280  0.96690  0.58010  Biso   1.000  C
  C7       1.0000 0.53310  0.67280  0.83010  Biso   1.000  C
  C8       1.0000 0.46690  0.32720  0.33010  Biso   1.000  C
  H1       1.0000 0.62550  0.57060  0.13590  Biso   1.000  H
  H2       1.0000 0.37450  0.42940  0.63590  Biso   1.000  H
  H3       1.0000 0.92940  0.12550  0.38590  Biso   1.000  H
  H4       1.0000 0.07060  0.87450  0.88590  Biso   1.000  H
  H5       1.0000 0.87450  0.07060  0.11410  Biso   1.000  H
  H6       1.0000 0.12550  0.92940  0.61410  Biso   1.000  H
  H7       1.0000 0.57060  0.62550  0.86410  Biso   1.000  H
  H8       1.0000 0.42940  0.37450  0.36410  Biso   1.000  H
  C9       1.0000 0.65500  0.55420  0.24360  Biso   1.000  C
  C10      1.0000 0.34500  0.44580  0.74360  Biso   1.000  C
  C11      1.0000 0.94580  0.15500  0.49360  Biso   1.000  C
  C12      1.0000 0.05420  0.84500  0.99360  Biso   1.000  C
  C13      1.0000 0.84500  0.05420  0.00640  Biso   1.000  C
  C14      1.0000 0.15500  0.94580  0.50640  Biso   1.000  C
  C15      1.0000 0.55420  0.65500  0.75640  Biso   1.000  C
  C16      1.0000 0.44580  0.34500  0.25640  Biso   1.000  C
  H9       1.0000 0.59610  0.60400  0.25880  Biso   1.000  H
  H10      1.0000 0.40390  0.39600  0.75880  Biso   1.000  H
  H11      1.0000 0.89600  0.09610  0.50880  Biso   1.000  H
  H12      1.0000 0.10400  0.90390  0.00880  Biso   1.000  H
  H13      1.0000 0.90390  0.10400  0.99120  Biso   1.000  H
  H14      1.0000 0.09610  0.89600  0.49120  Biso   1.000  H
  H15      1.0000 0.60400  0.59610  0.74120  Biso   1.000  H
  H16      1.0000 0.39600  0.40390  0.24120  Biso   1.000  H
  C17      1.0000 0.72420  0.50160  0.29320  Biso   1.000  C
  C18      1.0000 0.27580  0.49840  0.79320  Biso   1.000  C
  C19      1.0000 0.99840  0.22420  0.54320  Biso   1.000  C
  C20      1.0000 0.00160  0.77580  0.04320  Biso   1.000  C
  C21      1.0000 0.77580  0.00160  0.95680  Biso   1.000  C
  C22      1.0000 0.22420  0.99840  0.45680  Biso   1.000  C
  C23      1.0000 0.50160  0.72420  0.70680  Biso   1.000  C
  C24      1.0000 0.49840  0.27580  0.20680  Biso   1.000  C
  H17      1.0000 0.71190  0.51370  0.34310  Biso   1.000  H
  H18      1.0000 0.28810  0.48630  0.84310  Biso   1.000  H
  H19      1.0000 0.98630  0.21190  0.59310  Biso   1.000  H
  H20      1.0000 0.01370  0.78810  0.09310  Biso   1.000  H
  H21      1.0000 0.78810  0.01370  0.90690  Biso   1.000  H
  H22      1.0000 0.21190  0.98630  0.40690  Biso   1.000  H
  H23      1.0000 0.51370  0.71190  0.65690  Biso   1.000  H
  H24      1.0000 0.48630  0.28810  0.15690  Biso   1.000  H
  C25      1.0000 0.81380  0.42950  0.27010  Biso   1.000  C
  C26      1.0000 0.18620  0.57050  0.77010  Biso   1.000  C
  C27      1.0000 0.07050  0.31380  0.52010  Biso   1.000  C
  C28      1.0000 0.92950  0.68620  0.02010  Biso   1.000  C
  C29      1.0000 0.68620  0.92950  0.97990  Biso   1.000  C
  C30      1.0000 0.31380  0.07050  0.47990  Biso   1.000  C
  C31      1.0000 0.42950  0.81380  0.72990  Biso   1.000  C
  C32      1.0000 0.57050  0.18620  0.22990  Biso   1.000  C
  H25      1.0000 0.86350  0.39370  0.30350  Biso   1.000  H
  H26      1.0000 0.13650  0.60630  0.80350  Biso   1.000  H
  H27      1.0000 0.10630  0.36350  0.55350  Biso   1.000  H
  H28      1.0000 0.89370  0.63650  0.05350  Biso   1.000  H
  H29      1.0000 0.63650  0.89370  0.94650  Biso   1.000  H
  H30      1.0000 0.36350  0.10630  0.44650  Biso   1.000  H
  H31      1.0000 0.39370  0.86350  0.69650  Biso   1.000  H
  H32      1.0000 0.60630  0.13650  0.19650  Biso   1.000  H
  C33      1.0000 0.82590  0.41320  0.19510  Biso   1.000  C
  C34      1.0000 0.17410  0.58680  0.69510  Biso   1.000  C
  C35      1.0000 0.08680  0.32590  0.44510  Biso   1.000  C
  C36      1.0000 0.91320  0.67410  0.94510  Biso   1.000  C
  C37      1.0000 0.67410  0.91320  0.05490  Biso   1.000  C
  C38      1.0000 0.32590  0.08680  0.55490  Biso   1.000  C
  C39      1.0000 0.41320  0.82590  0.80490  Biso   1.000  C
  C40      1.0000 0.58680  0.17410  0.30490  Biso   1.000  C
  C41      1.0000 0.91700  0.34200  0.16300  Biso   1.000  C
  C42      1.0000 0.08300  0.65800  0.66300  Biso   1.000  C
  C43      1.0000 0.15800  0.41700  0.41300  Biso   1.000  C
  C44      1.0000 0.84200  0.58300  0.91300  Biso   1.000  C
  C45      1.0000 0.58300  0.84200  0.08700  Biso   1.000  C
  C46      1.0000 0.41700  0.15800  0.58700  Biso   1.000  C
  C47      1.0000 0.34200  0.91700  0.83700  Biso   1.000  C
  C48      1.0000 0.65800  0.08300  0.33700  Biso   1.000  C
  C49      1.0000 0.05980  0.23320  0.14290  Biso   1.000  C
  C50      1.0000 0.94020  0.76680  0.64290  Biso   1.000  C
  C51      1.0000 0.26680  0.55980  0.39290  Biso   1.000  C
  C52      1.0000 0.73320  0.44020  0.89290  Biso   1.000  C
  C53      1.0000 0.44020  0.73320  0.10710  Biso   1.000  C
  C54      1.0000 0.55980  0.26680  0.60710  Biso   1.000  C
  C55      1.0000 0.23320  0.05980  0.85710  Biso   1.000  C
  C56      1.0000 0.76680  0.94020  0.35710  Biso   1.000  C
  C57      1.0000 0.15850  0.15910  0.15890  Biso   1.000  C
  C58      1.0000 0.84150  0.84090  0.65890  Biso   1.000  C
  C59      1.0000 0.34090  0.65850  0.40890  Biso   1.000  C
  C60      1.0000 0.65910  0.34150  0.90890  Biso   1.000  C
  C61      1.0000 0.34150  0.65910  0.09110  Biso   1.000  C
  C62      1.0000 0.65850  0.34090  0.59110  Biso   1.000  C
  C63      1.0000 0.15910  0.15850  0.84110  Biso   1.000  C
  C64      1.0000 0.84090  0.84150  0.34110  Biso   1.000  C
  C65      1.0000 0.21380  0.09070  0.10590  Biso   1.000  C
  C66      1.0000 0.78620  0.90930  0.60590  Biso   1.000  C
  C67      1.0000 0.40930  0.71380  0.35590  Biso   1.000  C
  C68      1.0000 0.59070  0.28620  0.85590  Biso   1.000  C
  C69      1.0000 0.28620  0.59070  0.14410  Biso   1.000  C
  C70      1.0000 0.71380  0.40930  0.64410  Biso   1.000  C
  C71      1.0000 0.09070  0.21380  0.89410  Biso   1.000  C
  C72      1.0000 0.90930  0.78620  0.39410  Biso   1.000  C
  H33      1.0000 0.19130  0.09400  0.05690  Biso   1.000  H
  H34      1.0000 0.80870  0.90600  0.55690  Biso   1.000  H
  H35      1.0000 0.40600  0.69130  0.30690  Biso   1.000  H
  H36      1.0000 0.59400  0.30870  0.80690  Biso   1.000  H
  H37      1.0000 0.30870  0.59400  0.19310  Biso   1.000  H
  H38      1.0000 0.69130  0.40600  0.69310  Biso   1.000  H
  H39      1.0000 0.09400  0.19130  0.94310  Biso   1.000  H
  H40      1.0000 0.90600  0.80870  0.44310  Biso   1.000  H
  C73      1.0000 0.30310  0.01760  0.12840  Biso   1.000  C
  C74      1.0000 0.69690  0.98240  0.62840  Biso   1.000  C
  C75      1.0000 0.48240  0.80310  0.37840  Biso   1.000  C
  C76      1.0000 0.51760  0.19690  0.87840  Biso   1.000  C
  C77      1.0000 0.19690  0.51760  0.12160  Biso   1.000  C
  C78      1.0000 0.80310  0.48240  0.62160  Biso   1.000  C
  C79      1.0000 0.01760  0.30310  0.87160  Biso   1.000  C
  C80      1.0000 0.98240  0.69690  0.37160  Biso   1.000  C
  H41      1.0000 0.34230  0.97160  0.09440  Biso   1.000  H
  H42      1.0000 0.65770  0.02840  0.59440  Biso   1.000  H
  H43      1.0000 0.52840  0.84230  0.34440  Biso   1.000  H
  H44      1.0000 0.47160  0.15770  0.84440  Biso   1.000  H
  H45      1.0000 0.15770  0.47160  0.15560  Biso   1.000  H
  H46      1.0000 0.84230  0.52840  0.65560  Biso   1.000  H
  H47      1.0000 0.97160  0.34230  0.90560  Biso   1.000  H
  H48      1.0000 0.02840  0.65770  0.40560  Biso   1.000  H
  C81      1.0000 0.33290  0.01420  0.20080  Biso   1.000  C
  C82      1.0000 0.66710  0.98580  0.70080  Biso   1.000  C
  C83      1.0000 0.48580  0.83290  0.45080  Biso   1.000  C
  C84      1.0000 0.51420  0.16710  0.95080  Biso   1.000  C
  C85      1.0000 0.16710  0.51420  0.04920  Biso   1.000  C
  C86      1.0000 0.83290  0.48580  0.54920  Biso   1.000  C
  C87      1.0000 0.01420  0.33290  0.79920  Biso   1.000  C
  C88      1.0000 0.98580  0.66710  0.29920  Biso   1.000  C
  H49      1.0000 0.39040  0.96370  0.21740  Biso   1.000  H
  H50      1.0000 0.60960  0.03630  0.71740  Biso   1.000  H
  H51      1.0000 0.53630  0.89040  0.46740  Biso   1.000  H
  H52      1.0000 0.46370  0.10960  0.96740  Biso   1.000  H
  H53      1.0000 0.10960  0.46370  0.03260  Biso   1.000  H
  H54      1.0000 0.89040  0.53630  0.53260  Biso   1.000  H
  H55      1.0000 0.96370  0.39040  0.78260  Biso   1.000  H
  H56      1.0000 0.03630  0.60960  0.28260  Biso   1.000  H
  C89      1.0000 0.27650  0.08640  0.24860  Biso   1.000  C
  C90      1.0000 0.72350  0.91360  0.74860  Biso   1.000  C
  C91      1.0000 0.41360  0.77650  0.49860  Biso   1.000  C
  C92      1.0000 0.58640  0.22350  0.99860  Biso   1.000  C
  C93      1.0000 0.22350  0.58640  0.00140  Biso   1.000  C
  C94      1.0000 0.77650  0.41360  0.50140  Biso   1.000  C
  C95      1.0000 0.08640  0.27650  0.75140  Biso   1.000  C
  C96      1.0000 0.91360  0.72350  0.25140  Biso   1.000  C
  H57      1.0000 0.29860  0.08460  0.29760  Biso   1.000  H
  H58      1.0000 0.70140  0.91540  0.79760  Biso   1.000  H
  H59      1.0000 0.41540  0.79860  0.54760  Biso   1.000  H
  H60      1.0000 0.58460  0.20140  0.04760  Biso   1.000  H
  H61      1.0000 0.20140  0.58460  0.95240  Biso   1.000  H
  H62      1.0000 0.79860  0.41540  0.45240  Biso   1.000  H
  H63      1.0000 0.08460  0.29860  0.70240  Biso   1.000  H
  H64      1.0000 0.91540  0.70140  0.20240  Biso   1.000  H
  N1       1.0000 0.75410  0.46200  0.14560  Biso   1.000  N
  N2       1.0000 0.24590  0.53800  0.64560  Biso   1.000  N
  N3       1.0000 0.03800  0.25410  0.39560  Biso   1.000  N
  N4       1.0000 0.96200  0.74590  0.89560  Biso   1.000  N
  N5       1.0000 0.74590  0.96200  0.10440  Biso   1.000  N
  N6       1.0000 0.25410  0.03800  0.60440  Biso   1.000  N
  N7       1.0000 0.46200  0.75410  0.85440  Biso   1.000  N
  N8       1.0000 0.53800  0.24590  0.35440  Biso   1.000  N
  N9       1.0000 0.91830  0.32200  0.09050  Biso   1.000  N
  N10      1.0000 0.08170  0.67800  0.59050  Biso   1.000  N
  N11      1.0000 0.17800  0.41830  0.34050  Biso   1.000  N
  N12      1.0000 0.82200  0.58170  0.84050  Biso   1.000  N
  N13      1.0000 0.58170  0.82200  0.15950  Biso   1.000  N
  N14      1.0000 0.41830  0.17800  0.65950  Biso   1.000  N
  N15      1.0000 0.32200  0.91830  0.90950  Biso   1.000  N
  N16      1.0000 0.67800  0.08170  0.40950  Biso   1.000  N
  N17      1.0000 0.01260  0.25270  0.07720  Biso   1.000  N
  N18      1.0000 0.98740  0.74730  0.57720  Biso   1.000  N
  N19      1.0000 0.24730  0.51260  0.32720  Biso   1.000  N
  N20      1.0000 0.75270  0.48740  0.82720  Biso   1.000  N
  N21      1.0000 0.48740  0.75270  0.17280  Biso   1.000  N
  N22      1.0000 0.51260  0.24730  0.67280  Biso   1.000  N
  N23      1.0000 0.25270  0.01260  0.92280  Biso   1.000  N
  N24      1.0000 0.74730  0.98740  0.42280  Biso   1.000  N
  N25      1.0000 0.00560  0.28850  0.19890  Biso   1.000  N
  N26      1.0000 0.99440  0.71150  0.69890  Biso   1.000  N
  N27      1.0000 0.21150  0.50560  0.44890  Biso   1.000  N
  N28      1.0000 0.78850  0.49440  0.94890  Biso   1.000  N
  N29      1.0000 0.49440  0.78850  0.05110  Biso   1.000  N
  N30      1.0000 0.50560  0.21150  0.55110  Biso   1.000  N
  N31      1.0000 0.28850  0.00560  0.80110  Biso   1.000  N
  N32      1.0000 0.71150  0.99440  0.30110  Biso   1.000  N
  N33      1.0000 0.19270  0.15860  0.22940  Biso   1.000  N
  N34      1.0000 0.80730  0.84140  0.72940  Biso   1.000  N
  N35      1.0000 0.34140  0.69270  0.47940  Biso   1.000  N
  N36      1.0000 0.65860  0.30730  0.97940  Biso   1.000  N
  N37      1.0000 0.30730  0.65860  0.02060  Biso   1.000  N
  N38      1.0000 0.69270  0.34140  0.52060  Biso   1.000  N
  N39      1.0000 0.15860  0.19270  0.77060  Biso   1.000  N
  N40      1.0000 0.84140  0.80730  0.27060  Biso   1.000  N
