data_image0
_cell_length_a       16.2147
_cell_length_b       18.5212
_cell_length_c       12.5482
_cell_angle_alpha    90
_cell_angle_beta     115.506
_cell_angle_gamma    90

_symmetry_space_group_name_H-M    "P 1"
_symmetry_int_tables_number       1

loop_
  _symmetry_equiv_pos_as_xyz
  'x, y, z'

loop_
  _atom_site_label
  _atom_site_occupancy
  _atom_site_fract_x
  _atom_site_fract_y
  _atom_site_fract_z
  _atom_site_thermal_displace_type
  _atom_site_B_iso_or_equiv
  _atom_site_type_symbol
  Cu1      1.0000 0.00000  0.01754  0.75000  Biso   1.000  Cu
  Cu2      1.0000 0.50000  0.51754  0.75000  Biso   1.000  Cu
  Cu3      1.0000 0.00000  0.98246  0.25000  Biso   1.000  Cu
  Cu4      1.0000 0.50000  0.48246  0.25000  Biso   1.000  Cu
  Cu5      1.0000 0.03856  0.24495  0.11147  Biso   1.000  Cu
  Cu6      1.0000 0.53856  0.74495  0.11147  Biso   1.000  Cu
  Cu7      1.0000 0.96144  0.24495  0.38853  Biso   1.000  Cu
  Cu8      1.0000 0.46144  0.74495  0.38853  Biso   1.000  Cu
  Cu9      1.0000 0.96144  0.75505  0.88853  Biso   1.000  Cu
  Cu10     1.0000 0.46144  0.25505  0.88853  Biso   1.000  Cu
  Cu11     1.0000 0.03856  0.75505  0.61147  Biso   1.000  Cu
  Cu12     1.0000 0.53856  0.25505  0.61147  Biso   1.000  Cu
  N1       1.0000 0.11441  0.09823  0.08369  Biso   1.000  N
  N2       1.0000 0.61441  0.59823  0.08369  Biso   1.000  N
  N3       1.0000 0.88559  0.09823  0.41631  Biso   1.000  N
  N4       1.0000 0.38559  0.59823  0.41631  Biso   1.000  N
  N5       1.0000 0.88559  0.90177  0.91631  Biso   1.000  N
  N6       1.0000 0.38559  0.40177  0.91631  Biso   1.000  N
  N7       1.0000 0.11441  0.90177  0.58369  Biso   1.000  N
  N8       1.0000 0.61441  0.40177  0.58369  Biso   1.000  N
  N9       1.0000 0.05676  0.15604  0.04388  Biso   1.000  N
  N10      1.0000 0.55676  0.65604  0.04388  Biso   1.000  N
  N11      1.0000 0.94324  0.15604  0.45612  Biso   1.000  N
  N12      1.0000 0.44324  0.65604  0.45612  Biso   1.000  N
  N13      1.0000 0.94324  0.84396  0.95612  Biso   1.000  N
  N14      1.0000 0.44324  0.34396  0.95612  Biso   1.000  N
  N15      1.0000 0.05676  0.84396  0.54388  Biso   1.000  N
  N16      1.0000 0.55676  0.34396  0.54388  Biso   1.000  N
  N17      1.0000 0.01676  0.07909  0.89348  Biso   1.000  N
  N18      1.0000 0.51676  0.57909  0.89348  Biso   1.000  N
  N19      1.0000 0.98324  0.07909  0.60652  Biso   1.000  N
  N20      1.0000 0.48324  0.57909  0.60652  Biso   1.000  N
  N21      1.0000 0.98324  0.92091  0.10652  Biso   1.000  N
  N22      1.0000 0.48324  0.42091  0.10652  Biso   1.000  N
  N23      1.0000 0.01676  0.92091  0.39348  Biso   1.000  N
  N24      1.0000 0.51676  0.42091  0.39348  Biso   1.000  N
  N25      1.0000 0.10056  0.95691  0.87757  Biso   1.000  N
  N26      1.0000 0.60056  0.45691  0.87757  Biso   1.000  N
  N27      1.0000 0.89944  0.95691  0.62243  Biso   1.000  N
  N28      1.0000 0.39944  0.45691  0.62243  Biso   1.000  N
  N29      1.0000 0.89944  0.04309  0.12243  Biso   1.000  N
  N30      1.0000 0.39944  0.54309  0.12243  Biso   1.000  N
  N31      1.0000 0.10056  0.04309  0.37757  Biso   1.000  N
  N32      1.0000 0.60056  0.54309  0.37757  Biso   1.000  N
  N33      1.0000 0.92481  0.25239  0.92450  Biso   1.000  N
  N34      1.0000 0.42481  0.75239  0.92450  Biso   1.000  N
  N35      1.0000 0.07519  0.25239  0.57550  Biso   1.000  N
  N36      1.0000 0.57519  0.75239  0.57550  Biso   1.000  N
  N37      1.0000 0.07519  0.74761  0.07550  Biso   1.000  N
  N38      1.0000 0.57519  0.24761  0.07550  Biso   1.000  N
  N39      1.0000 0.92481  0.74761  0.42450  Biso   1.000  N
  N40      1.0000 0.42481  0.24761  0.42450  Biso   1.000  N
  N41      1.0000 0.02131  0.31530  0.21330  Biso   1.000  N
  N42      1.0000 0.52131  0.81530  0.21330  Biso   1.000  N
  N43      1.0000 0.97869  0.31530  0.28670  Biso   1.000  N
  N44      1.0000 0.47869  0.81530  0.28670  Biso   1.000  N
  N45      1.0000 0.97869  0.68470  0.78670  Biso   1.000  N
  N46      1.0000 0.47869  0.18470  0.78670  Biso   1.000  N
  N47      1.0000 0.02131  0.68470  0.71330  Biso   1.000  N
  N48      1.0000 0.52131  0.18470  0.71330  Biso   1.000  N
  N49      1.0000 0.00000  0.43071  0.25000  Biso   1.000  N
  N50      1.0000 0.50000  0.93071  0.25000  Biso   1.000  N
  N51      1.0000 0.00000  0.56929  0.75000  Biso   1.000  N
  N52      1.0000 0.50000  0.06929  0.75000  Biso   1.000  N
  N53      1.0000 0.08911  0.35120  0.05800  Biso   1.000  N
  N54      1.0000 0.58911  0.85120  0.05800  Biso   1.000  N
  N55      1.0000 0.91089  0.35120  0.44200  Biso   1.000  N
  N56      1.0000 0.41089  0.85120  0.44200  Biso   1.000  N
  N57      1.0000 0.91089  0.64880  0.94200  Biso   1.000  N
  N58      1.0000 0.41089  0.14880  0.94200  Biso   1.000  N
  N59      1.0000 0.08911  0.64880  0.55800  Biso   1.000  N
  N60      1.0000 0.58911  0.14880  0.55800  Biso   1.000  N
  C1       1.0000 0.08797  0.05426  0.99149  Biso   1.000  C
  C2       1.0000 0.58797  0.55426  0.99149  Biso   1.000  C
  C3       1.0000 0.91203  0.05426  0.50851  Biso   1.000  C
  C4       1.0000 0.41203  0.55426  0.50851  Biso   1.000  C
  C5       1.0000 0.91203  0.94574  0.00851  Biso   1.000  C
  C6       1.0000 0.41203  0.44574  0.00851  Biso   1.000  C
  C7       1.0000 0.08797  0.94574  0.49149  Biso   1.000  C
  C8       1.0000 0.58797  0.44574  0.49149  Biso   1.000  C
  C9       1.0000 0.00021  0.14271  0.93123  Biso   1.000  C
  C10      1.0000 0.50021  0.64271  0.93123  Biso   1.000  C
  C11      1.0000 0.99979  0.14271  0.56877  Biso   1.000  C
  C12      1.0000 0.49979  0.64271  0.56877  Biso   1.000  C
  C13      1.0000 0.99979  0.85729  0.06877  Biso   1.000  C
  C14      1.0000 0.49979  0.35729  0.06877  Biso   1.000  C
  C15      1.0000 0.00021  0.85729  0.43123  Biso   1.000  C
  C16      1.0000 0.50021  0.35729  0.43123  Biso   1.000  C
  C17      1.0000 0.12880  0.98442  0.98745  Biso   1.000  C
  C18      1.0000 0.62880  0.48442  0.98745  Biso   1.000  C
  C19      1.0000 0.87120  0.98442  0.51255  Biso   1.000  C
  C20      1.0000 0.37120  0.48442  0.51255  Biso   1.000  C
  C21      1.0000 0.87120  0.01558  0.01255  Biso   1.000  C
  C22      1.0000 0.37120  0.51558  0.01255  Biso   1.000  C
  C23      1.0000 0.12880  0.01558  0.48745  Biso   1.000  C
  C24      1.0000 0.62880  0.51558  0.48745  Biso   1.000  C
  C25      1.0000 0.19081  0.94871  0.08620  Biso   1.000  C
  C26      1.0000 0.69081  0.44871  0.08620  Biso   1.000  C
  C27      1.0000 0.80919  0.94871  0.41380  Biso   1.000  C
  C28      1.0000 0.30919  0.44871  0.41380  Biso   1.000  C
  C29      1.0000 0.80919  0.05129  0.91380  Biso   1.000  C
  C30      1.0000 0.30919  0.55129  0.91380  Biso   1.000  C
  C31      1.0000 0.19081  0.05129  0.58620  Biso   1.000  C
  C32      1.0000 0.69081  0.55129  0.58620  Biso   1.000  C
  H1       1.0000 0.21000  0.96920  0.16070  Biso   1.000  H
  H2       1.0000 0.71000  0.46920  0.16070  Biso   1.000  H
  H3       1.0000 0.79000  0.96920  0.33930  Biso   1.000  H
  H4       1.0000 0.29000  0.46920  0.33930  Biso   1.000  H
  H5       1.0000 0.79000  0.03080  0.83930  Biso   1.000  H
  H6       1.0000 0.29000  0.53080  0.83930  Biso   1.000  H
  H7       1.0000 0.21000  0.03080  0.66070  Biso   1.000  H
  H8       1.0000 0.71000  0.53080  0.66070  Biso   1.000  H
  C33      1.0000 0.22387  0.88239  0.07300  Biso   1.000  C
  C34      1.0000 0.72387  0.38239  0.07300  Biso   1.000  C
  C35      1.0000 0.77613  0.88239  0.42700  Biso   1.000  C
  C36      1.0000 0.27613  0.38239  0.42700  Biso   1.000  C
  C37      1.0000 0.77613  0.11761  0.92700  Biso   1.000  C
  C38      1.0000 0.27613  0.61761  0.92700  Biso   1.000  C
  C39      1.0000 0.22387  0.11761  0.57300  Biso   1.000  C
  C40      1.0000 0.72387  0.61761  0.57300  Biso   1.000  C
  H9       1.0000 0.26640  0.85780  0.13810  Biso   1.000  H
  H10      1.0000 0.76640  0.35780  0.13810  Biso   1.000  H
  H11      1.0000 0.73360  0.85780  0.36190  Biso   1.000  H
  H12      1.0000 0.23360  0.35780  0.36190  Biso   1.000  H
  H13      1.0000 0.73360  0.14220  0.86190  Biso   1.000  H
  H14      1.0000 0.23360  0.64220  0.86190  Biso   1.000  H
  H15      1.0000 0.26640  0.14220  0.63810  Biso   1.000  H
  H16      1.0000 0.76640  0.64220  0.63810  Biso   1.000  H
  C41      1.0000 0.19271  0.85308  0.96120  Biso   1.000  C
  C42      1.0000 0.69271  0.35308  0.96120  Biso   1.000  C
  C43      1.0000 0.80729  0.85308  0.53880  Biso   1.000  C
  C44      1.0000 0.30729  0.35308  0.53880  Biso   1.000  C
  C45      1.0000 0.80729  0.14692  0.03880  Biso   1.000  C
  C46      1.0000 0.30729  0.64692  0.03880  Biso   1.000  C
  C47      1.0000 0.19271  0.14692  0.46120  Biso   1.000  C
  C48      1.0000 0.69271  0.64692  0.46120  Biso   1.000  C
  H17      1.0000 0.21260  0.80780  0.95020  Biso   1.000  H
  H18      1.0000 0.71260  0.30780  0.95020  Biso   1.000  H
  H19      1.0000 0.78740  0.80780  0.54980  Biso   1.000  H
  H20      1.0000 0.28740  0.30780  0.54980  Biso   1.000  H
  H21      1.0000 0.78740  0.19220  0.04980  Biso   1.000  H
  H22      1.0000 0.28740  0.69220  0.04980  Biso   1.000  H
  H23      1.0000 0.21260  0.19220  0.45020  Biso   1.000  H
  H24      1.0000 0.71260  0.69220  0.45020  Biso   1.000  H
  C49      1.0000 0.13230  0.89158  0.86700  Biso   1.000  C
  C50      1.0000 0.63230  0.39158  0.86700  Biso   1.000  C
  C51      1.0000 0.86770  0.89158  0.63300  Biso   1.000  C
  C52      1.0000 0.36770  0.39158  0.63300  Biso   1.000  C
  C53      1.0000 0.86770  0.10842  0.13300  Biso   1.000  C
  C54      1.0000 0.36770  0.60842  0.13300  Biso   1.000  C
  C55      1.0000 0.13230  0.10842  0.36700  Biso   1.000  C
  C56      1.0000 0.63230  0.60842  0.36700  Biso   1.000  C
  H25      1.0000 0.11220  0.87160  0.79200  Biso   1.000  H
  H26      1.0000 0.61220  0.37160  0.79200  Biso   1.000  H
  H27      1.0000 0.88780  0.87160  0.70800  Biso   1.000  H
  H28      1.0000 0.38780  0.37160  0.70800  Biso   1.000  H
  H29      1.0000 0.88780  0.12840  0.20800  Biso   1.000  H
  H30      1.0000 0.38780  0.62840  0.20800  Biso   1.000  H
  H31      1.0000 0.11220  0.12840  0.29200  Biso   1.000  H
  H32      1.0000 0.61220  0.62840  0.29200  Biso   1.000  H
  C57      1.0000 0.92905  0.19449  0.86220  Biso   1.000  C
  C58      1.0000 0.42905  0.69449  0.86220  Biso   1.000  C
  C59      1.0000 0.07095  0.19449  0.63780  Biso   1.000  C
  C60      1.0000 0.57095  0.69449  0.63780  Biso   1.000  C
  C61      1.0000 0.07095  0.80551  0.13780  Biso   1.000  C
  C62      1.0000 0.57095  0.30551  0.13780  Biso   1.000  C
  C63      1.0000 0.92905  0.80551  0.36220  Biso   1.000  C
  C64      1.0000 0.42905  0.30551  0.36220  Biso   1.000  C
  C65      1.0000 0.87024  0.18545  0.74450  Biso   1.000  C
  C66      1.0000 0.37024  0.68545  0.74450  Biso   1.000  C
  C67      1.0000 0.12976  0.18545  0.75550  Biso   1.000  C
  C68      1.0000 0.62976  0.68545  0.75550  Biso   1.000  C
  C69      1.0000 0.12976  0.81455  0.25550  Biso   1.000  C
  C70      1.0000 0.62976  0.31455  0.25550  Biso   1.000  C
  C71      1.0000 0.87024  0.81455  0.24450  Biso   1.000  C
  C72      1.0000 0.37024  0.31455  0.24450  Biso   1.000  C
  H33      1.0000 0.87470  0.14540  0.70260  Biso   1.000  H
  H34      1.0000 0.37470  0.64540  0.70260  Biso   1.000  H
  H35      1.0000 0.12530  0.14540  0.79740  Biso   1.000  H
  H36      1.0000 0.62530  0.64540  0.79740  Biso   1.000  H
  H37      1.0000 0.12530  0.85460  0.29740  Biso   1.000  H
  H38      1.0000 0.62530  0.35460  0.29740  Biso   1.000  H
  H39      1.0000 0.87470  0.85460  0.20260  Biso   1.000  H
  H40      1.0000 0.37470  0.35460  0.20260  Biso   1.000  H
  C73      1.0000 0.80420  0.23818  0.69050  Biso   1.000  C
  C74      1.0000 0.30420  0.73818  0.69050  Biso   1.000  C
  C75      1.0000 0.19580  0.23818  0.80950  Biso   1.000  C
  C76      1.0000 0.69580  0.73818  0.80950  Biso   1.000  C
  C77      1.0000 0.19580  0.76182  0.30950  Biso   1.000  C
  C78      1.0000 0.69580  0.26182  0.30950  Biso   1.000  C
  C79      1.0000 0.80420  0.76182  0.19050  Biso   1.000  C
  C80      1.0000 0.30420  0.26182  0.19050  Biso   1.000  C
  H41      1.0000 0.76270  0.23320  0.61180  Biso   1.000  H
  H42      1.0000 0.26270  0.73320  0.61180  Biso   1.000  H
  H43      1.0000 0.23730  0.23320  0.88820  Biso   1.000  H
  H44      1.0000 0.73730  0.73320  0.88820  Biso   1.000  H
  H45      1.0000 0.23730  0.76680  0.38820  Biso   1.000  H
  H46      1.0000 0.73730  0.26680  0.38820  Biso   1.000  H
  H47      1.0000 0.76270  0.76680  0.11180  Biso   1.000  H
  H48      1.0000 0.26270  0.26680  0.11180  Biso   1.000  H
  C81      1.0000 0.80040  0.29753  0.75380  Biso   1.000  C
  C82      1.0000 0.30040  0.79753  0.75380  Biso   1.000  C
  C83      1.0000 0.19960  0.29753  0.74620  Biso   1.000  C
  C84      1.0000 0.69960  0.79753  0.74620  Biso   1.000  C
  C85      1.0000 0.19960  0.70247  0.24620  Biso   1.000  C
  C86      1.0000 0.69960  0.20247  0.24620  Biso   1.000  C
  C87      1.0000 0.80040  0.70247  0.25380  Biso   1.000  C
  C88      1.0000 0.30040  0.20247  0.25380  Biso   1.000  C
  H49      1.0000 0.75690  0.33340  0.71890  Biso   1.000  H
  H50      1.0000 0.25690  0.83340  0.71890  Biso   1.000  H
  H51      1.0000 0.24310  0.33340  0.78110  Biso   1.000  H
  H52      1.0000 0.74310  0.83340  0.78110  Biso   1.000  H
  H53      1.0000 0.24310  0.66660  0.28110  Biso   1.000  H
  H54      1.0000 0.74310  0.16660  0.28110  Biso   1.000  H
  H55      1.0000 0.75690  0.66660  0.21890  Biso   1.000  H
  H56      1.0000 0.25690  0.16660  0.21890  Biso   1.000  H
  C89      1.0000 0.86170  0.30233  0.86850  Biso   1.000  C
  C90      1.0000 0.36170  0.80233  0.86850  Biso   1.000  C
  C91      1.0000 0.13830  0.30233  0.63150  Biso   1.000  C
  C92      1.0000 0.63830  0.80233  0.63150  Biso   1.000  C
  C93      1.0000 0.13830  0.69767  0.13150  Biso   1.000  C
  C94      1.0000 0.63830  0.19767  0.13150  Biso   1.000  C
  C95      1.0000 0.86170  0.69767  0.36850  Biso   1.000  C
  C96      1.0000 0.36170  0.19767  0.36850  Biso   1.000  C
  H57      1.0000 0.85970  0.34300  0.91080  Biso   1.000  H
  H58      1.0000 0.35970  0.84300  0.91080  Biso   1.000  H
  H59      1.0000 0.14030  0.34300  0.58920  Biso   1.000  H
  H60      1.0000 0.64030  0.84300  0.58920  Biso   1.000  H
  H61      1.0000 0.14030  0.65700  0.08920  Biso   1.000  H
  H62      1.0000 0.64030  0.15700  0.08920  Biso   1.000  H
  H63      1.0000 0.85970  0.65700  0.41080  Biso   1.000  H
  H64      1.0000 0.35970  0.15700  0.41080  Biso   1.000  H
  C97      1.0000 0.03275  0.38518  0.19480  Biso   1.000  C
  C98      1.0000 0.53275  0.88518  0.19480  Biso   1.000  C
  C99      1.0000 0.96725  0.38518  0.30520  Biso   1.000  C
  C100     1.0000 0.46725  0.88518  0.30520  Biso   1.000  C
  C101     1.0000 0.96725  0.61482  0.80520  Biso   1.000  C
  C102     1.0000 0.46725  0.11482  0.80520  Biso   1.000  C
  C103     1.0000 0.03275  0.61482  0.69480  Biso   1.000  C
  C104     1.0000 0.53275  0.11482  0.69480  Biso   1.000  C
  C105     1.0000 0.07689  0.40566  0.11960  Biso   1.000  C
  C106     1.0000 0.57689  0.90566  0.11960  Biso   1.000  C
  C107     1.0000 0.92311  0.40566  0.38040  Biso   1.000  C
  C108     1.0000 0.42311  0.90566  0.38040  Biso   1.000  C
  C109     1.0000 0.92311  0.59434  0.88040  Biso   1.000  C
  C110     1.0000 0.42311  0.09434  0.88040  Biso   1.000  C
  C111     1.0000 0.07689  0.59434  0.61960  Biso   1.000  C
  C112     1.0000 0.57689  0.09434  0.61960  Biso   1.000  C
  C113     1.0000 0.10340  0.47552  0.11010  Biso   1.000  C
  C114     1.0000 0.60340  0.97552  0.11010  Biso   1.000  C
  C115     1.0000 0.89660  0.47552  0.38990  Biso   1.000  C
  C116     1.0000 0.39660  0.97552  0.38990  Biso   1.000  C
  C117     1.0000 0.89660  0.52448  0.88990  Biso   1.000  C
  C118     1.0000 0.39660  0.02448  0.88990  Biso   1.000  C
  C119     1.0000 0.10340  0.52448  0.61010  Biso   1.000  C
  C120     1.0000 0.60340  0.02448  0.61010  Biso   1.000  C
  H65      1.0000 0.09480  0.51270  0.15410  Biso   1.000  H
  H66      1.0000 0.59480  0.01270  0.15410  Biso   1.000  H
  H67      1.0000 0.90520  0.51270  0.34590  Biso   1.000  H
  H68      1.0000 0.40520  0.01270  0.34590  Biso   1.000  H
  H69      1.0000 0.90520  0.48730  0.84590  Biso   1.000  H
  H70      1.0000 0.40520  0.98730  0.84590  Biso   1.000  H
  H71      1.0000 0.09480  0.48730  0.65410  Biso   1.000  H
  H72      1.0000 0.59480  0.98730  0.65410  Biso   1.000  H
  C121     1.0000 0.14260  0.48883  0.03420  Biso   1.000  C
  C122     1.0000 0.64260  0.98883  0.03420  Biso   1.000  C
  C123     1.0000 0.85740  0.48883  0.46580  Biso   1.000  C
  C124     1.0000 0.35740  0.98883  0.46580  Biso   1.000  C
  C125     1.0000 0.85740  0.51117  0.96580  Biso   1.000  C
  C126     1.0000 0.35740  0.01117  0.96580  Biso   1.000  C
  C127     1.0000 0.14260  0.51117  0.53420  Biso   1.000  C
  C128     1.0000 0.64260  0.01117  0.53420  Biso   1.000  C
  H73      1.0000 0.16260  0.53510  0.02820  Biso   1.000  H
  H74      1.0000 0.66260  0.03510  0.02820  Biso   1.000  H
  H75      1.0000 0.83740  0.53510  0.47180  Biso   1.000  H
  H76      1.0000 0.33740  0.03510  0.47180  Biso   1.000  H
  H77      1.0000 0.83740  0.46490  0.97180  Biso   1.000  H
  H78      1.0000 0.33740  0.96490  0.97180  Biso   1.000  H
  H79      1.0000 0.16260  0.46490  0.52820  Biso   1.000  H
  H80      1.0000 0.66260  0.96490  0.52820  Biso   1.000  H
  C129     1.0000 0.15210  0.43408  0.96800  Biso   1.000  C
  C130     1.0000 0.65210  0.93408  0.96800  Biso   1.000  C
  C131     1.0000 0.84790  0.43408  0.53200  Biso   1.000  C
  C132     1.0000 0.34790  0.93408  0.53200  Biso   1.000  C
  C133     1.0000 0.84790  0.56592  0.03200  Biso   1.000  C
  C134     1.0000 0.34790  0.06592  0.03200  Biso   1.000  C
  C135     1.0000 0.15210  0.56592  0.46800  Biso   1.000  C
  C136     1.0000 0.65210  0.06592  0.46800  Biso   1.000  C
  H81      1.0000 0.17650  0.44250  0.91430  Biso   1.000  H
  H82      1.0000 0.67650  0.94250  0.91430  Biso   1.000  H
  H83      1.0000 0.82350  0.44250  0.58570  Biso   1.000  H
  H84      1.0000 0.32350  0.94250  0.58570  Biso   1.000  H
  H85      1.0000 0.82350  0.55750  0.08570  Biso   1.000  H
  H86      1.0000 0.32350  0.05750  0.08570  Biso   1.000  H
  H87      1.0000 0.17650  0.55750  0.41430  Biso   1.000  H
  H88      1.0000 0.67650  0.05750  0.41430  Biso   1.000  H
  C137     1.0000 0.12480  0.36622  0.98250  Biso   1.000  C
  C138     1.0000 0.62480  0.86622  0.98250  Biso   1.000  C
  C139     1.0000 0.87520  0.36622  0.51750  Biso   1.000  C
  C140     1.0000 0.37520  0.86622  0.51750  Biso   1.000  C
  C141     1.0000 0.87520  0.63378  0.01750  Biso   1.000  C
  C142     1.0000 0.37520  0.13378  0.01750  Biso   1.000  C
  C143     1.0000 0.12480  0.63378  0.48250  Biso   1.000  C
  C144     1.0000 0.62480  0.13378  0.48250  Biso   1.000  C
  H89      1.0000 0.13150  0.32880  0.93740  Biso   1.000  H
  H90      1.0000 0.63150  0.82880  0.93740  Biso   1.000  H
  H91      1.0000 0.86850  0.32880  0.56260  Biso   1.000  H
  H92      1.0000 0.36850  0.82880  0.56260  Biso   1.000  H
  H93      1.0000 0.86850  0.67120  0.06260  Biso   1.000  H
  H94      1.0000 0.36850  0.17120  0.06260  Biso   1.000  H
  H95      1.0000 0.13150  0.67120  0.43740  Biso   1.000  H
  H96      1.0000 0.63150  0.17120  0.43740  Biso   1.000  H
