data_image0
_cell_length_a       11.532
_cell_length_b       11.532
_cell_length_c       18.29
_cell_angle_alpha    90
_cell_angle_beta     90
_cell_angle_gamma    90

_symmetry_space_group_name_H-M    "P 1"
_symmetry_int_tables_number       1

loop_
  _symmetry_equiv_pos_as_xyz
  'x, y, z'

loop_
  _atom_site_label
  _atom_site_occupancy
  _atom_site_fract_x
  _atom_site_fract_y
  _atom_site_fract_z
  _atom_site_thermal_displace_type
  _atom_site_B_iso_or_equiv
  _atom_site_type_symbol
  Cu1      1.0000 0.59866  0.21505  0.03996  Biso   1.000  Cu
  Cu2      1.0000 0.40134  0.78495  0.53996  Biso   1.000  Cu
  Cu3      1.0000 0.28495  0.09866  0.78996  Biso   1.000  Cu
  Cu4      1.0000 0.71505  0.90134  0.28996  Biso   1.000  Cu
  Cu5      1.0000 0.90134  0.71505  0.71004  Biso   1.000  Cu
  Cu6      1.0000 0.09866  0.28495  0.21004  Biso   1.000  Cu
  Cu7      1.0000 0.21505  0.59866  0.96004  Biso   1.000  Cu
  Cu8      1.0000 0.78495  0.40134  0.46004  Biso   1.000  Cu
  N1       1.0000 0.67826  0.08112  0.09061  Biso   1.000  N
  N2       1.0000 0.32174  0.91888  0.59061  Biso   1.000  N
  N3       1.0000 0.41888  0.17826  0.84061  Biso   1.000  N
  N4       1.0000 0.58112  0.82174  0.34061  Biso   1.000  N
  N5       1.0000 0.82174  0.58112  0.65939  Biso   1.000  N
  N6       1.0000 0.17826  0.41888  0.15939  Biso   1.000  N
  N7       1.0000 0.08112  0.67826  0.90939  Biso   1.000  N
  N8       1.0000 0.91888  0.32174  0.40939  Biso   1.000  N
  N9       1.0000 0.74730  0.98720  0.07708  Biso   1.000  N
  N10      1.0000 0.25270  0.01280  0.57708  Biso   1.000  N
  N11      1.0000 0.51280  0.24730  0.82708  Biso   1.000  N
  N12      1.0000 0.48720  0.75270  0.32708  Biso   1.000  N
  N13      1.0000 0.75270  0.48720  0.67292  Biso   1.000  N
  N14      1.0000 0.24730  0.51280  0.17292  Biso   1.000  N
  N15      1.0000 0.98720  0.74730  0.92292  Biso   1.000  N
  N16      1.0000 0.01280  0.25270  0.42292  Biso   1.000  N
  N17      1.0000 0.71150  0.99532  0.19813  Biso   1.000  N
  N18      1.0000 0.28850  0.00468  0.69813  Biso   1.000  N
  N19      1.0000 0.50468  0.21150  0.94813  Biso   1.000  N
  N20      1.0000 0.49532  0.78850  0.44813  Biso   1.000  N
  N21      1.0000 0.78850  0.49532  0.55187  Biso   1.000  N
  N22      1.0000 0.21150  0.50468  0.05187  Biso   1.000  N
  N23      1.0000 0.99532  0.71150  0.80187  Biso   1.000  N
  N24      1.0000 0.00468  0.28850  0.30187  Biso   1.000  N
  N25      1.0000 0.53780  0.24640  0.14557  Biso   1.000  N
  N26      1.0000 0.46220  0.75360  0.64557  Biso   1.000  N
  N27      1.0000 0.25360  0.03780  0.89557  Biso   1.000  N
  N28      1.0000 0.74640  0.96220  0.39557  Biso   1.000  N
  N29      1.0000 0.96220  0.74640  0.60443  Biso   1.000  N
  N30      1.0000 0.03780  0.25360  0.10443  Biso   1.000  N
  N31      1.0000 0.24640  0.53780  0.85443  Biso   1.000  N
  N32      1.0000 0.75360  0.46220  0.35443  Biso   1.000  N
  N33      1.0000 0.84020  0.80760  0.22920  Biso   1.000  N
  N34      1.0000 0.15980  0.19240  0.72920  Biso   1.000  N
  N35      1.0000 0.69240  0.34020  0.97920  Biso   1.000  N
  N36      1.0000 0.30760  0.65980  0.47920  Biso   1.000  N
  N37      1.0000 0.65980  0.30760  0.52080  Biso   1.000  N
  N38      1.0000 0.34020  0.69240  0.02080  Biso   1.000  N
  N39      1.0000 0.80760  0.84020  0.77080  Biso   1.000  N
  N40      1.0000 0.19240  0.15980  0.27080  Biso   1.000  N
  C1       1.0000 0.65860  0.08310  0.16297  Biso   1.000  C
  C2       1.0000 0.34140  0.91690  0.66297  Biso   1.000  C
  C3       1.0000 0.41690  0.15860  0.91297  Biso   1.000  C
  C4       1.0000 0.58310  0.84140  0.41297  Biso   1.000  C
  C5       1.0000 0.84140  0.58310  0.58703  Biso   1.000  C
  C6       1.0000 0.15860  0.41690  0.08703  Biso   1.000  C
  C7       1.0000 0.08310  0.65860  0.83703  Biso   1.000  C
  C8       1.0000 0.91690  0.34140  0.33703  Biso   1.000  C
  C9       1.0000 0.76580  0.93970  0.14266  Biso   1.000  C
  C10      1.0000 0.23420  0.06030  0.64266  Biso   1.000  C
  C11      1.0000 0.56030  0.26580  0.89266  Biso   1.000  C
  C12      1.0000 0.43970  0.73420  0.39266  Biso   1.000  C
  C13      1.0000 0.73420  0.43970  0.60734  Biso   1.000  C
  C14      1.0000 0.26580  0.56030  0.10734  Biso   1.000  C
  C15      1.0000 0.93970  0.76580  0.85734  Biso   1.000  C
  C16      1.0000 0.06030  0.23420  0.35734  Biso   1.000  C
  C17      1.0000 0.58730  0.17420  0.19481  Biso   1.000  C
  C18      1.0000 0.41270  0.82580  0.69481  Biso   1.000  C
  C19      1.0000 0.32580  0.08730  0.94481  Biso   1.000  C
  C20      1.0000 0.67420  0.91270  0.44481  Biso   1.000  C
  C21      1.0000 0.91270  0.67420  0.55519  Biso   1.000  C
  C22      1.0000 0.08730  0.32580  0.05519  Biso   1.000  C
  C23      1.0000 0.17420  0.58730  0.80519  Biso   1.000  C
  C24      1.0000 0.82580  0.41270  0.30519  Biso   1.000  C
  C25      1.0000 0.56990  0.18750  0.26947  Biso   1.000  C
  C26      1.0000 0.43010  0.81250  0.76947  Biso   1.000  C
  C27      1.0000 0.31250  0.06990  0.01947  Biso   1.000  C
  C28      1.0000 0.68750  0.93010  0.51947  Biso   1.000  C
  C29      1.0000 0.93010  0.68750  0.48053  Biso   1.000  C
  C30      1.0000 0.06990  0.31250  0.98053  Biso   1.000  C
  C31      1.0000 0.18750  0.56990  0.73053  Biso   1.000  C
  C32      1.0000 0.81250  0.43010  0.23053  Biso   1.000  C
  H1       1.0000 0.60600  0.13830  0.30270  Biso   1.000  H
  H2       1.0000 0.39400  0.86170  0.80270  Biso   1.000  H
  H3       1.0000 0.36170  0.10600  0.05270  Biso   1.000  H
  H4       1.0000 0.63830  0.89400  0.55270  Biso   1.000  H
  H5       1.0000 0.89400  0.63830  0.44730  Biso   1.000  H
  H6       1.0000 0.10600  0.36170  0.94730  Biso   1.000  H
  H7       1.0000 0.13830  0.60600  0.69730  Biso   1.000  H
  H8       1.0000 0.86170  0.39400  0.19730  Biso   1.000  H
  C33      1.0000 0.49840  0.27490  0.29309  Biso   1.000  C
  C34      1.0000 0.50160  0.72510  0.79309  Biso   1.000  C
  C35      1.0000 0.22510  0.99840  0.04309  Biso   1.000  C
  C36      1.0000 0.77490  0.00160  0.54309  Biso   1.000  C
  C37      1.0000 0.00160  0.77490  0.45691  Biso   1.000  C
  C38      1.0000 0.99840  0.22510  0.95691  Biso   1.000  C
  C39      1.0000 0.27490  0.49840  0.70691  Biso   1.000  C
  C40      1.0000 0.72510  0.50160  0.20691  Biso   1.000  C
  H9       1.0000 0.48630  0.28600  0.34290  Biso   1.000  H
  H10      1.0000 0.51370  0.71400  0.84290  Biso   1.000  H
  H11      1.0000 0.21400  0.98630  0.09290  Biso   1.000  H
  H12      1.0000 0.78600  0.01370  0.59290  Biso   1.000  H
  H13      1.0000 0.01370  0.78600  0.40710  Biso   1.000  H
  H14      1.0000 0.98630  0.21400  0.90710  Biso   1.000  H
  H15      1.0000 0.28600  0.48630  0.65710  Biso   1.000  H
  H16      1.0000 0.71400  0.51370  0.15710  Biso   1.000  H
  C41      1.0000 0.44500  0.34550  0.24370  Biso   1.000  C
  C42      1.0000 0.55500  0.65450  0.74370  Biso   1.000  C
  C43      1.0000 0.15450  0.94500  0.99370  Biso   1.000  C
  C44      1.0000 0.84550  0.05500  0.49370  Biso   1.000  C
  C45      1.0000 0.05500  0.84550  0.50630  Biso   1.000  C
  C46      1.0000 0.94500  0.15450  0.00630  Biso   1.000  C
  C47      1.0000 0.34550  0.44500  0.75630  Biso   1.000  C
  C48      1.0000 0.65450  0.55500  0.25630  Biso   1.000  C
  H17      1.0000 0.39480  0.40380  0.25890  Biso   1.000  H
  H18      1.0000 0.60520  0.59620  0.75890  Biso   1.000  H
  H19      1.0000 0.09620  0.89480  0.00890  Biso   1.000  H
  H20      1.0000 0.90380  0.10520  0.50890  Biso   1.000  H
  H21      1.0000 0.10520  0.90380  0.49110  Biso   1.000  H
  H22      1.0000 0.89480  0.09620  0.99110  Biso   1.000  H
  H23      1.0000 0.40380  0.39480  0.74110  Biso   1.000  H
  H24      1.0000 0.59620  0.60520  0.24110  Biso   1.000  H
  C49      1.0000 0.46760  0.32800  0.17049  Biso   1.000  C
  C50      1.0000 0.53240  0.67200  0.67049  Biso   1.000  C
  C51      1.0000 0.17200  0.96760  0.92049  Biso   1.000  C
  C52      1.0000 0.82800  0.03240  0.42049  Biso   1.000  C
  C53      1.0000 0.03240  0.82800  0.57951  Biso   1.000  C
  C54      1.0000 0.96760  0.17200  0.07951  Biso   1.000  C
  C55      1.0000 0.32800  0.46760  0.82951  Biso   1.000  C
  C56      1.0000 0.67200  0.53240  0.32951  Biso   1.000  C
  H25      1.0000 0.43140  0.37630  0.13680  Biso   1.000  H
  H26      1.0000 0.56860  0.62370  0.63680  Biso   1.000  H
  H27      1.0000 0.12370  0.93140  0.88680  Biso   1.000  H
  H28      1.0000 0.87630  0.06860  0.38680  Biso   1.000  H
  H29      1.0000 0.06860  0.87630  0.61320  Biso   1.000  H
  H30      1.0000 0.93140  0.12370  0.11320  Biso   1.000  H
  H31      1.0000 0.37630  0.43140  0.86320  Biso   1.000  H
  H32      1.0000 0.62370  0.56860  0.36320  Biso   1.000  H
  C57      1.0000 0.84040  0.84040  0.15826  Biso   1.000  C
  C58      1.0000 0.15960  0.15960  0.65826  Biso   1.000  C
  C59      1.0000 0.65960  0.34040  0.90826  Biso   1.000  C
  C60      1.0000 0.34040  0.65960  0.40826  Biso   1.000  C
  C61      1.0000 0.65960  0.34040  0.59174  Biso   1.000  C
  C62      1.0000 0.34040  0.65960  0.09174  Biso   1.000  C
  C63      1.0000 0.84040  0.84040  0.84174  Biso   1.000  C
  C64      1.0000 0.15960  0.15960  0.34174  Biso   1.000  C
  C65      1.0000 0.90820  0.78630  0.10565  Biso   1.000  C
  C66      1.0000 0.09180  0.21370  0.60565  Biso   1.000  C
  C67      1.0000 0.71370  0.40820  0.85565  Biso   1.000  C
  C68      1.0000 0.28630  0.59180  0.35565  Biso   1.000  C
  C69      1.0000 0.59180  0.28630  0.64435  Biso   1.000  C
  C70      1.0000 0.40820  0.71370  0.14435  Biso   1.000  C
  C71      1.0000 0.78630  0.90820  0.89435  Biso   1.000  C
  C72      1.0000 0.21370  0.09180  0.39435  Biso   1.000  C
  H33      1.0000 0.90410  0.80840  0.05680  Biso   1.000  H
  H34      1.0000 0.09590  0.19160  0.55680  Biso   1.000  H
  H35      1.0000 0.69160  0.40410  0.80680  Biso   1.000  H
  H36      1.0000 0.30840  0.59590  0.30680  Biso   1.000  H
  H37      1.0000 0.59590  0.30840  0.69320  Biso   1.000  H
  H38      1.0000 0.40410  0.69160  0.19320  Biso   1.000  H
  H39      1.0000 0.80840  0.90410  0.94320  Biso   1.000  H
  H40      1.0000 0.19160  0.09590  0.44320  Biso   1.000  H
  C73      1.0000 0.98200  0.69870  0.12770  Biso   1.000  C
  C74      1.0000 0.01800  0.30130  0.62770  Biso   1.000  C
  C75      1.0000 0.80130  0.48200  0.87770  Biso   1.000  C
  C76      1.0000 0.19870  0.51800  0.37770  Biso   1.000  C
  C77      1.0000 0.51800  0.19870  0.62230  Biso   1.000  C
  C78      1.0000 0.48200  0.80130  0.12230  Biso   1.000  C
  C79      1.0000 0.69870  0.98200  0.87230  Biso   1.000  C
  C80      1.0000 0.30130  0.01800  0.37230  Biso   1.000  C
  H41      1.0000 0.02870  0.66110  0.09360  Biso   1.000  H
  H42      1.0000 0.97130  0.33890  0.59360  Biso   1.000  H
  H43      1.0000 0.83890  0.52870  0.84360  Biso   1.000  H
  H44      1.0000 0.16110  0.47130  0.34360  Biso   1.000  H
  H45      1.0000 0.47130  0.16110  0.65640  Biso   1.000  H
  H46      1.0000 0.52870  0.83890  0.15640  Biso   1.000  H
  H47      1.0000 0.66110  0.02870  0.90640  Biso   1.000  H
  H48      1.0000 0.33890  0.97130  0.40640  Biso   1.000  H
  C81      1.0000 0.98600  0.66710  0.20000  Biso   1.000  C
  C82      1.0000 0.01400  0.33290  0.70000  Biso   1.000  C
  C83      1.0000 0.83290  0.48600  0.95000  Biso   1.000  C
  C84      1.0000 0.16710  0.51400  0.45000  Biso   1.000  C
  C85      1.0000 0.51400  0.16710  0.55000  Biso   1.000  C
  C86      1.0000 0.48600  0.83290  0.05000  Biso   1.000  C
  C87      1.0000 0.66710  0.98600  0.80000  Biso   1.000  C
  C88      1.0000 0.33290  0.01400  0.30000  Biso   1.000  C
  H49      1.0000 0.03710  0.61020  0.21620  Biso   1.000  H
  H50      1.0000 0.96290  0.38980  0.71620  Biso   1.000  H
  H51      1.0000 0.88980  0.53710  0.96620  Biso   1.000  H
  H52      1.0000 0.11020  0.46290  0.46620  Biso   1.000  H
  H53      1.0000 0.46290  0.11020  0.53380  Biso   1.000  H
  H54      1.0000 0.53710  0.88980  0.03380  Biso   1.000  H
  H55      1.0000 0.61020  0.03710  0.78380  Biso   1.000  H
  H56      1.0000 0.38980  0.96290  0.28380  Biso   1.000  H
  C89      1.0000 0.91200  0.72230  0.24810  Biso   1.000  C
  C90      1.0000 0.08800  0.27770  0.74810  Biso   1.000  C
  C91      1.0000 0.77770  0.41200  0.99810  Biso   1.000  C
  C92      1.0000 0.22230  0.58800  0.49810  Biso   1.000  C
  C93      1.0000 0.58800  0.22230  0.50190  Biso   1.000  C
  C94      1.0000 0.41200  0.77770  0.00190  Biso   1.000  C
  C95      1.0000 0.72230  0.91200  0.75190  Biso   1.000  C
  C96      1.0000 0.27770  0.08800  0.25190  Biso   1.000  C
  H57      1.0000 0.91240  0.69840  0.29670  Biso   1.000  H
  H58      1.0000 0.08760  0.30160  0.79670  Biso   1.000  H
  H59      1.0000 0.80160  0.41240  0.04670  Biso   1.000  H
  H60      1.0000 0.19840  0.58760  0.54670  Biso   1.000  H
  H61      1.0000 0.58760  0.19840  0.45330  Biso   1.000  H
  H62      1.0000 0.41240  0.80160  0.95330  Biso   1.000  H
  H63      1.0000 0.69840  0.91240  0.70330  Biso   1.000  H
  H64      1.0000 0.30160  0.08760  0.20330  Biso   1.000  H
