data_image0
_cell_length_a       19.065
_cell_length_b       3.7262
_cell_length_c       10.572
_cell_angle_alpha    90
_cell_angle_beta     90
_cell_angle_gamma    90

_symmetry_space_group_name_H-M    "P 1"
_symmetry_int_tables_number       1

loop_
  _symmetry_equiv_pos_as_xyz
  'x, y, z'

loop_
  _atom_site_label
  _atom_site_occupancy
  _atom_site_fract_x
  _atom_site_fract_y
  _atom_site_fract_z
  _atom_site_thermal_displace_type
  _atom_site_B_iso_or_equiv
  _atom_site_type_symbol
  Cu1      1.0000 0.49755  0.04260  0.14877  Biso   1.000  Cu
  Cu2      1.0000 0.00245  0.95740  0.64877  Biso   1.000  Cu
  Cu3      1.0000 0.50245  0.54260  0.35123  Biso   1.000  Cu
  Cu4      1.0000 0.99755  0.45740  0.85123  Biso   1.000  Cu
  Cu5      1.0000 0.45395  0.84670  0.82416  Biso   1.000  Cu
  Cu6      1.0000 0.04605  0.15330  0.32416  Biso   1.000  Cu
  Cu7      1.0000 0.54605  0.34670  0.67584  Biso   1.000  Cu
  Cu8      1.0000 0.95395  0.65330  0.17584  Biso   1.000  Cu
  Cl1      1.0000 0.50720  0.33420  0.91401  Biso   1.000  Cl
  Cl2      1.0000 0.99280  0.66580  0.41401  Biso   1.000  Cl
  Cl3      1.0000 0.49280  0.83420  0.58599  Biso   1.000  Cl
  Cl4      1.0000 0.00720  0.16580  0.08599  Biso   1.000  Cl
  C1       1.0000 0.26060  0.38740  0.38240  Biso   1.000  C
  C2       1.0000 0.23940  0.61260  0.88240  Biso   1.000  C
  C3       1.0000 0.73940  0.88740  0.11760  Biso   1.000  C
  C4       1.0000 0.76060  0.11260  0.61760  Biso   1.000  C
  H1       1.0000 0.28640  0.49170  0.44740  Biso   1.000  H
  H2       1.0000 0.21360  0.50830  0.94740  Biso   1.000  H
  H3       1.0000 0.71360  0.99170  0.05260  Biso   1.000  H
  H4       1.0000 0.78640  0.00830  0.55260  Biso   1.000  H
  N1       1.0000 0.14870  0.21710  0.29940  Biso   1.000  N
  N2       1.0000 0.35130  0.78290  0.79940  Biso   1.000  N
  N3       1.0000 0.85130  0.71710  0.20060  Biso   1.000  N
  N4       1.0000 0.64870  0.28290  0.70060  Biso   1.000  N
  C5       1.0000 0.18820  0.36140  0.39080  Biso   1.000  C
  C6       1.0000 0.31180  0.63860  0.89080  Biso   1.000  C
  C7       1.0000 0.81180  0.86140  0.10920  Biso   1.000  C
  C8       1.0000 0.68820  0.13860  0.60920  Biso   1.000  C
  H5       1.0000 0.16620  0.44810  0.46310  Biso   1.000  H
  H6       1.0000 0.33380  0.55190  0.96310  Biso   1.000  H
  H7       1.0000 0.83380  0.94810  0.03690  Biso   1.000  H
  H8       1.0000 0.66620  0.05190  0.53690  Biso   1.000  H
  C9       1.0000 0.18190  0.09200  0.19480  Biso   1.000  C
  C10      1.0000 0.31810  0.90800  0.69480  Biso   1.000  C
  C11      1.0000 0.81810  0.59200  0.30520  Biso   1.000  C
  C12      1.0000 0.68190  0.40800  0.80520  Biso   1.000  C
  H9       1.0000 0.15540  0.98810  0.13070  Biso   1.000  H
  H10      1.0000 0.34460  0.01190  0.63070  Biso   1.000  H
  H11      1.0000 0.84460  0.48810  0.36930  Biso   1.000  H
  H12      1.0000 0.65540  0.51190  0.86930  Biso   1.000  H
  C13      1.0000 0.25370  0.11380  0.18050  Biso   1.000  C
  C14      1.0000 0.24630  0.88620  0.68050  Biso   1.000  C
  C15      1.0000 0.74630  0.61380  0.31950  Biso   1.000  C
  C16      1.0000 0.75370  0.38620  0.81950  Biso   1.000  C
  H13      1.0000 0.27480  0.03270  0.10640  Biso   1.000  H
  H14      1.0000 0.22520  0.96730  0.60640  Biso   1.000  H
  H15      1.0000 0.72520  0.53270  0.39360  Biso   1.000  H
  H16      1.0000 0.77480  0.46730  0.89360  Biso   1.000  H
  C17      1.0000 0.29390  0.25520  0.27550  Biso   1.000  C
  C18      1.0000 0.20610  0.74480  0.77550  Biso   1.000  C
  C19      1.0000 0.70610  0.75520  0.22450  Biso   1.000  C
  C20      1.0000 0.79390  0.24480  0.72450  Biso   1.000  C
  C21      1.0000 0.37370  0.27090  0.26390  Biso   1.000  C
  C22      1.0000 0.12630  0.72910  0.76390  Biso   1.000  C
  C23      1.0000 0.62630  0.77090  0.23610  Biso   1.000  C
  C24      1.0000 0.87370  0.22910  0.73610  Biso   1.000  C
  O1       1.0000 0.39970  0.12240  0.16860  Biso   1.000  O
  O2       1.0000 0.10030  0.87760  0.66860  Biso   1.000  O
  O3       1.0000 0.60030  0.62240  0.33140  Biso   1.000  O
  O4       1.0000 0.89970  0.37760  0.83140  Biso   1.000  O
  O5       1.0000 0.40530  0.42550  0.35060  Biso   1.000  O
  O6       1.0000 0.09470  0.57450  0.85060  Biso   1.000  O
  O7       1.0000 0.59470  0.92550  0.14940  Biso   1.000  O
  O8       1.0000 0.90530  0.07450  0.64940  Biso   1.000  O
