data_image0
_cell_length_a       10.14
_cell_length_b       12.214
_cell_length_c       15.157
_cell_angle_alpha    90
_cell_angle_beta     99.99
_cell_angle_gamma    90

_symmetry_space_group_name_H-M    "P 1"
_symmetry_int_tables_number       1

loop_
  _symmetry_equiv_pos_as_xyz
  'x, y, z'

loop_
  _atom_site_label
  _atom_site_occupancy
  _atom_site_fract_x
  _atom_site_fract_y
  _atom_site_fract_z
  _atom_site_thermal_displace_type
  _atom_site_B_iso_or_equiv
  _atom_site_type_symbol
  I1       1.0000 0.70084  0.17232  0.17469  Biso   1.000  I
  I2       1.0000 0.29916  0.67232  0.32531  Biso   1.000  I
  I3       1.0000 0.29916  0.82768  0.82531  Biso   1.000  I
  I4       1.0000 0.70084  0.32768  0.67469  Biso   1.000  I
  I5       1.0000 0.39506  0.90936  0.09935  Biso   1.000  I
  I6       1.0000 0.60494  0.40936  0.40065  Biso   1.000  I
  I7       1.0000 0.60494  0.09064  0.90065  Biso   1.000  I
  I8       1.0000 0.39506  0.59064  0.59935  Biso   1.000  I
  Cu1      1.0000 0.47360  0.08580  0.19442  Biso   1.000  Cu
  Cu2      1.0000 0.52640  0.58580  0.30558  Biso   1.000  Cu
  Cu3      1.0000 0.52640  0.91420  0.80558  Biso   1.000  Cu
  Cu4      1.0000 0.47360  0.41420  0.69442  Biso   1.000  Cu
  Cu5      1.0000 0.61460  0.00960  0.06770  Biso   1.000  Cu
  Cu6      1.0000 0.38540  0.50960  0.43230  Biso   1.000  Cu
  Cu7      1.0000 0.38540  0.99040  0.93230  Biso   1.000  Cu
  Cu8      1.0000 0.61460  0.49040  0.56770  Biso   1.000  Cu
  N1       1.0000 0.31810  0.19520  0.17810  Biso   1.000  N
  N2       1.0000 0.68190  0.69520  0.32190  Biso   1.000  N
  N3       1.0000 0.68190  0.80480  0.82190  Biso   1.000  N
  N4       1.0000 0.31810  0.30480  0.67810  Biso   1.000  N
  C1       1.0000 0.33830  0.30140  0.19010  Biso   1.000  C
  C2       1.0000 0.66170  0.80140  0.30990  Biso   1.000  C
  C3       1.0000 0.66170  0.69860  0.80990  Biso   1.000  C
  C4       1.0000 0.33830  0.19860  0.69010  Biso   1.000  C
  C5       1.0000 0.23810  0.37650  0.19320  Biso   1.000  C
  C6       1.0000 0.76190  0.87650  0.30680  Biso   1.000  C
  C7       1.0000 0.76190  0.62350  0.80680  Biso   1.000  C
  C8       1.0000 0.23810  0.12350  0.69320  Biso   1.000  C
  C9       1.0000 0.10950  0.33880  0.18680  Biso   1.000  C
  C10      1.0000 0.89050  0.83880  0.31320  Biso   1.000  C
  C11      1.0000 0.89050  0.66120  0.81320  Biso   1.000  C
  C12      1.0000 0.10950  0.16120  0.68680  Biso   1.000  C
  C13      1.0000 0.08520  0.22920  0.17600  Biso   1.000  C
  C14      1.0000 0.91480  0.72920  0.32400  Biso   1.000  C
  C15      1.0000 0.91480  0.77080  0.82400  Biso   1.000  C
  C16      1.0000 0.08520  0.27080  0.67600  Biso   1.000  C
  C17      1.0000 0.19190  0.16080  0.17150  Biso   1.000  C
  C18      1.0000 0.80810  0.66080  0.32850  Biso   1.000  C
  C19      1.0000 0.80810  0.83920  0.82850  Biso   1.000  C
  C20      1.0000 0.19190  0.33920  0.67150  Biso   1.000  C
  C21      1.0000 0.00010  0.41620  0.19210  Biso   1.000  C
  C22      1.0000 0.99990  0.91620  0.30790  Biso   1.000  C
  C23      1.0000 0.99990  0.58380  0.80790  Biso   1.000  C
  C24      1.0000 0.00010  0.08380  0.69210  Biso   1.000  C
  N5       1.0000 0.91450  0.47370  0.19640  Biso   1.000  N
  N6       1.0000 0.08550  0.97370  0.30360  Biso   1.000  N
  N7       1.0000 0.08550  0.52630  0.80360  Biso   1.000  N
  N8       1.0000 0.91450  0.02630  0.69640  Biso   1.000  N
  N9       1.0000 0.75910  0.88870  0.07230  Biso   1.000  N
  N10      1.0000 0.24090  0.38870  0.42770  Biso   1.000  N
  N11      1.0000 0.24090  0.11130  0.92770  Biso   1.000  N
  N12      1.0000 0.75910  0.61130  0.57230  Biso   1.000  N
  C25      1.0000 0.72870  0.78300  0.05970  Biso   1.000  C
  C26      1.0000 0.27130  0.28300  0.44030  Biso   1.000  C
  C27      1.0000 0.27130  0.21700  0.94030  Biso   1.000  C
  C28      1.0000 0.72870  0.71700  0.55970  Biso   1.000  C
  C29      1.0000 0.82170  0.70180  0.05480  Biso   1.000  C
  C30      1.0000 0.17830  0.20180  0.44520  Biso   1.000  C
  C31      1.0000 0.17830  0.29820  0.94520  Biso   1.000  C
  C32      1.0000 0.82170  0.79820  0.55480  Biso   1.000  C
  C33      1.0000 0.95400  0.73170  0.06250  Biso   1.000  C
  C34      1.0000 0.04600  0.23170  0.43750  Biso   1.000  C
  C35      1.0000 0.04600  0.26830  0.93750  Biso   1.000  C
  C36      1.0000 0.95400  0.76830  0.56250  Biso   1.000  C
  C37      1.0000 0.99030  0.83900  0.07680  Biso   1.000  C
  C38      1.0000 0.00970  0.33900  0.42320  Biso   1.000  C
  C39      1.0000 0.00970  0.16100  0.92320  Biso   1.000  C
  C40      1.0000 0.99030  0.66100  0.57680  Biso   1.000  C
  C41      1.0000 0.88670  0.91470  0.08060  Biso   1.000  C
  C42      1.0000 0.11330  0.41470  0.41940  Biso   1.000  C
  C43      1.0000 0.11330  0.08530  0.91940  Biso   1.000  C
  C44      1.0000 0.88670  0.58530  0.58060  Biso   1.000  C
  C45      1.0000 0.05390  0.65000  0.05460  Biso   1.000  C
  C46      1.0000 0.94610  0.15000  0.44540  Biso   1.000  C
  C47      1.0000 0.94610  0.35000  0.94540  Biso   1.000  C
  C48      1.0000 0.05390  0.85000  0.55460  Biso   1.000  C
  N13      1.0000 0.13270  0.58690  0.04700  Biso   1.000  N
  N14      1.0000 0.86730  0.08690  0.45300  Biso   1.000  N
  N15      1.0000 0.86730  0.41310  0.95300  Biso   1.000  N
  N16      1.0000 0.13270  0.91310  0.54700  Biso   1.000  N
  N17      1.0000 0.48470  0.04600  0.32660  Biso   1.000  N
  N18      1.0000 0.51530  0.54600  0.17340  Biso   1.000  N
  N19      1.0000 0.51530  0.95400  0.67340  Biso   1.000  N
  N20      1.0000 0.48470  0.45400  0.82660  Biso   1.000  N
  C49      1.0000 0.56500  0.09600  0.39200  Biso   1.000  C
  C50      1.0000 0.43500  0.59600  0.10800  Biso   1.000  C
  C51      1.0000 0.43500  0.90400  0.60800  Biso   1.000  C
  C52      1.0000 0.56500  0.40400  0.89200  Biso   1.000  C
  C53      1.0000 0.40400  0.96900  0.35600  Biso   1.000  C
  C54      1.0000 0.59600  0.46900  0.14400  Biso   1.000  C
  C55      1.0000 0.59600  0.03100  0.64400  Biso   1.000  C
  C56      1.0000 0.40400  0.53100  0.85600  Biso   1.000  C
  H1       1.0000 0.43500  0.32200  0.18700  Biso   1.000  H
  H2       1.0000 0.56500  0.82200  0.31300  Biso   1.000  H
  H3       1.0000 0.56500  0.67800  0.81300  Biso   1.000  H
  H4       1.0000 0.43500  0.17800  0.68700  Biso   1.000  H
  H5       1.0000 0.26200  0.45500  0.21400  Biso   1.000  H
  H6       1.0000 0.73800  0.95500  0.28600  Biso   1.000  H
  H7       1.0000 0.73800  0.54500  0.78600  Biso   1.000  H
  H8       1.0000 0.26200  0.04500  0.71400  Biso   1.000  H
  H9       1.0000 0.00000  0.18200  0.16400  Biso   1.000  H
  H10      1.0000 0.00000  0.68200  0.33600  Biso   1.000  H
  H11      1.0000 0.00000  0.81800  0.83600  Biso   1.000  H
  H12      1.0000 0.00000  0.31800  0.66400  Biso   1.000  H
  H13      1.0000 0.20000  0.07900  0.17300  Biso   1.000  H
  H14      1.0000 0.80000  0.57900  0.32700  Biso   1.000  H
  H15      1.0000 0.80000  0.92100  0.82700  Biso   1.000  H
  H16      1.0000 0.20000  0.42100  0.67300  Biso   1.000  H
  H17      1.0000 0.63800  0.76100  0.06000  Biso   1.000  H
  H18      1.0000 0.36200  0.26100  0.44000  Biso   1.000  H
  H19      1.0000 0.36200  0.23900  0.94000  Biso   1.000  H
  H20      1.0000 0.63800  0.73900  0.56000  Biso   1.000  H
  H21      1.0000 0.79400  0.62400  0.04600  Biso   1.000  H
  H22      1.0000 0.20600  0.12400  0.45400  Biso   1.000  H
  H23      1.0000 0.20600  0.37600  0.95400  Biso   1.000  H
  H24      1.0000 0.79400  0.87600  0.54600  Biso   1.000  H
  H25      1.0000 0.09500  0.88600  0.10400  Biso   1.000  H
  H26      1.0000 0.90500  0.38600  0.39600  Biso   1.000  H
  H27      1.0000 0.90500  0.11400  0.89600  Biso   1.000  H
  H28      1.0000 0.09500  0.61400  0.60400  Biso   1.000  H
  H29      1.0000 0.90000  0.01200  0.08100  Biso   1.000  H
  H30      1.0000 0.10000  0.51200  0.41900  Biso   1.000  H
  H31      1.0000 0.10000  0.98800  0.91900  Biso   1.000  H
  H32      1.0000 0.90000  0.48800  0.58100  Biso   1.000  H
  H33      1.0000 0.62700  0.15100  0.37400  Biso   1.000  H
  H34      1.0000 0.37300  0.65100  0.12600  Biso   1.000  H
  H35      1.0000 0.37300  0.84900  0.62600  Biso   1.000  H
  H36      1.0000 0.62700  0.34900  0.87400  Biso   1.000  H
  H37      1.0000 0.34100  0.93100  0.31100  Biso   1.000  H
  H38      1.0000 0.65900  0.43100  0.18900  Biso   1.000  H
  H39      1.0000 0.65900  0.06900  0.68900  Biso   1.000  H
  H40      1.0000 0.34100  0.56900  0.81100  Biso   1.000  H
  C57      1.0000 0.57400  0.07700  0.48300  Biso   1.000  C
  C58      1.0000 0.42600  0.57700  0.01700  Biso   1.000  C
  C59      1.0000 0.42600  0.92300  0.51700  Biso   1.000  C
  C60      1.0000 0.57400  0.42300  0.98300  Biso   1.000  C
  C61      1.0000 0.50000  0.00000  0.50000  Biso   1.000  C
  C62      1.0000 0.50000  0.50000  0.00000  Biso   1.000  C
  C63      1.0000 0.40600  0.93900  0.44400  Biso   1.000  C
  C64      1.0000 0.59400  0.43900  0.05600  Biso   1.000  C
  C65      1.0000 0.59400  0.06100  0.55600  Biso   1.000  C
  C66      1.0000 0.40600  0.56100  0.94400  Biso   1.000  C
  C67      1.0000 0.50300  0.97100  0.60300  Biso   1.000  C
  C68      1.0000 0.49700  0.47100  0.89700  Biso   1.000  C
  C69      1.0000 0.49700  0.02900  0.39700  Biso   1.000  C
  C70      1.0000 0.50300  0.52900  0.10300  Biso   1.000  C
  H41      1.0000 0.65900  0.11900  0.52900  Biso   1.000  H
  H42      1.0000 0.34100  0.61900  0.97100  Biso   1.000  H
  H43      1.0000 0.34100  0.88100  0.47100  Biso   1.000  H
  H44      1.0000 0.65900  0.38100  0.02900  Biso   1.000  H
