data_image0
_cell_length_a       3.901
_cell_length_b       14.766
_cell_length_c       13.041
_cell_angle_alpha    90
_cell_angle_beta     96.77
_cell_angle_gamma    90

_symmetry_space_group_name_H-M    "P 1"
_symmetry_int_tables_number       1

loop_
  _symmetry_equiv_pos_as_xyz
  'x, y, z'

loop_
  _atom_site_label
  _atom_site_occupancy
  _atom_site_fract_x
  _atom_site_fract_y
  _atom_site_fract_z
  _atom_site_thermal_displace_type
  _atom_site_B_iso_or_equiv
  _atom_site_type_symbol
  Cu1      1.0000 0.49920  0.74660  0.03420  Biso   1.000  Cu
  Cu2      1.0000 0.50080  0.24660  0.46580  Biso   1.000  Cu
  Cu3      1.0000 0.50080  0.25340  0.96580  Biso   1.000  Cu
  Cu4      1.0000 0.49920  0.75340  0.53420  Biso   1.000  Cu
  Br1      1.0000 0.95070  0.71630  0.92200  Biso   1.000  Br
  Br2      1.0000 0.04930  0.21630  0.57800  Biso   1.000  Br
  Br3      1.0000 0.04930  0.28370  0.07800  Biso   1.000  Br
  Br4      1.0000 0.95070  0.78370  0.42200  Biso   1.000  Br
  N1       1.0000 0.52600  0.64550  0.14200  Biso   1.000  N
  N2       1.0000 0.47400  0.14550  0.35800  Biso   1.000  N
  N3       1.0000 0.47400  0.35450  0.85800  Biso   1.000  N
  N4       1.0000 0.52600  0.85450  0.64200  Biso   1.000  N
  C1       1.0000 0.42100  0.65300  0.23500  Biso   1.000  C
  C2       1.0000 0.57900  0.15300  0.26500  Biso   1.000  C
  C3       1.0000 0.57900  0.34700  0.76500  Biso   1.000  C
  C4       1.0000 0.42100  0.84700  0.73500  Biso   1.000  C
  C5       1.0000 0.40400  0.58500  0.30500  Biso   1.000  C
  C6       1.0000 0.59600  0.08500  0.19500  Biso   1.000  C
  C7       1.0000 0.59600  0.41500  0.69500  Biso   1.000  C
  C8       1.0000 0.40400  0.91500  0.80500  Biso   1.000  C
  C9       1.0000 0.51000  0.50000  0.27500  Biso   1.000  C
  C10      1.0000 0.49000  0.00000  0.22500  Biso   1.000  C
  C11      1.0000 0.49000  0.50000  0.72500  Biso   1.000  C
  C12      1.0000 0.51000  0.00000  0.77500  Biso   1.000  C
  C13      1.0000 0.62700  0.48700  0.18300  Biso   1.000  C
  C14      1.0000 0.37300  0.98700  0.31700  Biso   1.000  C
  C15      1.0000 0.37300  0.51300  0.81700  Biso   1.000  C
  C16      1.0000 0.62700  0.01300  0.68300  Biso   1.000  C
  C17      1.0000 0.63400  0.56000  0.11700  Biso   1.000  C
  C18      1.0000 0.36600  0.06000  0.38300  Biso   1.000  C
  C19      1.0000 0.36600  0.44000  0.88300  Biso   1.000  C
  C20      1.0000 0.63400  0.94000  0.61700  Biso   1.000  C
  C21      1.0000 0.49500  0.42500  0.34200  Biso   1.000  C
  C22      1.0000 0.50500  0.92500  0.15800  Biso   1.000  C
  C23      1.0000 0.50500  0.57500  0.65800  Biso   1.000  C
  C24      1.0000 0.49500  0.07500  0.84200  Biso   1.000  C
  N5       1.0000 0.49600  0.36400  0.39700  Biso   1.000  N
  N6       1.0000 0.50400  0.86400  0.10300  Biso   1.000  N
  N7       1.0000 0.50400  0.63600  0.60300  Biso   1.000  N
  N8       1.0000 0.49600  0.13600  0.89700  Biso   1.000  N
  H1       1.0000 0.33000  0.71600  0.23300  Biso   1.000  H
  H2       1.0000 0.67000  0.21600  0.26700  Biso   1.000  H
  H3       1.0000 0.67000  0.28400  0.76700  Biso   1.000  H
  H4       1.0000 0.33000  0.78400  0.73300  Biso   1.000  H
  H5       1.0000 0.27400  0.59100  0.36600  Biso   1.000  H
  H6       1.0000 0.72600  0.09100  0.13400  Biso   1.000  H
  H7       1.0000 0.72600  0.40900  0.63400  Biso   1.000  H
  H8       1.0000 0.27400  0.90900  0.86600  Biso   1.000  H
  H9       1.0000 0.66300  0.41400  0.15900  Biso   1.000  H
  H10      1.0000 0.33700  0.91400  0.34100  Biso   1.000  H
  H11      1.0000 0.33700  0.58600  0.84100  Biso   1.000  H
  H12      1.0000 0.66300  0.08600  0.65900  Biso   1.000  H
  H13      1.0000 0.75600  0.54800  0.06000  Biso   1.000  H
  H14      1.0000 0.24400  0.04800  0.44000  Biso   1.000  H
  H15      1.0000 0.24400  0.45200  0.94000  Biso   1.000  H
  H16      1.0000 0.75600  0.95200  0.56000  Biso   1.000  H
