data_image0
_cell_length_a       3.725
_cell_length_b       14.656
_cell_length_c       12.894
_cell_angle_alpha    90
_cell_angle_beta     95.66
_cell_angle_gamma    90

_symmetry_space_group_name_H-M    "P 1"
_symmetry_int_tables_number       1

loop_
  _symmetry_equiv_pos_as_xyz
  'x, y, z'

loop_
  _atom_site_label
  _atom_site_occupancy
  _atom_site_fract_x
  _atom_site_fract_y
  _atom_site_fract_z
  _atom_site_thermal_displace_type
  _atom_site_B_iso_or_equiv
  _atom_site_type_symbol
  Cu1      1.0000 0.51680  0.74669  0.02949  Biso   1.000  Cu
  Cu2      1.0000 0.48320  0.24669  0.47051  Biso   1.000  Cu
  Cu3      1.0000 0.48320  0.25331  0.97051  Biso   1.000  Cu
  Cu4      1.0000 0.51680  0.75331  0.52949  Biso   1.000  Cu
  Cl1      1.0000 0.97570  0.71500  0.92370  Biso   1.000  Cl
  Cl2      1.0000 0.02430  0.21500  0.57630  Biso   1.000  Cl
  Cl3      1.0000 0.02430  0.28500  0.07630  Biso   1.000  Cl
  Cl4      1.0000 0.97570  0.78500  0.42370  Biso   1.000  Cl
  N1       1.0000 0.54600  0.64640  0.14260  Biso   1.000  N
  N2       1.0000 0.45400  0.14640  0.35740  Biso   1.000  N
  N3       1.0000 0.45400  0.35360  0.85740  Biso   1.000  N
  N4       1.0000 0.54600  0.85360  0.64260  Biso   1.000  N
  C1       1.0000 0.43800  0.65780  0.23740  Biso   1.000  C
  C2       1.0000 0.56200  0.15780  0.26260  Biso   1.000  C
  C3       1.0000 0.56200  0.34220  0.76260  Biso   1.000  C
  C4       1.0000 0.43800  0.84220  0.73740  Biso   1.000  C
  C5       1.0000 0.41500  0.58880  0.30770  Biso   1.000  C
  C6       1.0000 0.58500  0.08880  0.19230  Biso   1.000  C
  C7       1.0000 0.58500  0.41120  0.69230  Biso   1.000  C
  C8       1.0000 0.41500  0.91120  0.80770  Biso   1.000  C
  C9       1.0000 0.51700  0.50220  0.27850  Biso   1.000  C
  C10      1.0000 0.48300  0.00220  0.22150  Biso   1.000  C
  C11      1.0000 0.48300  0.49780  0.72150  Biso   1.000  C
  C12      1.0000 0.51700  0.99780  0.77850  Biso   1.000  C
  C13      1.0000 0.63100  0.48770  0.17940  Biso   1.000  C
  C14      1.0000 0.36900  0.98770  0.32060  Biso   1.000  C
  C15      1.0000 0.36900  0.51230  0.82060  Biso   1.000  C
  C16      1.0000 0.63100  0.01230  0.67940  Biso   1.000  C
  C17      1.0000 0.65400  0.56100  0.11690  Biso   1.000  C
  C18      1.0000 0.34600  0.06100  0.38310  Biso   1.000  C
  C19      1.0000 0.34600  0.43900  0.88310  Biso   1.000  C
  C20      1.0000 0.65400  0.93900  0.61690  Biso   1.000  C
  C21      1.0000 0.49300  0.42340  0.34970  Biso   1.000  C
  C22      1.0000 0.50700  0.92340  0.15030  Biso   1.000  C
  C23      1.0000 0.50700  0.57660  0.65030  Biso   1.000  C
  C24      1.0000 0.49300  0.07660  0.84970  Biso   1.000  C
  N5       1.0000 0.48100  0.36450  0.40150  Biso   1.000  N
  N6       1.0000 0.51900  0.86450  0.09850  Biso   1.000  N
  N7       1.0000 0.51900  0.63550  0.59850  Biso   1.000  N
  N8       1.0000 0.48100  0.13550  0.90150  Biso   1.000  N
  H1       1.0000 0.36200  0.73200  0.25000  Biso   1.000  H
  H2       1.0000 0.63800  0.23200  0.25000  Biso   1.000  H
  H3       1.0000 0.63800  0.26800  0.75000  Biso   1.000  H
  H4       1.0000 0.36200  0.76800  0.75000  Biso   1.000  H
  H5       1.0000 0.35100  0.60000  0.39200  Biso   1.000  H
  H6       1.0000 0.64900  0.10000  0.10800  Biso   1.000  H
  H7       1.0000 0.64900  0.40000  0.60800  Biso   1.000  H
  H8       1.0000 0.35100  0.90000  0.89200  Biso   1.000  H
  H9       1.0000 0.76800  0.43100  0.16300  Biso   1.000  H
  H10      1.0000 0.23200  0.93100  0.33700  Biso   1.000  H
  H11      1.0000 0.23200  0.56900  0.83700  Biso   1.000  H
  H12      1.0000 0.76800  0.06900  0.66300  Biso   1.000  H
  H13      1.0000 0.74400  0.54100  0.03600  Biso   1.000  H
  H14      1.0000 0.25600  0.04100  0.46400  Biso   1.000  H
  H15      1.0000 0.25600  0.45900  0.96400  Biso   1.000  H
  H16      1.0000 0.74400  0.95900  0.53600  Biso   1.000  H
