data_image0
_cell_length_a       12.361
_cell_length_b       7.828
_cell_length_c       3.947
_cell_angle_alpha    103.16
_cell_angle_beta     96.1
_cell_angle_gamma    99.89

_symmetry_space_group_name_H-M    "P 1"
_symmetry_int_tables_number       1

loop_
  _symmetry_equiv_pos_as_xyz
  'x, y, z'

loop_
  _atom_site_label
  _atom_site_occupancy
  _atom_site_fract_x
  _atom_site_fract_y
  _atom_site_fract_z
  _atom_site_thermal_displace_type
  _atom_site_B_iso_or_equiv
  _atom_site_type_symbol
  Br1      1.0000 0.94100  0.27020  0.67320  Biso   1.000  Br
  Br2      1.0000 0.05900  0.72980  0.32680  Biso   1.000  Br
  Cu1      1.0000 0.05720  0.40380  0.27530  Biso   1.000  Cu
  Cu2      1.0000 0.94280  0.59620  0.72470  Biso   1.000  Cu
  N1       1.0000 0.19810  0.30760  0.29310  Biso   1.000  N
  N2       1.0000 0.80190  0.69240  0.70690  Biso   1.000  N
  C1       1.0000 0.29600  0.38710  0.50500  Biso   1.000  C
  C2       1.0000 0.70400  0.61290  0.49500  Biso   1.000  C
  C3       1.0000 0.29640  0.56490  0.74460  Biso   1.000  C
  C4       1.0000 0.70360  0.43510  0.25540  Biso   1.000  C
  O1       1.0000 0.37730  0.65680  0.93550  Biso   1.000  O
  O2       1.0000 0.62270  0.34320  0.06450  Biso   1.000  O
  C5       1.0000 0.38670  0.31010  0.51130  Biso   1.000  C
  C6       1.0000 0.61330  0.68990  0.48870  Biso   1.000  C
  C7       1.0000 0.37800  0.14100  0.29670  Biso   1.000  C
  C8       1.0000 0.62200  0.85900  0.70330  Biso   1.000  C
  C9       1.0000 0.27870  0.05600  0.08550  Biso   1.000  C
  C10      1.0000 0.72130  0.94400  0.91450  Biso   1.000  C
  C11      1.0000 0.19340  0.14670  0.08160  Biso   1.000  C
  C12      1.0000 0.80660  0.85330  0.91840  Biso   1.000  C
  H1       1.0000 0.22500  0.60400  0.77600  Biso   1.000  H
  H2       1.0000 0.77500  0.39600  0.22400  Biso   1.000  H
  H3       1.0000 0.45800  0.37000  0.67000  Biso   1.000  H
  H4       1.0000 0.54200  0.63000  0.33000  Biso   1.000  H
  H5       1.0000 0.44300  0.08700  0.30000  Biso   1.000  H
  H6       1.0000 0.55700  0.91300  0.70000  Biso   1.000  H
  H7       1.0000 0.27700  0.93200  0.95800  Biso   1.000  H
  H8       1.0000 0.72300  0.06800  0.04200  Biso   1.000  H
  H9       1.0000 0.12900  0.08900  0.90600  Biso   1.000  H
  H10      1.0000 0.87100  0.91100  0.09400  Biso   1.000  H
