data_image0
_cell_length_a       13.104
_cell_length_b       3.825
_cell_length_c       14.833
_cell_angle_alpha    90
_cell_angle_beta     110.3
_cell_angle_gamma    90

_symmetry_space_group_name_H-M    "P 1"
_symmetry_int_tables_number       1

loop_
  _symmetry_equiv_pos_as_xyz
  'x, y, z'

loop_
  _atom_site_label
  _atom_site_occupancy
  _atom_site_fract_x
  _atom_site_fract_y
  _atom_site_fract_z
  _atom_site_thermal_displace_type
  _atom_site_B_iso_or_equiv
  _atom_site_type_symbol
  Cl1      1.0000 0.54880  0.54640  0.16410  Biso   1.000  Cl
  Cl2      1.0000 0.45120  0.04640  0.33590  Biso   1.000  Cl
  Cl3      1.0000 0.45120  0.45360  0.83590  Biso   1.000  Cl
  Cl4      1.0000 0.54880  0.95360  0.66410  Biso   1.000  Cl
  Cu1      1.0000 0.44020  0.05110  0.17290  Biso   1.000  Cu
  Cu2      1.0000 0.55980  0.55110  0.32710  Biso   1.000  Cu
  Cu3      1.0000 0.55980  0.94890  0.82710  Biso   1.000  Cu
  Cu4      1.0000 0.44020  0.44890  0.67290  Biso   1.000  Cu
  N1       1.0000 0.30620  0.03900  0.05590  Biso   1.000  N
  N2       1.0000 0.69380  0.53900  0.44410  Biso   1.000  N
  N3       1.0000 0.69380  0.96100  0.94410  Biso   1.000  N
  N4       1.0000 0.30620  0.46100  0.55590  Biso   1.000  N
  C1       1.0000 0.20620  0.16800  0.04860  Biso   1.000  C
  C2       1.0000 0.79380  0.66800  0.45140  Biso   1.000  C
  C3       1.0000 0.79380  0.83200  0.95140  Biso   1.000  C
  C4       1.0000 0.20620  0.33200  0.54860  Biso   1.000  C
  C5       1.0000 0.19730  0.30300  0.13910  Biso   1.000  C
  C6       1.0000 0.80270  0.80300  0.36090  Biso   1.000  C
  C7       1.0000 0.80270  0.69700  0.86090  Biso   1.000  C
  C8       1.0000 0.19730  0.19700  0.63910  Biso   1.000  C
  O1       1.0000 0.11830  0.44800  0.14530  Biso   1.000  O
  O2       1.0000 0.88170  0.94800  0.35470  Biso   1.000  O
  O3       1.0000 0.88170  0.55200  0.85470  Biso   1.000  O
  O4       1.0000 0.11830  0.05200  0.64530  Biso   1.000  O
  C9       1.0000 0.11830  0.16900  0.96410  Biso   1.000  C
  C10      1.0000 0.88170  0.66900  0.53590  Biso   1.000  C
  C11      1.0000 0.88170  0.83100  0.03590  Biso   1.000  C
  C12      1.0000 0.11830  0.33100  0.46410  Biso   1.000  C
  C13      1.0000 0.13160  0.04200  0.88150  Biso   1.000  C
  C14      1.0000 0.86840  0.54200  0.61850  Biso   1.000  C
  C15      1.0000 0.86840  0.95800  0.11850  Biso   1.000  C
  C16      1.0000 0.13160  0.45800  0.38150  Biso   1.000  C
  C17      1.0000 0.23400  0.91200  0.88950  Biso   1.000  C
  C18      1.0000 0.76600  0.41200  0.61050  Biso   1.000  C
  C19      1.0000 0.76600  0.08800  0.11050  Biso   1.000  C
  C20      1.0000 0.23400  0.58800  0.38950  Biso   1.000  C
  C21      1.0000 0.31410  0.91200  0.97520  Biso   1.000  C
  C22      1.0000 0.68590  0.41200  0.52480  Biso   1.000  C
  C23      1.0000 0.68590  0.08800  0.02480  Biso   1.000  C
  C24      1.0000 0.31410  0.58800  0.47520  Biso   1.000  C
  H1       1.0000 0.26100  0.28000  0.19800  Biso   1.000  H
  H2       1.0000 0.73900  0.78000  0.30200  Biso   1.000  H
  H3       1.0000 0.73900  0.72000  0.80200  Biso   1.000  H
  H4       1.0000 0.26100  0.22000  0.69800  Biso   1.000  H
  H5       1.0000 0.04800  0.25300  0.96400  Biso   1.000  H
  H6       1.0000 0.95200  0.75300  0.53600  Biso   1.000  H
  H7       1.0000 0.95200  0.74700  0.03600  Biso   1.000  H
  H8       1.0000 0.04800  0.24700  0.46400  Biso   1.000  H
  H9       1.0000 0.07200  0.04800  0.82100  Biso   1.000  H
  H10      1.0000 0.92800  0.54800  0.67900  Biso   1.000  H
  H11      1.0000 0.92800  0.95200  0.17900  Biso   1.000  H
  H12      1.0000 0.07200  0.45200  0.32100  Biso   1.000  H
  H13      1.0000 0.24500  0.81700  0.83300  Biso   1.000  H
  H14      1.0000 0.75500  0.31700  0.66700  Biso   1.000  H
  H15      1.0000 0.75500  0.18300  0.16700  Biso   1.000  H
  H16      1.0000 0.24500  0.68300  0.33300  Biso   1.000  H
  H17      1.0000 0.38400  0.81400  0.97900  Biso   1.000  H
  H18      1.0000 0.61600  0.31400  0.52100  Biso   1.000  H
  H19      1.0000 0.61600  0.18600  0.02100  Biso   1.000  H
  H20      1.0000 0.38400  0.68600  0.47900  Biso   1.000  H
