data_image0
_cell_length_a       3.858
_cell_length_b       8.565
_cell_length_c       16.276
_cell_angle_alpha    95.02
_cell_angle_beta     92.12
_cell_angle_gamma    101.1

_symmetry_space_group_name_H-M    "P 1"
_symmetry_int_tables_number       1

loop_
  _symmetry_equiv_pos_as_xyz
  'x, y, z'

loop_
  _atom_site_label
  _atom_site_occupancy
  _atom_site_fract_x
  _atom_site_fract_y
  _atom_site_fract_z
  _atom_site_thermal_displace_type
  _atom_site_B_iso_or_equiv
  _atom_site_type_symbol
  Cu1      1.0000 0.63798  0.35082  0.50060  Biso   1.000  Cu
  Cu2      1.0000 0.36202  0.64918  0.49940  Biso   1.000  Cu
  Cl1      1.0000 0.86944  0.64977  0.57723  Biso   1.000  Cl
  Cl2      1.0000 0.13056  0.35023  0.42277  Biso   1.000  Cl
  N1       1.0000 0.61850  0.23840  0.60290  Biso   1.000  N
  N2       1.0000 0.38150  0.76160  0.39710  Biso   1.000  N
  O1       1.0000 0.88140  0.13370  0.88710  Biso   1.000  O
  O2       1.0000 0.11860  0.86630  0.11290  Biso   1.000  O
  C1       1.0000 0.53250  0.30860  0.67330  Biso   1.000  C
  C2       1.0000 0.46750  0.69140  0.32670  Biso   1.000  C
  C3       1.0000 0.55000  0.24720  0.74790  Biso   1.000  C
  C4       1.0000 0.45000  0.75280  0.25210  Biso   1.000  C
  C5       1.0000 0.65000  0.09980  0.75120  Biso   1.000  C
  C6       1.0000 0.35000  0.90020  0.24880  Biso   1.000  C
  C7       1.0000 0.73010  0.02440  0.67780  Biso   1.000  C
  C8       1.0000 0.26990  0.97560  0.32220  Biso   1.000  C
  C9       1.0000 0.71000  0.09540  0.60590  Biso   1.000  C
  C10      1.0000 0.29000  0.90460  0.39410  Biso   1.000  C
  C11      1.0000 0.70310  0.04280  0.83400  Biso   1.000  C
  C12      1.0000 0.29690  0.95720  0.16600  Biso   1.000  C
  C13      1.0000 0.53750  0.87890  0.85080  Biso   1.000  C
  C14      1.0000 0.46250  0.12110  0.14920  Biso   1.000  C
  C15      1.0000 0.32770  0.77300  0.79060  Biso   1.000  C
  C16      1.0000 0.67230  0.22700  0.20940  Biso   1.000  C
  C17      1.0000 0.17550  0.62230  0.81010  Biso   1.000  C
  C18      1.0000 0.82450  0.37770  0.18990  Biso   1.000  C
  C19      1.0000 0.22440  0.57690  0.88740  Biso   1.000  C
  C20      1.0000 0.77560  0.42310  0.11260  Biso   1.000  C
  C21      1.0000 0.42940  0.68070  0.94730  Biso   1.000  C
  C22      1.0000 0.57060  0.31930  0.05270  Biso   1.000  C
  C23      1.0000 0.58470  0.83120  0.92910  Biso   1.000  C
  C24      1.0000 0.41530  0.16880  0.07090  Biso   1.000  C
  H1       1.0000 0.45240  0.40770  0.67140  Biso   1.000  H
  H2       1.0000 0.54760  0.59230  0.32860  Biso   1.000  H
  H3       1.0000 0.49650  0.30500  0.79750  Biso   1.000  H
  H4       1.0000 0.50350  0.69500  0.20250  Biso   1.000  H
  H5       1.0000 0.80210  0.92310  0.67740  Biso   1.000  H
  H6       1.0000 0.19790  0.07690  0.32260  Biso   1.000  H
  H7       1.0000 0.76370  0.04040  0.55550  Biso   1.000  H
  H8       1.0000 0.23630  0.95960  0.44450  Biso   1.000  H
  H9       1.0000 0.28740  0.80460  0.73650  Biso   1.000  H
  H10      1.0000 0.71260  0.19540  0.26350  Biso   1.000  H
  H11      1.0000 0.03350  0.54820  0.76870  Biso   1.000  H
  H12      1.0000 0.96650  0.45180  0.23130  Biso   1.000  H
  H13      1.0000 0.11460  0.47190  0.89990  Biso   1.000  H
  H14      1.0000 0.88540  0.52810  0.10010  Biso   1.000  H
  H15      1.0000 0.46410  0.64880  0.00160  Biso   1.000  H
  H16      1.0000 0.53590  0.35120  0.99840  Biso   1.000  H
  H17      1.0000 0.72770  0.90420  0.97080  Biso   1.000  H
  H18      1.0000 0.27230  0.09580  0.02920  Biso   1.000  H
