data_image0
_cell_length_a       3.954
_cell_length_b       24.542
_cell_length_c       11.922
_cell_angle_alpha    90
_cell_angle_beta     107.8
_cell_angle_gamma    90

_symmetry_space_group_name_H-M    "P 1"
_symmetry_int_tables_number       1

loop_
  _symmetry_equiv_pos_as_xyz
  'x, y, z'

loop_
  _atom_site_label
  _atom_site_occupancy
  _atom_site_fract_x
  _atom_site_fract_y
  _atom_site_fract_z
  _atom_site_thermal_displace_type
  _atom_site_B_iso_or_equiv
  _atom_site_type_symbol
  Br1      1.0000 0.42700  0.49413  0.16040  Biso   1.000  Br
  Br2      1.0000 0.57300  0.99413  0.33960  Biso   1.000  Br
  Br3      1.0000 0.57300  0.50587  0.83960  Biso   1.000  Br
  Br4      1.0000 0.42700  0.00587  0.66040  Biso   1.000  Br
  Cu1      1.0000 0.82810  0.46233  0.05246  Biso   1.000  Cu
  Cu2      1.0000 0.17190  0.96233  0.44754  Biso   1.000  Cu
  Cu3      1.0000 0.17190  0.53767  0.94754  Biso   1.000  Cu
  Cu4      1.0000 0.82810  0.03767  0.55246  Biso   1.000  Cu
  N1       1.0000 0.79320  0.38270  0.00930  Biso   1.000  N
  N2       1.0000 0.20680  0.88270  0.49070  Biso   1.000  N
  N3       1.0000 0.20680  0.61730  0.99070  Biso   1.000  N
  N4       1.0000 0.79320  0.11730  0.50930  Biso   1.000  N
  C1       1.0000 0.70100  0.34470  0.07480  Biso   1.000  C
  C2       1.0000 0.29900  0.84470  0.42520  Biso   1.000  C
  C3       1.0000 0.29900  0.65530  0.92520  Biso   1.000  C
  C4       1.0000 0.70100  0.15530  0.57480  Biso   1.000  C
  C5       1.0000 0.64300  0.29040  0.03970  Biso   1.000  C
  C6       1.0000 0.35700  0.79040  0.46030  Biso   1.000  C
  C7       1.0000 0.35700  0.70960  0.96030  Biso   1.000  C
  C8       1.0000 0.64300  0.20960  0.53970  Biso   1.000  C
  C9       1.0000 0.67200  0.27500  0.93210  Biso   1.000  C
  C10      1.0000 0.32800  0.77500  0.56790  Biso   1.000  C
  C11      1.0000 0.32800  0.72500  0.06790  Biso   1.000  C
  C12      1.0000 0.67200  0.22500  0.43210  Biso   1.000  C
  C13      1.0000 0.77300  0.31390  0.86480  Biso   1.000  C
  C14      1.0000 0.22700  0.81390  0.63520  Biso   1.000  C
  C15      1.0000 0.22700  0.68610  0.13520  Biso   1.000  C
  C16      1.0000 0.77300  0.18610  0.36480  Biso   1.000  C
  C17      1.0000 0.83300  0.36650  0.90640  Biso   1.000  C
  C18      1.0000 0.16700  0.86650  0.59360  Biso   1.000  C
  C19      1.0000 0.16700  0.63350  0.09360  Biso   1.000  C
  C20      1.0000 0.83300  0.13350  0.40640  Biso   1.000  C
  C21      1.0000 0.57300  0.21910  0.87920  Biso   1.000  C
  C22      1.0000 0.42700  0.71910  0.62080  Biso   1.000  C
  C23      1.0000 0.42700  0.78090  0.12080  Biso   1.000  C
  C24      1.0000 0.57300  0.28090  0.37920  Biso   1.000  C
  O1       1.0000 0.39080  0.21750  0.77620  Biso   1.000  O
  O2       1.0000 0.60920  0.71750  0.72380  Biso   1.000  O
  O3       1.0000 0.60920  0.78250  0.22380  Biso   1.000  O
  O4       1.0000 0.39080  0.28250  0.27620  Biso   1.000  O
  C25      1.0000 0.68600  0.16890  0.94890  Biso   1.000  C
  C26      1.0000 0.31400  0.66890  0.55110  Biso   1.000  C
  C27      1.0000 0.31400  0.83110  0.05110  Biso   1.000  C
  C28      1.0000 0.68600  0.33110  0.44890  Biso   1.000  C
  C29      1.0000 0.94300  0.16880  0.05960  Biso   1.000  C
  C30      1.0000 0.05700  0.66880  0.44040  Biso   1.000  C
  C31      1.0000 0.05700  0.83120  0.94040  Biso   1.000  C
  C32      1.0000 0.94300  0.33120  0.55960  Biso   1.000  C
  C33      1.0000 0.04400  0.12040  0.11920  Biso   1.000  C
  C34      1.0000 0.95600  0.62040  0.38080  Biso   1.000  C
  C35      1.0000 0.95600  0.87960  0.88080  Biso   1.000  C
  C36      1.0000 0.04400  0.37960  0.61920  Biso   1.000  C
  C37      1.0000 0.89100  0.07170  0.07010  Biso   1.000  C
  C38      1.0000 0.10900  0.57170  0.42990  Biso   1.000  C
  C39      1.0000 0.10900  0.92830  0.92990  Biso   1.000  C
  C40      1.0000 0.89100  0.42830  0.57010  Biso   1.000  C
  C41      1.0000 0.64400  0.07140  0.96000  Biso   1.000  C
  C42      1.0000 0.35600  0.57140  0.54000  Biso   1.000  C
  C43      1.0000 0.35600  0.92860  0.04000  Biso   1.000  C
  C44      1.0000 0.64400  0.42860  0.46000  Biso   1.000  C
  C45      1.0000 0.54200  0.11930  0.90000  Biso   1.000  C
  C46      1.0000 0.45800  0.61930  0.60000  Biso   1.000  C
  C47      1.0000 0.45800  0.88070  0.10000  Biso   1.000  C
  C48      1.0000 0.54200  0.38070  0.40000  Biso   1.000  C
  H1       1.0000 0.67100  0.35600  0.15100  Biso   1.000  H
  H2       1.0000 0.32900  0.85600  0.34900  Biso   1.000  H
  H3       1.0000 0.32900  0.64400  0.84900  Biso   1.000  H
  H4       1.0000 0.67100  0.14400  0.65100  Biso   1.000  H
  H5       1.0000 0.58400  0.26300  0.09100  Biso   1.000  H
  H6       1.0000 0.41600  0.76300  0.40900  Biso   1.000  H
  H7       1.0000 0.41600  0.73700  0.90900  Biso   1.000  H
  H8       1.0000 0.58400  0.23700  0.59100  Biso   1.000  H
  H9       1.0000 0.80000  0.30400  0.78800  Biso   1.000  H
  H10      1.0000 0.20000  0.80400  0.71200  Biso   1.000  H
  H11      1.0000 0.20000  0.69600  0.21200  Biso   1.000  H
  H12      1.0000 0.80000  0.19600  0.28800  Biso   1.000  H
  H13      1.0000 0.90800  0.39400  0.85800  Biso   1.000  H
  H14      1.0000 0.09200  0.89400  0.64200  Biso   1.000  H
  H15      1.0000 0.09200  0.60600  0.14200  Biso   1.000  H
  H16      1.0000 0.90800  0.10600  0.35800  Biso   1.000  H
  H17      1.0000 0.05000  0.20300  0.09500  Biso   1.000  H
  H18      1.0000 0.95000  0.70300  0.40500  Biso   1.000  H
  H19      1.0000 0.95000  0.79700  0.90500  Biso   1.000  H
  H20      1.0000 0.05000  0.29700  0.59500  Biso   1.000  H
  H21      1.0000 0.22700  0.12000  0.19600  Biso   1.000  H
  H22      1.0000 0.77300  0.62000  0.30400  Biso   1.000  H
  H23      1.0000 0.77300  0.88000  0.80400  Biso   1.000  H
  H24      1.0000 0.22700  0.38000  0.69600  Biso   1.000  H
  H25      1.0000 0.95900  0.03800  0.11500  Biso   1.000  H
  H26      1.0000 0.04100  0.53800  0.38500  Biso   1.000  H
  H27      1.0000 0.04100  0.96200  0.88500  Biso   1.000  H
  H28      1.0000 0.95900  0.46200  0.61500  Biso   1.000  H
  H29      1.0000 0.54300  0.03700  0.92500  Biso   1.000  H
  H30      1.0000 0.45700  0.53700  0.57500  Biso   1.000  H
  H31      1.0000 0.45700  0.96300  0.07500  Biso   1.000  H
  H32      1.0000 0.54300  0.46300  0.42500  Biso   1.000  H
  H33      1.0000 0.36400  0.11800  0.82300  Biso   1.000  H
  H34      1.0000 0.63600  0.61800  0.67700  Biso   1.000  H
  H35      1.0000 0.63600  0.88200  0.17700  Biso   1.000  H
  H36      1.0000 0.36400  0.38200  0.32300  Biso   1.000  H
