data_image0
_cell_length_a       4.178
_cell_length_b       24.65
_cell_length_c       11.698
_cell_angle_alpha    90
_cell_angle_beta     104.94
_cell_angle_gamma    90

_symmetry_space_group_name_H-M    "P 1"
_symmetry_int_tables_number       1

loop_
  _symmetry_equiv_pos_as_xyz
  'x, y, z'

loop_
  _atom_site_label
  _atom_site_occupancy
  _atom_site_fract_x
  _atom_site_fract_y
  _atom_site_fract_z
  _atom_site_thermal_displace_type
  _atom_site_B_iso_or_equiv
  _atom_site_type_symbol
  I1       1.0000 0.36330  0.48356  0.17206  Biso   1.000  I
  I2       1.0000 0.63670  0.98356  0.32794  Biso   1.000  I
  I3       1.0000 0.63670  0.51644  0.82794  Biso   1.000  I
  I4       1.0000 0.36330  0.01644  0.67206  Biso   1.000  I
  Cu1      1.0000 0.76890  0.46387  0.03490  Biso   1.000  Cu
  Cu2      1.0000 0.23110  0.96387  0.46510  Biso   1.000  Cu
  Cu3      1.0000 0.23110  0.53613  0.96510  Biso   1.000  Cu
  Cu4      1.0000 0.76890  0.03613  0.53490  Biso   1.000  Cu
  N1       1.0000 0.72900  0.38330  0.98800  Biso   1.000  N
  N2       1.0000 0.27100  0.88330  0.51200  Biso   1.000  N
  N3       1.0000 0.27100  0.61670  0.01200  Biso   1.000  N
  N4       1.0000 0.72900  0.11670  0.48800  Biso   1.000  N
  C1       1.0000 0.93000  0.34500  0.04700  Biso   1.000  C
  C2       1.0000 0.07000  0.84500  0.45300  Biso   1.000  C
  C3       1.0000 0.07000  0.65500  0.95300  Biso   1.000  C
  C4       1.0000 0.93000  0.15500  0.54700  Biso   1.000  C
  C5       1.0000 0.91400  0.29020  0.01300  Biso   1.000  C
  C6       1.0000 0.08600  0.79020  0.48700  Biso   1.000  C
  C7       1.0000 0.08600  0.70980  0.98700  Biso   1.000  C
  C8       1.0000 0.91400  0.20980  0.51300  Biso   1.000  C
  C9       1.0000 0.68000  0.27590  0.90800  Biso   1.000  C
  C10      1.0000 0.32000  0.77590  0.59200  Biso   1.000  C
  C11      1.0000 0.32000  0.72410  0.09200  Biso   1.000  C
  C12      1.0000 0.68000  0.22410  0.40800  Biso   1.000  C
  C13      1.0000 0.47200  0.31560  0.84900  Biso   1.000  C
  C14      1.0000 0.52800  0.81560  0.65100  Biso   1.000  C
  C15      1.0000 0.52800  0.68440  0.15100  Biso   1.000  C
  C16      1.0000 0.47200  0.18440  0.34900  Biso   1.000  C
  C17      1.0000 0.50000  0.36770  0.89100  Biso   1.000  C
  C18      1.0000 0.50000  0.86770  0.60900  Biso   1.000  C
  C19      1.0000 0.50000  0.63230  0.10900  Biso   1.000  C
  C20      1.0000 0.50000  0.13230  0.39100  Biso   1.000  C
  C21      1.0000 0.66400  0.21990  0.85900  Biso   1.000  C
  C22      1.0000 0.33600  0.71990  0.64100  Biso   1.000  C
  C23      1.0000 0.33600  0.78010  0.14100  Biso   1.000  C
  C24      1.0000 0.66400  0.28010  0.35900  Biso   1.000  C
  O1       1.0000 0.56000  0.21520  0.75150  Biso   1.000  O
  O2       1.0000 0.44000  0.71520  0.74850  Biso   1.000  O
  O3       1.0000 0.44000  0.78480  0.24850  Biso   1.000  O
  O4       1.0000 0.56000  0.28480  0.25150  Biso   1.000  O
  C25      1.0000 0.76900  0.17190  0.93300  Biso   1.000  C
  C26      1.0000 0.23100  0.67190  0.56700  Biso   1.000  C
  C27      1.0000 0.23100  0.82810  0.06700  Biso   1.000  C
  C28      1.0000 0.76900  0.32810  0.43300  Biso   1.000  C
  C29      1.0000 0.73700  0.16890  0.04900  Biso   1.000  C
  C30      1.0000 0.26300  0.66890  0.45100  Biso   1.000  C
  C31      1.0000 0.26300  0.83110  0.95100  Biso   1.000  C
  C32      1.0000 0.73700  0.33110  0.54900  Biso   1.000  C
  C33      1.0000 0.82700  0.12080  0.11300  Biso   1.000  C
  C34      1.0000 0.17300  0.62080  0.38700  Biso   1.000  C
  C35      1.0000 0.17300  0.87920  0.88700  Biso   1.000  C
  C36      1.0000 0.82700  0.37920  0.61300  Biso   1.000  C
  C37      1.0000 0.96100  0.07860  0.06600  Biso   1.000  C
  C38      1.0000 0.03900  0.57860  0.43400  Biso   1.000  C
  C39      1.0000 0.03900  0.92140  0.93400  Biso   1.000  C
  C40      1.0000 0.96100  0.42140  0.56600  Biso   1.000  C
  C41      1.0000 0.00200  0.08210  0.95400  Biso   1.000  C
  C42      1.0000 0.99800  0.58210  0.54600  Biso   1.000  C
  C43      1.0000 0.99800  0.91790  0.04600  Biso   1.000  C
  C44      1.0000 0.00200  0.41790  0.45400  Biso   1.000  C
  C45      1.0000 0.90200  0.12720  0.88900  Biso   1.000  C
  C46      1.0000 0.09800  0.62720  0.61100  Biso   1.000  C
  C47      1.0000 0.09800  0.87280  0.11100  Biso   1.000  C
  C48      1.0000 0.90200  0.37280  0.38900  Biso   1.000  C
  H1       1.0000 0.10400  0.35600  0.12100  Biso   1.000  H
  H2       1.0000 0.89600  0.85600  0.37900  Biso   1.000  H
  H3       1.0000 0.89600  0.64400  0.87900  Biso   1.000  H
  H4       1.0000 0.10400  0.14400  0.62100  Biso   1.000  H
  H5       1.0000 0.06000  0.26200  0.05900  Biso   1.000  H
  H6       1.0000 0.94000  0.76200  0.44100  Biso   1.000  H
  H7       1.0000 0.94000  0.73800  0.94100  Biso   1.000  H
  H8       1.0000 0.06000  0.23800  0.55900  Biso   1.000  H
  H9       1.0000 0.29700  0.30500  0.77600  Biso   1.000  H
  H10      1.0000 0.70300  0.80500  0.72400  Biso   1.000  H
  H11      1.0000 0.70300  0.69500  0.22400  Biso   1.000  H
  H12      1.0000 0.29700  0.19500  0.27600  Biso   1.000  H
  H13      1.0000 0.33500  0.39500  0.84900  Biso   1.000  H
  H14      1.0000 0.66500  0.89500  0.65100  Biso   1.000  H
  H15      1.0000 0.66500  0.60500  0.15100  Biso   1.000  H
  H16      1.0000 0.33500  0.10500  0.34900  Biso   1.000  H
  H17      1.0000 0.64600  0.20100  0.08300  Biso   1.000  H
  H18      1.0000 0.35400  0.70100  0.41700  Biso   1.000  H
  H19      1.0000 0.35400  0.79900  0.91700  Biso   1.000  H
  H20      1.0000 0.64600  0.29900  0.58300  Biso   1.000  H
  H21      1.0000 0.80500  0.11800  0.19700  Biso   1.000  H
  H22      1.0000 0.19500  0.61800  0.30300  Biso   1.000  H
  H23      1.0000 0.19500  0.88200  0.80300  Biso   1.000  H
  H24      1.0000 0.80500  0.38200  0.69700  Biso   1.000  H
  H25      1.0000 0.02100  0.04500  0.11300  Biso   1.000  H
  H26      1.0000 0.97900  0.54500  0.38700  Biso   1.000  H
  H27      1.0000 0.97900  0.95500  0.88700  Biso   1.000  H
  H28      1.0000 0.02100  0.45500  0.61300  Biso   1.000  H
  H29      1.0000 0.11100  0.05300  0.92400  Biso   1.000  H
  H30      1.0000 0.88900  0.55300  0.57600  Biso   1.000  H
  H31      1.0000 0.88900  0.94700  0.07600  Biso   1.000  H
  H32      1.0000 0.11100  0.44700  0.42400  Biso   1.000  H
  H33      1.0000 0.92600  0.12800  0.80600  Biso   1.000  H
  H34      1.0000 0.07400  0.62800  0.69400  Biso   1.000  H
  H35      1.0000 0.07400  0.87200  0.19400  Biso   1.000  H
  H36      1.0000 0.92600  0.37200  0.30600  Biso   1.000  H
