data_image0
_cell_length_a       16.289
_cell_length_b       8.593
_cell_length_c       3.86
_cell_angle_alpha    100.89
_cell_angle_beta     92.16
_cell_angle_gamma    95

_symmetry_space_group_name_H-M    "P 1"
_symmetry_int_tables_number       1

loop_
  _symmetry_equiv_pos_as_xyz
  'x, y, z'

loop_
  _atom_site_label
  _atom_site_occupancy
  _atom_site_fract_x
  _atom_site_fract_y
  _atom_site_fract_z
  _atom_site_thermal_displace_type
  _atom_site_B_iso_or_equiv
  _atom_site_type_symbol
  Cl1      1.0000 0.92288  0.35041  0.63010  Biso   1.000  Cl
  Cl2      1.0000 0.07712  0.64959  0.36990  Biso   1.000  Cl
  Cu1      1.0000 0.00065  0.35073  0.13790  Biso   1.000  Cu
  Cu2      1.0000 0.99935  0.64927  0.86210  Biso   1.000  Cu
  N1       1.0000 0.10260  0.23820  0.11670  Biso   1.000  N
  N2       1.0000 0.89740  0.76180  0.88330  Biso   1.000  N
  C1       1.0000 0.17380  0.30990  0.03300  Biso   1.000  C
  C2       1.0000 0.82620  0.69010  0.96700  Biso   1.000  C
  C3       1.0000 0.24830  0.24650  0.04800  Biso   1.000  C
  C4       1.0000 0.75170  0.75350  0.95200  Biso   1.000  C
  C5       1.0000 0.25090  0.10060  0.15000  Biso   1.000  C
  C6       1.0000 0.74910  0.89940  0.85000  Biso   1.000  C
  C7       1.0000 0.17770  0.02350  0.22800  Biso   1.000  C
  C8       1.0000 0.82230  0.97650  0.77200  Biso   1.000  C
  C9       1.0000 0.10630  0.09690  0.21100  Biso   1.000  C
  C10      1.0000 0.89370  0.90310  0.78900  Biso   1.000  C
  C11      1.0000 0.33410  0.04210  0.20300  Biso   1.000  C
  C12      1.0000 0.66590  0.95790  0.79700  Biso   1.000  C
  O1       1.0000 0.38700  0.13450  0.38170  Biso   1.000  O
  O2       1.0000 0.61300  0.86550  0.61830  Biso   1.000  O
  C13      1.0000 0.35040  0.87760  0.03500  Biso   1.000  C
  C14      1.0000 0.64960  0.12240  0.96500  Biso   1.000  C
  C15      1.0000 0.29110  0.77230  0.82400  Biso   1.000  C
  C16      1.0000 0.70890  0.22770  0.17600  Biso   1.000  C
  C17      1.0000 0.30980  0.62140  0.67400  Biso   1.000  C
  C18      1.0000 0.69020  0.37860  0.32600  Biso   1.000  C
  C19      1.0000 0.38790  0.57700  0.72500  Biso   1.000  C
  C20      1.0000 0.61210  0.42300  0.27500  Biso   1.000  C
  C21      1.0000 0.44750  0.68220  0.93100  Biso   1.000  C
  C22      1.0000 0.55250  0.31780  0.06900  Biso   1.000  C
  C23      1.0000 0.42920  0.83100  0.08400  Biso   1.000  C
  C24      1.0000 0.57080  0.16900  0.91600  Biso   1.000  C
  H1       1.0000 0.17200  0.41200  0.95800  Biso   1.000  H
  H2       1.0000 0.82800  0.58800  0.04200  Biso   1.000  H
  H3       1.0000 0.29900  0.30300  0.98300  Biso   1.000  H
  H4       1.0000 0.70100  0.69700  0.01700  Biso   1.000  H
  H5       1.0000 0.17700  0.91900  0.28800  Biso   1.000  H
  H6       1.0000 0.82300  0.08100  0.71200  Biso   1.000  H
  H7       1.0000 0.05600  0.04400  0.27700  Biso   1.000  H
  H8       1.0000 0.94400  0.95600  0.72300  Biso   1.000  H
  H9       1.0000 0.23700  0.80600  0.78300  Biso   1.000  H
  H10      1.0000 0.76300  0.19400  0.21700  Biso   1.000  H
  H11      1.0000 0.26800  0.54800  0.53200  Biso   1.000  H
  H12      1.0000 0.73200  0.45200  0.46800  Biso   1.000  H
  H13      1.0000 0.40100  0.47100  0.61300  Biso   1.000  H
  H14      1.0000 0.59900  0.52900  0.38700  Biso   1.000  H
  H15      1.0000 0.50300  0.65000  0.96400  Biso   1.000  H
  H16      1.0000 0.49700  0.35000  0.03600  Biso   1.000  H
  H17      1.0000 0.47100  0.90500  0.23200  Biso   1.000  H
  H18      1.0000 0.52900  0.09500  0.76800  Biso   1.000  H
