data_image0
_cell_length_a       4.3222
_cell_length_b       19.161
_cell_length_c       9.5867
_cell_angle_alpha    90
_cell_angle_beta     96.465
_cell_angle_gamma    90

_symmetry_space_group_name_H-M    "P 1"
_symmetry_int_tables_number       1

loop_
  _symmetry_equiv_pos_as_xyz
  'x, y, z'

loop_
  _atom_site_label
  _atom_site_occupancy
  _atom_site_fract_x
  _atom_site_fract_y
  _atom_site_fract_z
  _atom_site_thermal_displace_type
  _atom_site_B_iso_or_equiv
  _atom_site_type_symbol
  Cu1      1.0000 0.30010  0.50507  0.10118  Biso   1.000  Cu
  Cu2      1.0000 0.69990  0.00507  0.39882  Biso   1.000  Cu
  Cu3      1.0000 0.69990  0.49493  0.89882  Biso   1.000  Cu
  Cu4      1.0000 0.30010  0.99493  0.60118  Biso   1.000  Cu
  I1       1.0000 0.20230  0.41055  0.89673  Biso   1.000  I
  I2       1.0000 0.79770  0.91055  0.60327  Biso   1.000  I
  I3       1.0000 0.79770  0.58945  0.10327  Biso   1.000  I
  I4       1.0000 0.20230  0.08945  0.39673  Biso   1.000  I
  N1       1.0000 0.33810  0.45280  0.28690  Biso   1.000  N
  N2       1.0000 0.66190  0.95280  0.21310  Biso   1.000  N
  N3       1.0000 0.66190  0.54720  0.71310  Biso   1.000  N
  N4       1.0000 0.33810  0.04720  0.78690  Biso   1.000  N
  N5       1.0000 0.19000  0.47450  0.39230  Biso   1.000  N
  N6       1.0000 0.81000  0.97450  0.10770  Biso   1.000  N
  N7       1.0000 0.81000  0.52550  0.60770  Biso   1.000  N
  N8       1.0000 0.19000  0.02550  0.89230  Biso   1.000  N
  N9       1.0000 0.25260  0.43150  0.50000  Biso   1.000  N
  N10      1.0000 0.74740  0.93150  0.00000  Biso   1.000  N
  N11      1.0000 0.74740  0.56850  0.50000  Biso   1.000  N
  N12      1.0000 0.25260  0.06850  0.00000  Biso   1.000  N
  H1       1.0000 0.17810  0.43570  0.57910  Biso   1.000  H
  H2       1.0000 0.82190  0.93570  0.92090  Biso   1.000  H
  H3       1.0000 0.82190  0.56430  0.42090  Biso   1.000  H
  H4       1.0000 0.17810  0.06430  0.07910  Biso   1.000  H
  C1       1.0000 0.70100  0.35050  0.26080  Biso   1.000  C
  C2       1.0000 0.29900  0.85050  0.23920  Biso   1.000  C
  C3       1.0000 0.29900  0.64950  0.73920  Biso   1.000  C
  C4       1.0000 0.70100  0.14950  0.76080  Biso   1.000  C
  H5       1.0000 0.73810  0.35940  0.16880  Biso   1.000  H
  H6       1.0000 0.26190  0.85940  0.33120  Biso   1.000  H
  H7       1.0000 0.26190  0.64060  0.83120  Biso   1.000  H
  H8       1.0000 0.73810  0.14060  0.66880  Biso   1.000  H
  C5       1.0000 0.82900  0.29470  0.33390  Biso   1.000  C
  C6       1.0000 0.17100  0.79470  0.16610  Biso   1.000  C
  C7       1.0000 0.17100  0.70530  0.66610  Biso   1.000  C
  C8       1.0000 0.82900  0.20530  0.83390  Biso   1.000  C
  H9       1.0000 0.96270  0.26520  0.29200  Biso   1.000  H
  H10      1.0000 0.03730  0.76520  0.20800  Biso   1.000  H
  H11      1.0000 0.03730  0.73480  0.70800  Biso   1.000  H
  H12      1.0000 0.96270  0.23480  0.79200  Biso   1.000  H
  C9       1.0000 0.76400  0.28070  0.47170  Biso   1.000  C
  C10      1.0000 0.23600  0.78070  0.02830  Biso   1.000  C
  C11      1.0000 0.23600  0.71930  0.52830  Biso   1.000  C
  C12      1.0000 0.76400  0.21930  0.97170  Biso   1.000  C
  H13      1.0000 0.85330  0.24120  0.51610  Biso   1.000  H
  H14      1.0000 0.14670  0.74120  0.98390  Biso   1.000  H
  H15      1.0000 0.14670  0.75880  0.48390  Biso   1.000  H
  H16      1.0000 0.85330  0.25880  0.01610  Biso   1.000  H
  C13      1.0000 0.58300  0.32050  0.54280  Biso   1.000  C
  C14      1.0000 0.41700  0.82050  0.95720  Biso   1.000  C
  C15      1.0000 0.41700  0.67950  0.45720  Biso   1.000  C
  C16      1.0000 0.58300  0.17950  0.04280  Biso   1.000  C
  H17      1.0000 0.54530  0.31030  0.63430  Biso   1.000  H
  H18      1.0000 0.45470  0.81030  0.86570  Biso   1.000  H
  H19      1.0000 0.45470  0.68970  0.36570  Biso   1.000  H
  H20      1.0000 0.54530  0.18970  0.13430  Biso   1.000  H
  C17      1.0000 0.45200  0.37940  0.46900  Biso   1.000  C
  C18      1.0000 0.54800  0.87940  0.03100  Biso   1.000  C
  C19      1.0000 0.54800  0.62060  0.53100  Biso   1.000  C
  C20      1.0000 0.45200  0.12060  0.96900  Biso   1.000  C
  C21      1.0000 0.51100  0.39320  0.33120  Biso   1.000  C
  C22      1.0000 0.48900  0.89320  0.16880  Biso   1.000  C
  C23      1.0000 0.48900  0.60680  0.66880  Biso   1.000  C
  C24      1.0000 0.51100  0.10680  0.83120  Biso   1.000  C
