data_image0
_cell_length_a       14.459
_cell_length_b       14.459
_cell_length_c       14.459
_cell_angle_alpha    90
_cell_angle_beta     90
_cell_angle_gamma    90

_symmetry_space_group_name_H-M    "P 1"
_symmetry_int_tables_number       1

loop_
  _symmetry_equiv_pos_as_xyz
  'x, y, z'

loop_
  _atom_site_label
  _atom_site_occupancy
  _atom_site_fract_x
  _atom_site_fract_y
  _atom_site_fract_z
  _atom_site_thermal_displace_type
  _atom_site_B_iso_or_equiv
  _atom_site_type_symbol
  I1       1.0000 0.78572  0.02264  0.97115  Biso   1.000  I
  I2       1.0000 0.71428  0.97736  0.47115  Biso   1.000  I
  I3       1.0000 0.28572  0.47736  0.02885  Biso   1.000  I
  I4       1.0000 0.21428  0.52264  0.52885  Biso   1.000  I
  I5       1.0000 0.97115  0.78572  0.02264  Biso   1.000  I
  I6       1.0000 0.52885  0.21428  0.52264  Biso   1.000  I
  I7       1.0000 0.47115  0.71428  0.97736  Biso   1.000  I
  I8       1.0000 0.02885  0.28572  0.47736  Biso   1.000  I
  I9       1.0000 0.02264  0.97115  0.78572  Biso   1.000  I
  I10      1.0000 0.52264  0.52885  0.21428  Biso   1.000  I
  I11      1.0000 0.97736  0.47115  0.71428  Biso   1.000  I
  I12      1.0000 0.47736  0.02885  0.28572  Biso   1.000  I
  I13      1.0000 0.21428  0.97736  0.02885  Biso   1.000  I
  I14      1.0000 0.28572  0.02264  0.52885  Biso   1.000  I
  I15      1.0000 0.71428  0.52264  0.97115  Biso   1.000  I
  I16      1.0000 0.78572  0.47736  0.47115  Biso   1.000  I
  I17      1.0000 0.02885  0.21428  0.97736  Biso   1.000  I
  I18      1.0000 0.47115  0.78572  0.47736  Biso   1.000  I
  I19      1.0000 0.52885  0.28572  0.02264  Biso   1.000  I
  I20      1.0000 0.97115  0.71428  0.52264  Biso   1.000  I
  I21      1.0000 0.97736  0.02885  0.21428  Biso   1.000  I
  I22      1.0000 0.47736  0.47115  0.78572  Biso   1.000  I
  I23      1.0000 0.02264  0.52885  0.28572  Biso   1.000  I
  I24      1.0000 0.52264  0.97115  0.71428  Biso   1.000  I
  Cu1      1.0000 0.89710  0.89710  0.89710  Biso   1.000  Cu
  Cu2      1.0000 0.60290  0.10290  0.39710  Biso   1.000  Cu
  Cu3      1.0000 0.39710  0.60290  0.10290  Biso   1.000  Cu
  Cu4      1.0000 0.10290  0.39710  0.60290  Biso   1.000  Cu
  Cu5      1.0000 0.10290  0.10290  0.10290  Biso   1.000  Cu
  Cu6      1.0000 0.39710  0.89710  0.60290  Biso   1.000  Cu
  Cu7      1.0000 0.60290  0.39710  0.89710  Biso   1.000  Cu
  Cu8      1.0000 0.89710  0.60290  0.39710  Biso   1.000  Cu
  Cu9      1.0000 0.93630  0.96510  0.06020  Biso   1.000  Cu
  Cu10     1.0000 0.56370  0.03490  0.56020  Biso   1.000  Cu
  Cu11     1.0000 0.43630  0.53490  0.93980  Biso   1.000  Cu
  Cu12     1.0000 0.06370  0.46510  0.43980  Biso   1.000  Cu
  Cu13     1.0000 0.06020  0.93630  0.96510  Biso   1.000  Cu
  Cu14     1.0000 0.43980  0.06370  0.46510  Biso   1.000  Cu
  Cu15     1.0000 0.56020  0.56370  0.03490  Biso   1.000  Cu
  Cu16     1.0000 0.93980  0.43630  0.53490  Biso   1.000  Cu
  Cu17     1.0000 0.96510  0.06020  0.93630  Biso   1.000  Cu
  Cu18     1.0000 0.46510  0.43980  0.06370  Biso   1.000  Cu
  Cu19     1.0000 0.03490  0.56020  0.56370  Biso   1.000  Cu
  Cu20     1.0000 0.53490  0.93980  0.43630  Biso   1.000  Cu
  Cu21     1.0000 0.06370  0.03490  0.93980  Biso   1.000  Cu
  Cu22     1.0000 0.43630  0.96510  0.43980  Biso   1.000  Cu
  Cu23     1.0000 0.56370  0.46510  0.06020  Biso   1.000  Cu
  Cu24     1.0000 0.93630  0.53490  0.56020  Biso   1.000  Cu
  Cu25     1.0000 0.93980  0.06370  0.03490  Biso   1.000  Cu
  Cu26     1.0000 0.56020  0.93630  0.53490  Biso   1.000  Cu
  Cu27     1.0000 0.43980  0.43630  0.96510  Biso   1.000  Cu
  Cu28     1.0000 0.06020  0.56370  0.46510  Biso   1.000  Cu
  Cu29     1.0000 0.03490  0.93980  0.06370  Biso   1.000  Cu
  Cu30     1.0000 0.53490  0.56020  0.93630  Biso   1.000  Cu
  Cu31     1.0000 0.96510  0.43980  0.43630  Biso   1.000  Cu
  Cu32     1.0000 0.46510  0.06020  0.56370  Biso   1.000  Cu
  N1       1.0000 0.81120  0.81120  0.81120  Biso   1.000  N
  N2       1.0000 0.68880  0.18880  0.31120  Biso   1.000  N
  N3       1.0000 0.31120  0.68880  0.18880  Biso   1.000  N
  N4       1.0000 0.18880  0.31120  0.68880  Biso   1.000  N
  N5       1.0000 0.18880  0.18880  0.18880  Biso   1.000  N
  N6       1.0000 0.31120  0.81120  0.68880  Biso   1.000  N
  N7       1.0000 0.68880  0.31120  0.81120  Biso   1.000  N
  N8       1.0000 0.81120  0.68880  0.31120  Biso   1.000  N
  C1       1.0000 0.85820  0.72420  0.78650  Biso   1.000  C
  C2       1.0000 0.64180  0.27580  0.28650  Biso   1.000  C
  C3       1.0000 0.35820  0.77580  0.21350  Biso   1.000  C
  C4       1.0000 0.14180  0.22420  0.71350  Biso   1.000  C
  C5       1.0000 0.78650  0.85820  0.72420  Biso   1.000  C
  C6       1.0000 0.71350  0.14180  0.22420  Biso   1.000  C
  C7       1.0000 0.28650  0.64180  0.27580  Biso   1.000  C
  C8       1.0000 0.21350  0.35820  0.77580  Biso   1.000  C
  C9       1.0000 0.72420  0.78650  0.85820  Biso   1.000  C
  C10      1.0000 0.22420  0.71350  0.14180  Biso   1.000  C
  C11      1.0000 0.27580  0.28650  0.64180  Biso   1.000  C
  C12      1.0000 0.77580  0.21350  0.35820  Biso   1.000  C
  C13      1.0000 0.14180  0.27580  0.21350  Biso   1.000  C
  C14      1.0000 0.35820  0.72420  0.71350  Biso   1.000  C
  C15      1.0000 0.64180  0.22420  0.78650  Biso   1.000  C
  C16      1.0000 0.85820  0.77580  0.28650  Biso   1.000  C
  C17      1.0000 0.21350  0.14180  0.27580  Biso   1.000  C
  C18      1.0000 0.28650  0.85820  0.77580  Biso   1.000  C
  C19      1.0000 0.71350  0.35820  0.72420  Biso   1.000  C
  C20      1.0000 0.78650  0.64180  0.22420  Biso   1.000  C
  C21      1.0000 0.27580  0.21350  0.14180  Biso   1.000  C
  C22      1.0000 0.77580  0.28650  0.85820  Biso   1.000  C
  C23      1.0000 0.72420  0.71350  0.35820  Biso   1.000  C
  C24      1.0000 0.22420  0.78650  0.64180  Biso   1.000  C
  H1       1.0000 0.91190  0.73810  0.74880  Biso   1.000  H
  H2       1.0000 0.58810  0.26190  0.24880  Biso   1.000  H
  H3       1.0000 0.41190  0.76190  0.25120  Biso   1.000  H
  H4       1.0000 0.08810  0.23810  0.75120  Biso   1.000  H
  H5       1.0000 0.74880  0.91190  0.73810  Biso   1.000  H
  H6       1.0000 0.75120  0.08810  0.23810  Biso   1.000  H
  H7       1.0000 0.24880  0.58810  0.26190  Biso   1.000  H
  H8       1.0000 0.25120  0.41190  0.76190  Biso   1.000  H
  H9       1.0000 0.73810  0.74880  0.91190  Biso   1.000  H
  H10      1.0000 0.23810  0.75120  0.08810  Biso   1.000  H
  H11      1.0000 0.26190  0.24880  0.58810  Biso   1.000  H
  H12      1.0000 0.76190  0.25120  0.41190  Biso   1.000  H
  H13      1.0000 0.08810  0.26190  0.25120  Biso   1.000  H
  H14      1.0000 0.41190  0.73810  0.75120  Biso   1.000  H
  H15      1.0000 0.58810  0.23810  0.74880  Biso   1.000  H
  H16      1.0000 0.91190  0.76190  0.24880  Biso   1.000  H
  H17      1.0000 0.25120  0.08810  0.26190  Biso   1.000  H
  H18      1.0000 0.24880  0.91190  0.76190  Biso   1.000  H
  H19      1.0000 0.75120  0.41190  0.73810  Biso   1.000  H
  H20      1.0000 0.74880  0.58810  0.23810  Biso   1.000  H
  H21      1.0000 0.26190  0.25120  0.08810  Biso   1.000  H
  H22      1.0000 0.76190  0.24880  0.91190  Biso   1.000  H
  H23      1.0000 0.73810  0.75120  0.41190  Biso   1.000  H
  H24      1.0000 0.23810  0.74880  0.58810  Biso   1.000  H
  H25      1.0000 0.87970  0.69420  0.84260  Biso   1.000  H
  H26      1.0000 0.62030  0.30580  0.34260  Biso   1.000  H
  H27      1.0000 0.37970  0.80580  0.15740  Biso   1.000  H
  H28      1.0000 0.12030  0.19420  0.65740  Biso   1.000  H
  H29      1.0000 0.84260  0.87970  0.69420  Biso   1.000  H
  H30      1.0000 0.65740  0.12030  0.19420  Biso   1.000  H
  H31      1.0000 0.34260  0.62030  0.30580  Biso   1.000  H
  H32      1.0000 0.15740  0.37970  0.80580  Biso   1.000  H
  H33      1.0000 0.69420  0.84260  0.87970  Biso   1.000  H
  H34      1.0000 0.19420  0.65740  0.12030  Biso   1.000  H
  H35      1.0000 0.30580  0.34260  0.62030  Biso   1.000  H
  H36      1.0000 0.80580  0.15740  0.37970  Biso   1.000  H
  H37      1.0000 0.12030  0.30580  0.15740  Biso   1.000  H
  H38      1.0000 0.37970  0.69420  0.65740  Biso   1.000  H
  H39      1.0000 0.62030  0.19420  0.84260  Biso   1.000  H
  H40      1.0000 0.87970  0.80580  0.34260  Biso   1.000  H
  H41      1.0000 0.15740  0.12030  0.30580  Biso   1.000  H
  H42      1.0000 0.34260  0.87970  0.80580  Biso   1.000  H
  H43      1.0000 0.65740  0.37970  0.69420  Biso   1.000  H
  H44      1.0000 0.84260  0.62030  0.19420  Biso   1.000  H
  H45      1.0000 0.30580  0.15740  0.12030  Biso   1.000  H
  H46      1.0000 0.80580  0.34260  0.87970  Biso   1.000  H
  H47      1.0000 0.69420  0.65740  0.37970  Biso   1.000  H
  H48      1.0000 0.19420  0.84260  0.62030  Biso   1.000  H
  N9       1.0000 0.70780  0.70780  0.70780  Biso   1.000  N
  N10      1.0000 0.79220  0.29220  0.20780  Biso   1.000  N
  N11      1.0000 0.20780  0.79220  0.29220  Biso   1.000  N
  N12      1.0000 0.29220  0.20780  0.79220  Biso   1.000  N
  N13      1.0000 0.29220  0.29220  0.29220  Biso   1.000  N
  N14      1.0000 0.20780  0.70780  0.79220  Biso   1.000  N
  N15      1.0000 0.79220  0.20780  0.70780  Biso   1.000  N
  N16      1.0000 0.70780  0.79220  0.20780  Biso   1.000  N
  C25      1.0000 0.79500  0.65760  0.73360  Biso   1.000  C
  C26      1.0000 0.70500  0.34240  0.23360  Biso   1.000  C
  C27      1.0000 0.29500  0.84240  0.26640  Biso   1.000  C
  C28      1.0000 0.20500  0.15760  0.76640  Biso   1.000  C
  C29      1.0000 0.73360  0.79500  0.65760  Biso   1.000  C
  C30      1.0000 0.76640  0.20500  0.15760  Biso   1.000  C
  C31      1.0000 0.23360  0.70500  0.34240  Biso   1.000  C
  C32      1.0000 0.26640  0.29500  0.84240  Biso   1.000  C
  C33      1.0000 0.65760  0.73360  0.79500  Biso   1.000  C
  C34      1.0000 0.15760  0.76640  0.20500  Biso   1.000  C
  C35      1.0000 0.34240  0.23360  0.70500  Biso   1.000  C
  C36      1.0000 0.84240  0.26640  0.29500  Biso   1.000  C
  C37      1.0000 0.20500  0.34240  0.26640  Biso   1.000  C
  C38      1.0000 0.29500  0.65760  0.76640  Biso   1.000  C
  C39      1.0000 0.70500  0.15760  0.73360  Biso   1.000  C
  C40      1.0000 0.79500  0.84240  0.23360  Biso   1.000  C
  C41      1.0000 0.26640  0.20500  0.34240  Biso   1.000  C
  C42      1.0000 0.23360  0.79500  0.84240  Biso   1.000  C
  C43      1.0000 0.76640  0.29500  0.65760  Biso   1.000  C
  C44      1.0000 0.73360  0.70500  0.15760  Biso   1.000  C
  C45      1.0000 0.34240  0.26640  0.20500  Biso   1.000  C
  C46      1.0000 0.84240  0.23360  0.79500  Biso   1.000  C
  C47      1.0000 0.65760  0.76640  0.29500  Biso   1.000  C
  C48      1.0000 0.15760  0.73360  0.70500  Biso   1.000  C
  H49      1.0000 0.78040  0.60460  0.77200  Biso   1.000  H
  H50      1.0000 0.71960  0.39540  0.27200  Biso   1.000  H
  H51      1.0000 0.28040  0.89540  0.22800  Biso   1.000  H
  H52      1.0000 0.21960  0.10460  0.72800  Biso   1.000  H
  H53      1.0000 0.77200  0.78040  0.60460  Biso   1.000  H
  H54      1.0000 0.72800  0.21960  0.10460  Biso   1.000  H
  H55      1.0000 0.27200  0.71960  0.39540  Biso   1.000  H
  H56      1.0000 0.22800  0.28040  0.89540  Biso   1.000  H
  H57      1.0000 0.60460  0.77200  0.78040  Biso   1.000  H
  H58      1.0000 0.10460  0.72800  0.21960  Biso   1.000  H
  H59      1.0000 0.39540  0.27200  0.71960  Biso   1.000  H
  H60      1.0000 0.89540  0.22800  0.28040  Biso   1.000  H
  H61      1.0000 0.21960  0.39540  0.22800  Biso   1.000  H
  H62      1.0000 0.28040  0.60460  0.72800  Biso   1.000  H
  H63      1.0000 0.71960  0.10460  0.77200  Biso   1.000  H
  H64      1.0000 0.78040  0.89540  0.27200  Biso   1.000  H
  H65      1.0000 0.22800  0.21960  0.39540  Biso   1.000  H
  H66      1.0000 0.27200  0.78040  0.89540  Biso   1.000  H
  H67      1.0000 0.72800  0.28040  0.60460  Biso   1.000  H
  H68      1.0000 0.77200  0.71960  0.10460  Biso   1.000  H
  H69      1.0000 0.39540  0.22800  0.21960  Biso   1.000  H
  H70      1.0000 0.89540  0.27200  0.78040  Biso   1.000  H
  H71      1.0000 0.60460  0.72800  0.28040  Biso   1.000  H
  H72      1.0000 0.10460  0.77200  0.71960  Biso   1.000  H
  H73      1.0000 0.82610  0.63570  0.67840  Biso   1.000  H
  H74      1.0000 0.67390  0.36430  0.17840  Biso   1.000  H
  H75      1.0000 0.32610  0.86430  0.32160  Biso   1.000  H
  H76      1.0000 0.17390  0.13570  0.82160  Biso   1.000  H
  H77      1.0000 0.67840  0.82610  0.63570  Biso   1.000  H
  H78      1.0000 0.82160  0.17390  0.13570  Biso   1.000  H
  H79      1.0000 0.17840  0.67390  0.36430  Biso   1.000  H
  H80      1.0000 0.32160  0.32610  0.86430  Biso   1.000  H
  H81      1.0000 0.63570  0.67840  0.82610  Biso   1.000  H
  H82      1.0000 0.13570  0.82160  0.17390  Biso   1.000  H
  H83      1.0000 0.36430  0.17840  0.67390  Biso   1.000  H
  H84      1.0000 0.86430  0.32160  0.32610  Biso   1.000  H
  H85      1.0000 0.17390  0.36430  0.32160  Biso   1.000  H
  H86      1.0000 0.32610  0.63570  0.82160  Biso   1.000  H
  H87      1.0000 0.67390  0.13570  0.67840  Biso   1.000  H
  H88      1.0000 0.82610  0.86430  0.17840  Biso   1.000  H
  H89      1.0000 0.32160  0.17390  0.36430  Biso   1.000  H
  H90      1.0000 0.17840  0.82610  0.86430  Biso   1.000  H
  H91      1.0000 0.82160  0.32610  0.63570  Biso   1.000  H
  H92      1.0000 0.67840  0.67390  0.13570  Biso   1.000  H
  H93      1.0000 0.36430  0.32160  0.17390  Biso   1.000  H
  H94      1.0000 0.86430  0.17840  0.82610  Biso   1.000  H
  H95      1.0000 0.63570  0.82160  0.32610  Biso   1.000  H
  H96      1.0000 0.13570  0.67840  0.67390  Biso   1.000  H
  C49      1.0000 0.64850  0.64850  0.64850  Biso   1.000  C
  C50      1.0000 0.85150  0.35150  0.14850  Biso   1.000  C
  C51      1.0000 0.14850  0.85150  0.35150  Biso   1.000  C
  C52      1.0000 0.35150  0.14850  0.85150  Biso   1.000  C
  C53      1.0000 0.35150  0.35150  0.35150  Biso   1.000  C
  C54      1.0000 0.14850  0.64850  0.85150  Biso   1.000  C
  C55      1.0000 0.85150  0.14850  0.64850  Biso   1.000  C
  C56      1.0000 0.64850  0.85150  0.14850  Biso   1.000  C
  H97      1.0000 0.63220  0.59340  0.68170  Biso   1.000  H
  H98      1.0000 0.86780  0.40660  0.18170  Biso   1.000  H
  H99      1.0000 0.13220  0.90660  0.31830  Biso   1.000  H
  H100     1.0000 0.36780  0.09340  0.81830  Biso   1.000  H
  H101     1.0000 0.68170  0.63220  0.59340  Biso   1.000  H
  H102     1.0000 0.81830  0.36780  0.09340  Biso   1.000  H
  H103     1.0000 0.18170  0.86780  0.40660  Biso   1.000  H
  H104     1.0000 0.31830  0.13220  0.90660  Biso   1.000  H
  H105     1.0000 0.59340  0.68170  0.63220  Biso   1.000  H
  H106     1.0000 0.09340  0.81830  0.36780  Biso   1.000  H
  H107     1.0000 0.40660  0.18170  0.86780  Biso   1.000  H
  H108     1.0000 0.90660  0.31830  0.13220  Biso   1.000  H
  H109     1.0000 0.36780  0.40660  0.31830  Biso   1.000  H
  H110     1.0000 0.13220  0.59340  0.81830  Biso   1.000  H
  H111     1.0000 0.86780  0.09340  0.68170  Biso   1.000  H
  H112     1.0000 0.63220  0.90660  0.18170  Biso   1.000  H
  H113     1.0000 0.31830  0.36780  0.40660  Biso   1.000  H
  H114     1.0000 0.18170  0.63220  0.90660  Biso   1.000  H
  H115     1.0000 0.81830  0.13220  0.59340  Biso   1.000  H
  H116     1.0000 0.68170  0.86780  0.09340  Biso   1.000  H
  H117     1.0000 0.40660  0.31830  0.36780  Biso   1.000  H
  H118     1.0000 0.90660  0.18170  0.63220  Biso   1.000  H
  H119     1.0000 0.59340  0.81830  0.13220  Biso   1.000  H
  H120     1.0000 0.09340  0.68170  0.86780  Biso   1.000  H
