data_image0
_cell_length_a       19.0926
_cell_length_b       21.7977
_cell_length_c       15.8053
_cell_angle_alpha    90
_cell_angle_beta     96.393
_cell_angle_gamma    90

_symmetry_space_group_name_H-M    "P 1"
_symmetry_int_tables_number       1

loop_
  _symmetry_equiv_pos_as_xyz
  'x, y, z'

loop_
  _atom_site_label
  _atom_site_occupancy
  _atom_site_fract_x
  _atom_site_fract_y
  _atom_site_fract_z
  _atom_site_thermal_displace_type
  _atom_site_B_iso_or_equiv
  _atom_site_type_symbol
  Si1      1.0000 0.00000  0.17438  0.75000  Biso   1.000  Si
  Si2      1.0000 0.50000  0.67438  0.75000  Biso   1.000  Si
  Si3      1.0000 0.00000  0.82562  0.25000  Biso   1.000  Si
  Si4      1.0000 0.50000  0.32562  0.25000  Biso   1.000  Si
  Mo1      1.0000 0.11970  0.05715  0.82053  Biso   1.000  Mo
  Mo2      1.0000 0.88030  0.05715  0.67947  Biso   1.000  Mo
  Mo3      1.0000 0.61970  0.55715  0.82053  Biso   1.000  Mo
  Mo4      1.0000 0.38030  0.55715  0.67947  Biso   1.000  Mo
  Mo5      1.0000 0.88030  0.94285  0.17947  Biso   1.000  Mo
  Mo6      1.0000 0.11970  0.94285  0.32053  Biso   1.000  Mo
  Mo7      1.0000 0.38030  0.44285  0.17947  Biso   1.000  Mo
  Mo8      1.0000 0.61970  0.44285  0.32053  Biso   1.000  Mo
  Mo9      1.0000 0.07255  0.17940  0.96611  Biso   1.000  Mo
  Mo10     1.0000 0.92745  0.17940  0.53389  Biso   1.000  Mo
  Mo11     1.0000 0.57255  0.67940  0.96611  Biso   1.000  Mo
  Mo12     1.0000 0.42745  0.67940  0.53389  Biso   1.000  Mo
  Mo13     1.0000 0.92745  0.82060  0.03389  Biso   1.000  Mo
  Mo14     1.0000 0.07255  0.82060  0.46611  Biso   1.000  Mo
  Mo15     1.0000 0.42745  0.32060  0.03389  Biso   1.000  Mo
  Mo16     1.0000 0.57255  0.32060  0.46611  Biso   1.000  Mo
  Mo17     1.0000 0.05891  0.06180  0.61249  Biso   1.000  Mo
  Mo18     1.0000 0.94109  0.06180  0.88751  Biso   1.000  Mo
  Mo19     1.0000 0.55891  0.56180  0.61249  Biso   1.000  Mo
  Mo20     1.0000 0.44109  0.56180  0.88751  Biso   1.000  Mo
  Mo21     1.0000 0.94109  0.93820  0.38751  Biso   1.000  Mo
  Mo22     1.0000 0.05891  0.93820  0.11249  Biso   1.000  Mo
  Mo23     1.0000 0.44109  0.43820  0.38751  Biso   1.000  Mo
  Mo24     1.0000 0.55891  0.43820  0.11249  Biso   1.000  Mo
  Mo25     1.0000 0.17532  0.16554  0.69457  Biso   1.000  Mo
  Mo26     1.0000 0.82468  0.16554  0.80543  Biso   1.000  Mo
  Mo27     1.0000 0.67532  0.66554  0.69457  Biso   1.000  Mo
  Mo28     1.0000 0.32468  0.66554  0.80543  Biso   1.000  Mo
  Mo29     1.0000 0.82468  0.83446  0.30543  Biso   1.000  Mo
  Mo30     1.0000 0.17532  0.83446  0.19457  Biso   1.000  Mo
  Mo31     1.0000 0.32468  0.33446  0.30543  Biso   1.000  Mo
  Mo32     1.0000 0.67532  0.33446  0.19457  Biso   1.000  Mo
  Mo33     1.0000 0.95211  0.28480  0.89549  Biso   1.000  Mo
  Mo34     1.0000 0.04789  0.28480  0.60451  Biso   1.000  Mo
  Mo35     1.0000 0.45211  0.78481  0.89549  Biso   1.000  Mo
  Mo36     1.0000 0.54789  0.78481  0.60451  Biso   1.000  Mo
  Mo37     1.0000 0.04789  0.71520  0.10451  Biso   1.000  Mo
  Mo38     1.0000 0.95211  0.71520  0.39549  Biso   1.000  Mo
  Mo39     1.0000 0.54789  0.21520  0.10451  Biso   1.000  Mo
  Mo40     1.0000 0.45211  0.21520  0.39549  Biso   1.000  Mo
  Mo41     1.0000 0.11783  0.28853  0.83322  Biso   1.000  Mo
  Mo42     1.0000 0.88217  0.28853  0.66678  Biso   1.000  Mo
  Mo43     1.0000 0.61783  0.78853  0.83322  Biso   1.000  Mo
  Mo44     1.0000 0.38217  0.78853  0.66678  Biso   1.000  Mo
  Mo45     1.0000 0.88217  0.71147  0.16678  Biso   1.000  Mo
  Mo46     1.0000 0.11783  0.71147  0.33322  Biso   1.000  Mo
  Mo47     1.0000 0.38217  0.21147  0.16678  Biso   1.000  Mo
  Mo48     1.0000 0.61783  0.21147  0.33322  Biso   1.000  Mo
  Cu1      1.0000 0.92349  0.35843  0.09505  Biso   1.000  Cu
  Cu2      1.0000 0.07651  0.35843  0.40495  Biso   1.000  Cu
  Cu3      1.0000 0.42349  0.85843  0.09505  Biso   1.000  Cu
  Cu4      1.0000 0.57651  0.85843  0.40495  Biso   1.000  Cu
  Cu5      1.0000 0.07651  0.64157  0.90495  Biso   1.000  Cu
  Cu6      1.0000 0.92349  0.64157  0.59505  Biso   1.000  Cu
  Cu7      1.0000 0.57651  0.14157  0.90495  Biso   1.000  Cu
  Cu8      1.0000 0.42349  0.14157  0.59505  Biso   1.000  Cu
  Cu9      1.0000 0.00000  0.26327  0.25000  Biso   1.000  Cu
  Cu10     1.0000 0.50000  0.76327  0.25000  Biso   1.000  Cu
  Cu11     1.0000 0.00000  0.73673  0.75000  Biso   1.000  Cu
  Cu12     1.0000 0.50000  0.23673  0.75000  Biso   1.000  Cu
  S1       1.0000 0.07933  0.43777  0.00646  Biso   1.000  S
  S2       1.0000 0.92067  0.43777  0.49354  Biso   1.000  S
  S3       1.0000 0.57933  0.93777  0.00646  Biso   1.000  S
  S4       1.0000 0.42067  0.93777  0.49354  Biso   1.000  S
  S5       1.0000 0.92067  0.56223  0.99354  Biso   1.000  S
  S6       1.0000 0.07933  0.56223  0.50646  Biso   1.000  S
  S7       1.0000 0.42067  0.06223  0.99354  Biso   1.000  S
  S8       1.0000 0.57933  0.06223  0.50646  Biso   1.000  S
  O1       1.0000 0.04076  0.33134  0.88109  Biso   1.000  O
  O2       1.0000 0.95924  0.33134  0.61891  Biso   1.000  O
  O3       1.0000 0.54076  0.83134  0.88109  Biso   1.000  O
  O4       1.0000 0.45924  0.83134  0.61891  Biso   1.000  O
  O5       1.0000 0.95924  0.66866  0.11891  Biso   1.000  O
  O6       1.0000 0.04076  0.66866  0.38109  Biso   1.000  O
  O7       1.0000 0.45924  0.16866  0.11891  Biso   1.000  O
  O8       1.0000 0.54076  0.16866  0.38109  Biso   1.000  O
  O9       1.0000 0.50000  0.07110  0.25000  Biso   1.000  O
  O10      1.0000 0.00000  0.57110  0.25000  Biso   1.000  O
  O11      1.0000 0.50000  0.92890  0.75000  Biso   1.000  O
  O12      1.0000 0.00000  0.42890  0.75000  Biso   1.000  O
  O13      1.0000 0.11991  0.12288  0.90356  Biso   1.000  O
  O14      1.0000 0.88009  0.12288  0.59644  Biso   1.000  O
  O15      1.0000 0.61991  0.62288  0.90356  Biso   1.000  O
  O16      1.0000 0.38009  0.62288  0.59644  Biso   1.000  O
  O17      1.0000 0.88009  0.87712  0.09644  Biso   1.000  O
  O18      1.0000 0.11991  0.87712  0.40356  Biso   1.000  O
  O19      1.0000 0.38009  0.37712  0.09644  Biso   1.000  O
  O20      1.0000 0.61991  0.37712  0.40356  Biso   1.000  O
  O21      1.0000 0.10489  0.01813  0.71351  Biso   1.000  O
  O22      1.0000 0.89511  0.01813  0.78649  Biso   1.000  O
  O23      1.0000 0.60489  0.51813  0.71351  Biso   1.000  O
  O24      1.0000 0.39511  0.51813  0.78649  Biso   1.000  O
  O25      1.0000 0.89511  0.98187  0.28649  Biso   1.000  O
  O26      1.0000 0.10489  0.98187  0.21351  Biso   1.000  O
  O27      1.0000 0.39511  0.48187  0.28649  Biso   1.000  O
  O28      1.0000 0.60489  0.48187  0.21351  Biso   1.000  O
  O29      1.0000 0.16657  0.22547  0.78070  Biso   1.000  O
  O30      1.0000 0.83343  0.22547  0.71930  Biso   1.000  O
  O31      1.0000 0.66657  0.72547  0.78070  Biso   1.000  O
  O32      1.0000 0.33343  0.72547  0.71930  Biso   1.000  O
  O33      1.0000 0.83343  0.77453  0.21930  Biso   1.000  O
  O34      1.0000 0.16657  0.77453  0.28070  Biso   1.000  O
  O35      1.0000 0.33343  0.27453  0.21930  Biso   1.000  O
  O36      1.0000 0.66657  0.27453  0.28070  Biso   1.000  O
  O37      1.0000 0.00672  0.12290  0.54917  Biso   1.000  O
  O38      1.0000 0.99328  0.12290  0.95083  Biso   1.000  O
  O39      1.0000 0.50672  0.62290  0.54917  Biso   1.000  O
  O40      1.0000 0.49328  0.62290  0.95083  Biso   1.000  O
  O41      1.0000 0.99328  0.87710  0.45083  Biso   1.000  O
  O42      1.0000 0.00672  0.87710  0.04917  Biso   1.000  O
  O43      1.0000 0.49328  0.37710  0.45083  Biso   1.000  O
  O44      1.0000 0.50672  0.37710  0.04917  Biso   1.000  O
  O45      1.0000 0.07674  0.30997  0.72189  Biso   1.000  O
  O46      1.0000 0.92326  0.30997  0.77811  Biso   1.000  O
  O47      1.0000 0.57674  0.80997  0.72189  Biso   1.000  O
  O48      1.0000 0.42326  0.80997  0.77811  Biso   1.000  O
  O49      1.0000 0.92326  0.69003  0.27811  Biso   1.000  O
  O50      1.0000 0.07674  0.69003  0.22189  Biso   1.000  O
  O51      1.0000 0.42326  0.19003  0.27811  Biso   1.000  O
  O52      1.0000 0.57674  0.19003  0.22189  Biso   1.000  O
  O53      1.0000 0.06508  0.13110  0.72759  Biso   1.000  O
  O54      1.0000 0.93492  0.13110  0.77241  Biso   1.000  O
  O55      1.0000 0.56508  0.63110  0.72759  Biso   1.000  O
  O56      1.0000 0.43492  0.63110  0.77241  Biso   1.000  O
  O57      1.0000 0.93492  0.86890  0.27241  Biso   1.000  O
  O58      1.0000 0.06508  0.86890  0.22759  Biso   1.000  O
  O59      1.0000 0.43492  0.36890  0.27241  Biso   1.000  O
  O60      1.0000 0.56508  0.36890  0.22759  Biso   1.000  O
  O61      1.0000 0.06919  0.00750  0.54017  Biso   1.000  O
  O62      1.0000 0.93081  0.00750  0.95983  Biso   1.000  O
  O63      1.0000 0.56919  0.50750  0.54017  Biso   1.000  O
  O64      1.0000 0.43081  0.50750  0.95983  Biso   1.000  O
  O65      1.0000 0.93081  0.99250  0.45983  Biso   1.000  O
  O66      1.0000 0.06919  0.99250  0.04017  Biso   1.000  O
  O67      1.0000 0.43081  0.49250  0.45983  Biso   1.000  O
  O68      1.0000 0.56919  0.49250  0.04017  Biso   1.000  O
  O69      1.0000 0.91405  0.34114  0.94942  Biso   1.000  O
  O70      1.0000 0.08595  0.34114  0.55058  Biso   1.000  O
  O71      1.0000 0.41405  0.84114  0.94942  Biso   1.000  O
  O72      1.0000 0.58595  0.84114  0.55058  Biso   1.000  O
  O73      1.0000 0.08595  0.65886  0.05058  Biso   1.000  O
  O74      1.0000 0.91405  0.65886  0.44942  Biso   1.000  O
  O75      1.0000 0.58595  0.15886  0.05058  Biso   1.000  O
  O76      1.0000 0.41405  0.15886  0.44942  Biso   1.000  O
  O77      1.0000 0.13371  0.24455  0.93968  Biso   1.000  O
  O78      1.0000 0.86629  0.24455  0.56032  Biso   1.000  O
  O79      1.0000 0.63371  0.74455  0.93968  Biso   1.000  O
  O80      1.0000 0.36629  0.74455  0.56032  Biso   1.000  O
  O81      1.0000 0.86629  0.75545  0.06032  Biso   1.000  O
  O82      1.0000 0.13371  0.75545  0.43968  Biso   1.000  O
  O83      1.0000 0.36629  0.25545  0.06032  Biso   1.000  O
  O84      1.0000 0.63371  0.25545  0.43968  Biso   1.000  O
  O85      1.0000 0.17984  0.34281  0.85231  Biso   1.000  O
  O86      1.0000 0.82016  0.34281  0.64769  Biso   1.000  O
  O87      1.0000 0.67984  0.84281  0.85231  Biso   1.000  O
  O88      1.0000 0.32016  0.84281  0.64769  Biso   1.000  O
  O89      1.0000 0.82016  0.65719  0.14769  Biso   1.000  O
  O90      1.0000 0.17984  0.65719  0.35231  Biso   1.000  O
  O91      1.0000 0.32016  0.15719  0.14769  Biso   1.000  O
  O92      1.0000 0.67984  0.15719  0.35231  Biso   1.000  O
  O93      1.0000 0.19685  0.10339  0.77426  Biso   1.000  O
  O94      1.0000 0.80315  0.10339  0.72574  Biso   1.000  O
  O95      1.0000 0.69685  0.60339  0.77426  Biso   1.000  O
  O96      1.0000 0.30315  0.60339  0.72574  Biso   1.000  O
  O97      1.0000 0.80315  0.89661  0.22574  Biso   1.000  O
  O98      1.0000 0.19685  0.89661  0.27426  Biso   1.000  O
  O99      1.0000 0.30315  0.39661  0.22574  Biso   1.000  O
  O100     1.0000 0.69685  0.39661  0.27426  Biso   1.000  O
  O101     1.0000 0.11688  0.22532  0.62119  Biso   1.000  O
  O102     1.0000 0.88312  0.22532  0.87881  Biso   1.000  O
  O103     1.0000 0.61688  0.72532  0.62119  Biso   1.000  O
  O104     1.0000 0.38312  0.72532  0.87881  Biso   1.000  O
  O105     1.0000 0.88312  0.77468  0.37881  Biso   1.000  O
  O106     1.0000 0.11688  0.77468  0.12119  Biso   1.000  O
  O107     1.0000 0.38312  0.27468  0.37881  Biso   1.000  O
  O108     1.0000 0.61688  0.27468  0.12119  Biso   1.000  O
  O109     1.0000 0.02549  0.21763  0.83147  Biso   1.000  O
  O110     1.0000 0.97451  0.21763  0.66853  Biso   1.000  O
  O111     1.0000 0.52549  0.71763  0.83147  Biso   1.000  O
  O112     1.0000 0.47451  0.71763  0.66853  Biso   1.000  O
  O113     1.0000 0.97451  0.78237  0.16853  Biso   1.000  O
  O114     1.0000 0.02549  0.78237  0.33147  Biso   1.000  O
  O115     1.0000 0.47451  0.28237  0.16853  Biso   1.000  O
  O116     1.0000 0.52549  0.28237  0.33147  Biso   1.000  O
  O117     1.0000 0.00355  0.24330  0.98637  Biso   1.000  O
  O118     1.0000 0.99645  0.24330  0.51363  Biso   1.000  O
  O119     1.0000 0.50355  0.74330  0.98637  Biso   1.000  O
  O120     1.0000 0.49645  0.74330  0.51363  Biso   1.000  O
  O121     1.0000 0.99645  0.75670  0.01363  Biso   1.000  O
  O122     1.0000 0.00355  0.75670  0.48637  Biso   1.000  O
  O123     1.0000 0.49645  0.25670  0.01363  Biso   1.000  O
  O124     1.0000 0.50355  0.25670  0.48637  Biso   1.000  O
  O125     1.0000 0.02955  0.03823  0.84759  Biso   1.000  O
  O126     1.0000 0.97045  0.03823  0.65241  Biso   1.000  O
  O127     1.0000 0.52955  0.53823  0.84759  Biso   1.000  O
  O128     1.0000 0.47045  0.53823  0.65241  Biso   1.000  O
  O129     1.0000 0.97045  0.96177  0.15241  Biso   1.000  O
  O130     1.0000 0.02955  0.96177  0.34759  Biso   1.000  O
  O131     1.0000 0.47045  0.46177  0.15241  Biso   1.000  O
  O132     1.0000 0.52955  0.46177  0.34759  Biso   1.000  O
  O133     1.0000 0.17083  0.00642  0.87866  Biso   1.000  O
  O134     1.0000 0.82917  0.00642  0.62134  Biso   1.000  O
  O135     1.0000 0.67083  0.50642  0.87866  Biso   1.000  O
  O136     1.0000 0.32917  0.50642  0.62134  Biso   1.000  O
  O137     1.0000 0.82917  0.99358  0.12134  Biso   1.000  O
  O138     1.0000 0.17083  0.99358  0.37866  Biso   1.000  O
  O139     1.0000 0.32917  0.49358  0.12134  Biso   1.000  O
  O140     1.0000 0.67083  0.49358  0.37866  Biso   1.000  O
  O141     1.0000 0.10581  0.16416  0.06633  Biso   1.000  O
  O142     1.0000 0.89419  0.16416  0.43367  Biso   1.000  O
  O143     1.0000 0.60581  0.66416  0.06633  Biso   1.000  O
  O144     1.0000 0.39419  0.66416  0.43367  Biso   1.000  O
  O145     1.0000 0.89419  0.83584  0.93367  Biso   1.000  O
  O146     1.0000 0.10581  0.83584  0.56633  Biso   1.000  O
  O147     1.0000 0.39419  0.33584  0.93367  Biso   1.000  O
  O148     1.0000 0.60581  0.33584  0.56633  Biso   1.000  O
  O149     1.0000 0.14524  0.10536  0.60862  Biso   1.000  O
  O150     1.0000 0.85476  0.10536  0.89138  Biso   1.000  O
  O151     1.0000 0.64524  0.60536  0.60862  Biso   1.000  O
  O152     1.0000 0.35476  0.60536  0.89138  Biso   1.000  O
  O153     1.0000 0.85476  0.89464  0.39138  Biso   1.000  O
  O154     1.0000 0.14524  0.89464  0.10862  Biso   1.000  O
  O155     1.0000 0.35476  0.39464  0.39138  Biso   1.000  O
  O156     1.0000 0.64524  0.39464  0.10862  Biso   1.000  O
  O157     1.0000 0.25533  0.18177  0.66713  Biso   1.000  O
  O158     1.0000 0.74467  0.18177  0.83287  Biso   1.000  O
  O159     1.0000 0.75533  0.68177  0.66713  Biso   1.000  O
  O160     1.0000 0.24467  0.68177  0.83287  Biso   1.000  O
  O161     1.0000 0.74467  0.81823  0.33287  Biso   1.000  O
  O162     1.0000 0.25533  0.81823  0.16713  Biso   1.000  O
  O163     1.0000 0.24467  0.31823  0.33287  Biso   1.000  O
  O164     1.0000 0.75533  0.31823  0.16713  Biso   1.000  O
  N1       1.0000 0.02991  0.35547  0.11570  Biso   1.000  N
  N2       1.0000 0.97009  0.35547  0.38430  Biso   1.000  N
  N3       1.0000 0.52991  0.85547  0.11570  Biso   1.000  N
  N4       1.0000 0.47009  0.85547  0.38430  Biso   1.000  N
  N5       1.0000 0.97009  0.64453  0.88430  Biso   1.000  N
  N6       1.0000 0.02991  0.64453  0.61570  Biso   1.000  N
  N7       1.0000 0.47009  0.14453  0.88430  Biso   1.000  N
  N8       1.0000 0.52991  0.14453  0.61570  Biso   1.000  N
  N9       1.0000 0.05703  0.30934  0.16710  Biso   1.000  N
  N10      1.0000 0.94297  0.30934  0.33290  Biso   1.000  N
  N11      1.0000 0.55703  0.80934  0.16710  Biso   1.000  N
  N12      1.0000 0.44297  0.80934  0.33290  Biso   1.000  N
  N13      1.0000 0.94297  0.69066  0.83290  Biso   1.000  N
  N14      1.0000 0.05703  0.69066  0.66710  Biso   1.000  N
  N15      1.0000 0.44297  0.19066  0.83290  Biso   1.000  N
  N16      1.0000 0.55703  0.19066  0.66710  Biso   1.000  N
  N17      1.0000 0.12212  0.29841  0.15610  Biso   1.000  N
  N18      1.0000 0.87788  0.29841  0.34390  Biso   1.000  N
  N19      1.0000 0.62212  0.79841  0.15610  Biso   1.000  N
  N20      1.0000 0.37788  0.79841  0.34390  Biso   1.000  N
  N21      1.0000 0.87788  0.70159  0.84390  Biso   1.000  N
  N22      1.0000 0.12212  0.70159  0.65610  Biso   1.000  N
  N23      1.0000 0.37788  0.20159  0.84390  Biso   1.000  N
  N24      1.0000 0.62212  0.20159  0.65610  Biso   1.000  N
  N25      1.0000 0.13837  0.33852  0.09720  Biso   1.000  N
  N26      1.0000 0.86163  0.33852  0.40280  Biso   1.000  N
  N27      1.0000 0.63837  0.83852  0.09720  Biso   1.000  N
  N28      1.0000 0.36163  0.83852  0.40280  Biso   1.000  N
  N29      1.0000 0.86163  0.66148  0.90280  Biso   1.000  N
  N30      1.0000 0.13837  0.66148  0.59720  Biso   1.000  N
  N31      1.0000 0.36163  0.16148  0.90280  Biso   1.000  N
  N32      1.0000 0.63837  0.16148  0.59720  Biso   1.000  N
  N33      1.0000 0.87849  0.45608  0.20060  Biso   1.000  N
  N34      1.0000 0.12151  0.45608  0.29940  Biso   1.000  N
  N35      1.0000 0.37849  0.95608  0.20060  Biso   1.000  N
  N36      1.0000 0.62151  0.95608  0.29940  Biso   1.000  N
  N37      1.0000 0.12151  0.54392  0.79940  Biso   1.000  N
  N38      1.0000 0.87849  0.54392  0.70060  Biso   1.000  N
  N39      1.0000 0.62151  0.04392  0.79940  Biso   1.000  N
  N40      1.0000 0.37849  0.04392  0.70060  Biso   1.000  N
  N41      1.0000 0.86744  0.42897  0.12330  Biso   1.000  N
  N42      1.0000 0.13256  0.42897  0.37670  Biso   1.000  N
  N43      1.0000 0.36744  0.92897  0.12330  Biso   1.000  N
  N44      1.0000 0.63256  0.92897  0.37670  Biso   1.000  N
  N45      1.0000 0.13256  0.57103  0.87670  Biso   1.000  N
  N46      1.0000 0.86744  0.57103  0.62330  Biso   1.000  N
  N47      1.0000 0.63256  0.07103  0.87670  Biso   1.000  N
  N48      1.0000 0.36744  0.07103  0.62330  Biso   1.000  N
  N49      1.0000 0.81508  0.45377  0.07510  Biso   1.000  N
  N50      1.0000 0.18492  0.45377  0.42490  Biso   1.000  N
  N51      1.0000 0.31508  0.95377  0.07510  Biso   1.000  N
  N52      1.0000 0.68492  0.95377  0.42490  Biso   1.000  N
  N53      1.0000 0.18492  0.54623  0.92490  Biso   1.000  N
  N54      1.0000 0.81508  0.54623  0.57510  Biso   1.000  N
  N55      1.0000 0.68492  0.04623  0.92490  Biso   1.000  N
  N56      1.0000 0.31508  0.04623  0.57510  Biso   1.000  N
  N57      1.0000 0.79073  0.49842  0.12360  Biso   1.000  N
  N58      1.0000 0.20927  0.49842  0.37640  Biso   1.000  N
  N59      1.0000 0.29073  0.99842  0.12360  Biso   1.000  N
  N60      1.0000 0.70927  0.99842  0.37640  Biso   1.000  N
  N61      1.0000 0.20927  0.50158  0.87640  Biso   1.000  N
  N62      1.0000 0.79073  0.50158  0.62360  Biso   1.000  N
  N63      1.0000 0.70927  0.00158  0.87640  Biso   1.000  N
  N64      1.0000 0.29073  0.00158  0.62360  Biso   1.000  N
  N65      1.0000 0.91902  0.23059  0.16997  Biso   1.000  N
  N66      1.0000 0.08098  0.23059  0.33003  Biso   1.000  N
  N67      1.0000 0.41902  0.73059  0.16997  Biso   1.000  N
  N68      1.0000 0.58098  0.73059  0.33003  Biso   1.000  N
  N69      1.0000 0.08098  0.76941  0.83003  Biso   1.000  N
  N70      1.0000 0.91902  0.76941  0.66997  Biso   1.000  N
  N71      1.0000 0.58098  0.26941  0.83003  Biso   1.000  N
  N72      1.0000 0.41902  0.26941  0.66997  Biso   1.000  N
  N73      1.0000 0.89073  0.27023  0.10780  Biso   1.000  N
  N74      1.0000 0.10927  0.27023  0.39220  Biso   1.000  N
  N75      1.0000 0.39073  0.77023  0.10780  Biso   1.000  N
  N76      1.0000 0.60927  0.77023  0.39220  Biso   1.000  N
  N77      1.0000 0.10927  0.72977  0.89220  Biso   1.000  N
  N78      1.0000 0.89073  0.72977  0.60780  Biso   1.000  N
  N79      1.0000 0.60927  0.22977  0.89220  Biso   1.000  N
  N80      1.0000 0.39073  0.22977  0.60780  Biso   1.000  N
  N81      1.0000 0.83687  0.24680  0.06350  Biso   1.000  N
  N82      1.0000 0.16313  0.24680  0.43650  Biso   1.000  N
  N83      1.0000 0.33687  0.74680  0.06350  Biso   1.000  N
  N84      1.0000 0.66313  0.74680  0.43650  Biso   1.000  N
  N85      1.0000 0.16313  0.75320  0.93650  Biso   1.000  N
  N86      1.0000 0.83687  0.75320  0.56350  Biso   1.000  N
  N87      1.0000 0.66313  0.25320  0.93650  Biso   1.000  N
  N88      1.0000 0.33687  0.25320  0.56350  Biso   1.000  N
  N89      1.0000 0.82939  0.19029  0.09560  Biso   1.000  N
  N90      1.0000 0.17061  0.19029  0.40440  Biso   1.000  N
  N91      1.0000 0.32939  0.69029  0.09560  Biso   1.000  N
  N92      1.0000 0.67061  0.69029  0.40440  Biso   1.000  N
  N93      1.0000 0.17061  0.80971  0.90440  Biso   1.000  N
  N94      1.0000 0.82939  0.80971  0.59560  Biso   1.000  N
  N95      1.0000 0.67061  0.30971  0.90440  Biso   1.000  N
  N96      1.0000 0.32939  0.30971  0.59560  Biso   1.000  N
  C1       1.0000 0.08210  0.37396  0.07350  Biso   1.000  C
  C2       1.0000 0.91790  0.37396  0.42650  Biso   1.000  C
  C3       1.0000 0.58210  0.87396  0.07350  Biso   1.000  C
  C4       1.0000 0.41790  0.87396  0.42650  Biso   1.000  C
  C5       1.0000 0.91790  0.62604  0.92650  Biso   1.000  C
  C6       1.0000 0.08210  0.62604  0.57350  Biso   1.000  C
  C7       1.0000 0.41790  0.12604  0.92650  Biso   1.000  C
  C8       1.0000 0.58210  0.12604  0.57350  Biso   1.000  C
  C9       1.0000 0.09190  0.49529  0.09100  Biso   1.000  C
  C10      1.0000 0.90810  0.49529  0.40900  Biso   1.000  C
  C11      1.0000 0.59190  0.99529  0.09100  Biso   1.000  C
  C12      1.0000 0.40810  0.99529  0.40900  Biso   1.000  C
  C13      1.0000 0.90810  0.50471  0.90900  Biso   1.000  C
  C14      1.0000 0.09190  0.50471  0.59100  Biso   1.000  C
  C15      1.0000 0.40810  0.00471  0.90900  Biso   1.000  C
  C16      1.0000 0.59190  0.00471  0.59100  Biso   1.000  C
  H1       1.0000 0.07810  0.53530  0.06790  Biso   1.000  H
  H2       1.0000 0.92190  0.53530  0.43210  Biso   1.000  H
  H3       1.0000 0.57810  0.03530  0.06790  Biso   1.000  H
  H4       1.0000 0.42190  0.03530  0.43210  Biso   1.000  H
  H5       1.0000 0.92190  0.46470  0.93210  Biso   1.000  H
  H6       1.0000 0.07810  0.46470  0.56790  Biso   1.000  H
  H7       1.0000 0.42190  0.96470  0.93210  Biso   1.000  H
  H8       1.0000 0.57810  0.96470  0.56790  Biso   1.000  H
  H9       1.0000 0.06190  0.48550  0.13490  Biso   1.000  H
  H10      1.0000 0.93810  0.48550  0.36510  Biso   1.000  H
  H11      1.0000 0.56190  0.98550  0.13490  Biso   1.000  H
  H12      1.0000 0.43810  0.98550  0.36510  Biso   1.000  H
  H13      1.0000 0.93810  0.51450  0.86510  Biso   1.000  H
  H14      1.0000 0.06190  0.51450  0.63490  Biso   1.000  H
  H15      1.0000 0.43810  0.01450  0.86510  Biso   1.000  H
  H16      1.0000 0.56190  0.01450  0.63490  Biso   1.000  H
  C17      1.0000 0.16790  0.49749  0.12990  Biso   1.000  C
  C18      1.0000 0.83210  0.49749  0.37010  Biso   1.000  C
  C19      1.0000 0.66790  0.99749  0.12990  Biso   1.000  C
  C20      1.0000 0.33210  0.99749  0.37010  Biso   1.000  C
  C21      1.0000 0.83210  0.50251  0.87010  Biso   1.000  C
  C22      1.0000 0.16790  0.50251  0.62990  Biso   1.000  C
  C23      1.0000 0.33210  0.00251  0.87010  Biso   1.000  C
  C24      1.0000 0.66790  0.00251  0.62990  Biso   1.000  C
  H17      1.0000 0.19710  0.50950  0.08630  Biso   1.000  H
  H18      1.0000 0.80290  0.50950  0.41370  Biso   1.000  H
  H19      1.0000 0.69710  0.00950  0.08630  Biso   1.000  H
  H20      1.0000 0.30290  0.00950  0.41370  Biso   1.000  H
  H21      1.0000 0.80290  0.49050  0.91370  Biso   1.000  H
  H22      1.0000 0.19710  0.49050  0.58630  Biso   1.000  H
  H23      1.0000 0.30290  0.99050  0.91370  Biso   1.000  H
  H24      1.0000 0.69710  0.99050  0.58630  Biso   1.000  H
  H25      1.0000 0.18220  0.45660  0.14890  Biso   1.000  H
  H26      1.0000 0.81780  0.45660  0.35110  Biso   1.000  H
  H27      1.0000 0.68220  0.95660  0.14890  Biso   1.000  H
  H28      1.0000 0.31780  0.95660  0.35110  Biso   1.000  H
  H29      1.0000 0.81780  0.54340  0.85110  Biso   1.000  H
  H30      1.0000 0.18220  0.54340  0.64890  Biso   1.000  H
  H31      1.0000 0.31780  0.04340  0.85110  Biso   1.000  H
  H32      1.0000 0.68220  0.04340  0.64890  Biso   1.000  H
  C25      1.0000 0.82990  0.49944  0.19890  Biso   1.000  C
  C26      1.0000 0.17010  0.49944  0.30110  Biso   1.000  C
  C27      1.0000 0.32990  0.99944  0.19890  Biso   1.000  C
  C28      1.0000 0.67010  0.99944  0.30110  Biso   1.000  C
  C29      1.0000 0.17010  0.50056  0.80110  Biso   1.000  C
  C30      1.0000 0.82990  0.50056  0.69890  Biso   1.000  C
  C31      1.0000 0.67010  0.00056  0.80110  Biso   1.000  C
  C32      1.0000 0.32990  0.00056  0.69890  Biso   1.000  C
  C33      1.0000 0.20860  0.33660  0.06810  Biso   1.000  C
  C34      1.0000 0.79140  0.33660  0.43190  Biso   1.000  C
  C35      1.0000 0.70860  0.83660  0.06810  Biso   1.000  C
  C36      1.0000 0.29140  0.83660  0.43190  Biso   1.000  C
  C37      1.0000 0.79140  0.66340  0.93190  Biso   1.000  C
  C38      1.0000 0.20860  0.66340  0.56810  Biso   1.000  C
  C39      1.0000 0.29140  0.16340  0.93190  Biso   1.000  C
  C40      1.0000 0.70860  0.16340  0.56810  Biso   1.000  C
  H33      1.0000 0.23640  0.30540  0.09880  Biso   1.000  H
  H34      1.0000 0.76360  0.30540  0.40120  Biso   1.000  H
  H35      1.0000 0.73640  0.80540  0.09880  Biso   1.000  H
  H36      1.0000 0.26360  0.80540  0.40120  Biso   1.000  H
  H37      1.0000 0.76360  0.69460  0.90120  Biso   1.000  H
  H38      1.0000 0.23640  0.69460  0.59880  Biso   1.000  H
  H39      1.0000 0.26360  0.19460  0.90120  Biso   1.000  H
  H40      1.0000 0.73640  0.19460  0.59880  Biso   1.000  H
  H41      1.0000 0.23120  0.37570  0.07800  Biso   1.000  H
  H42      1.0000 0.76880  0.37570  0.42200  Biso   1.000  H
  H43      1.0000 0.73120  0.87570  0.07800  Biso   1.000  H
  H44      1.0000 0.26880  0.87570  0.42200  Biso   1.000  H
  H45      1.0000 0.76880  0.62430  0.92200  Biso   1.000  H
  H46      1.0000 0.23120  0.62430  0.57800  Biso   1.000  H
  H47      1.0000 0.26880  0.12430  0.92200  Biso   1.000  H
  H48      1.0000 0.73120  0.12430  0.57800  Biso   1.000  H
  H49      1.0000 0.20430  0.32750  0.00830  Biso   1.000  H
  H50      1.0000 0.79570  0.32750  0.49170  Biso   1.000  H
  H51      1.0000 0.70430  0.82750  0.00830  Biso   1.000  H
  H52      1.0000 0.29570  0.82750  0.49170  Biso   1.000  H
  H53      1.0000 0.79570  0.67250  0.99170  Biso   1.000  H
  H54      1.0000 0.20430  0.67250  0.50830  Biso   1.000  H
  H55      1.0000 0.29570  0.17250  0.99170  Biso   1.000  H
  H56      1.0000 0.70430  0.17250  0.50830  Biso   1.000  H
  C41      1.0000 0.72980  0.53589  0.09150  Biso   1.000  C
  C42      1.0000 0.27020  0.53589  0.40850  Biso   1.000  C
  C43      1.0000 0.22980  0.03589  0.09150  Biso   1.000  C
  C44      1.0000 0.77020  0.03589  0.40850  Biso   1.000  C
  C45      1.0000 0.27020  0.46411  0.90850  Biso   1.000  C
  C46      1.0000 0.72980  0.46411  0.59150  Biso   1.000  C
  C47      1.0000 0.77020  0.96411  0.90850  Biso   1.000  C
  C48      1.0000 0.22980  0.96411  0.59150  Biso   1.000  C
  H57      1.0000 0.72010  0.56500  0.13430  Biso   1.000  H
  H58      1.0000 0.27990  0.56500  0.36570  Biso   1.000  H
  H59      1.0000 0.22010  0.06500  0.13430  Biso   1.000  H
  H60      1.0000 0.77990  0.06500  0.36570  Biso   1.000  H
  H61      1.0000 0.27990  0.43500  0.86570  Biso   1.000  H
  H62      1.0000 0.72010  0.43500  0.63430  Biso   1.000  H
  H63      1.0000 0.77990  0.93500  0.86570  Biso   1.000  H
  H64      1.0000 0.22010  0.93500  0.63430  Biso   1.000  H
  H65      1.0000 0.68950  0.50990  0.07810  Biso   1.000  H
  H66      1.0000 0.31050  0.50990  0.42190  Biso   1.000  H
  H67      1.0000 0.18950  0.00990  0.07810  Biso   1.000  H
  H68      1.0000 0.81050  0.00990  0.42190  Biso   1.000  H
  H69      1.0000 0.31050  0.49010  0.92190  Biso   1.000  H
  H70      1.0000 0.68950  0.49010  0.57810  Biso   1.000  H
  H71      1.0000 0.81050  0.99010  0.92190  Biso   1.000  H
  H72      1.0000 0.18950  0.99010  0.57810  Biso   1.000  H
  H73      1.0000 0.73990  0.55730  0.04120  Biso   1.000  H
  H74      1.0000 0.26010  0.55730  0.45880  Biso   1.000  H
  H75      1.0000 0.23990  0.05730  0.04120  Biso   1.000  H
  H76      1.0000 0.76010  0.05730  0.45880  Biso   1.000  H
  H77      1.0000 0.26010  0.44270  0.95880  Biso   1.000  H
  H78      1.0000 0.73990  0.44270  0.54120  Biso   1.000  H
  H79      1.0000 0.76010  0.94270  0.95880  Biso   1.000  H
  H80      1.0000 0.23990  0.94270  0.54120  Biso   1.000  H
  C49      1.0000 0.87960  0.18052  0.16100  Biso   1.000  C
  C50      1.0000 0.12040  0.18052  0.33900  Biso   1.000  C
  C51      1.0000 0.37960  0.68052  0.16100  Biso   1.000  C
  C52      1.0000 0.62040  0.68052  0.33900  Biso   1.000  C
  C53      1.0000 0.12040  0.81948  0.83900  Biso   1.000  C
  C54      1.0000 0.87960  0.81948  0.66100  Biso   1.000  C
  C55      1.0000 0.62040  0.31948  0.83900  Biso   1.000  C
  C56      1.0000 0.37960  0.31948  0.66100  Biso   1.000  C
  C57      1.0000 0.97070  0.11864  0.27770  Biso   1.000  C
  C58      1.0000 0.02930  0.11864  0.22230  Biso   1.000  C
  C59      1.0000 0.47070  0.61864  0.27770  Biso   1.000  C
  C60      1.0000 0.52930  0.61864  0.22230  Biso   1.000  C
  C61      1.0000 0.02930  0.88136  0.72230  Biso   1.000  C
  C62      1.0000 0.97070  0.88136  0.77770  Biso   1.000  C
  C63      1.0000 0.52930  0.38136  0.72230  Biso   1.000  C
  C64      1.0000 0.47070  0.38136  0.77770  Biso   1.000  C
  H81      1.0000 0.97310  0.15610  0.31100  Biso   1.000  H
  H82      1.0000 0.02690  0.15610  0.18900  Biso   1.000  H
  H83      1.0000 0.47310  0.65610  0.31100  Biso   1.000  H
  H84      1.0000 0.52690  0.65610  0.18900  Biso   1.000  H
  H85      1.0000 0.02690  0.84390  0.68900  Biso   1.000  H
  H86      1.0000 0.97310  0.84390  0.81100  Biso   1.000  H
  H87      1.0000 0.52690  0.34390  0.68900  Biso   1.000  H
  H88      1.0000 0.47310  0.34390  0.81100  Biso   1.000  H
  H89      1.0000 0.97720  0.08440  0.31710  Biso   1.000  H
  H90      1.0000 0.02280  0.08440  0.18290  Biso   1.000  H
  H91      1.0000 0.47720  0.58440  0.31710  Biso   1.000  H
  H92      1.0000 0.52280  0.58440  0.18290  Biso   1.000  H
  H93      1.0000 0.02280  0.91560  0.68290  Biso   1.000  H
  H94      1.0000 0.97720  0.91560  0.81710  Biso   1.000  H
  H95      1.0000 0.52280  0.41560  0.68290  Biso   1.000  H
  H96      1.0000 0.47720  0.41560  0.81710  Biso   1.000  H
  C65      1.0000 0.77230  0.14950  0.06070  Biso   1.000  C
  C66      1.0000 0.22770  0.14950  0.43930  Biso   1.000  C
  C67      1.0000 0.27230  0.64950  0.06070  Biso   1.000  C
  C68      1.0000 0.72770  0.64950  0.43930  Biso   1.000  C
  C69      1.0000 0.22770  0.85050  0.93930  Biso   1.000  C
  C70      1.0000 0.77230  0.85050  0.56070  Biso   1.000  C
  C71      1.0000 0.72770  0.35050  0.93930  Biso   1.000  C
  C72      1.0000 0.27230  0.35050  0.56070  Biso   1.000  C
  H97      1.0000 0.77520  0.11150  0.09160  Biso   1.000  H
  H98      1.0000 0.22480  0.11150  0.40840  Biso   1.000  H
  H99      1.0000 0.27520  0.61150  0.09160  Biso   1.000  H
  H100     1.0000 0.72480  0.61150  0.40840  Biso   1.000  H
  H101     1.0000 0.22480  0.88850  0.90840  Biso   1.000  H
  H102     1.0000 0.77520  0.88850  0.59160  Biso   1.000  H
  H103     1.0000 0.72480  0.38850  0.90840  Biso   1.000  H
  H104     1.0000 0.27520  0.38850  0.59160  Biso   1.000  H
  H105     1.0000 0.77660  0.14160  0.00170  Biso   1.000  H
  H106     1.0000 0.22340  0.14160  0.49830  Biso   1.000  H
  H107     1.0000 0.27660  0.64160  0.00170  Biso   1.000  H
  H108     1.0000 0.72340  0.64160  0.49830  Biso   1.000  H
  H109     1.0000 0.22340  0.85840  0.99830  Biso   1.000  H
  H110     1.0000 0.77660  0.85840  0.50170  Biso   1.000  H
  H111     1.0000 0.72340  0.35840  0.99830  Biso   1.000  H
  H112     1.0000 0.27660  0.35840  0.50170  Biso   1.000  H
  H113     1.0000 0.72770  0.16860  0.06580  Biso   1.000  H
  H114     1.0000 0.27230  0.16860  0.43420  Biso   1.000  H
  H115     1.0000 0.22770  0.66860  0.06580  Biso   1.000  H
  H116     1.0000 0.77230  0.66860  0.43420  Biso   1.000  H
  H117     1.0000 0.27230  0.83140  0.93420  Biso   1.000  H
  H118     1.0000 0.72770  0.83140  0.56580  Biso   1.000  H
  H119     1.0000 0.77230  0.33140  0.93420  Biso   1.000  H
  H120     1.0000 0.22770  0.33140  0.56580  Biso   1.000  H
  S9       1.0000 0.18401  0.54997  0.21917  Biso   1.000  S
  S10      1.0000 0.81599  0.54997  0.28083  Biso   1.000  S
  S11      1.0000 0.68401  0.04997  0.21917  Biso   1.000  S
  S12      1.0000 0.31599  0.04997  0.28083  Biso   1.000  S
  S13      1.0000 0.81599  0.45003  0.78083  Biso   1.000  S
  S14      1.0000 0.18401  0.45003  0.71917  Biso   1.000  S
  S15      1.0000 0.31599  0.95003  0.78083  Biso   1.000  S
  S16      1.0000 0.68401  0.95003  0.71917  Biso   1.000  S
  S17      1.0000 0.88429  0.11297  0.21819  Biso   1.000  S
  S18      1.0000 0.11571  0.11297  0.28181  Biso   1.000  S
  S19      1.0000 0.38429  0.61297  0.21819  Biso   1.000  S
  S20      1.0000 0.61571  0.61297  0.28181  Biso   1.000  S
  S21      1.0000 0.11571  0.88703  0.78181  Biso   1.000  S
  S22      1.0000 0.88429  0.88703  0.71819  Biso   1.000  S
  S23      1.0000 0.61571  0.38703  0.78181  Biso   1.000  S
  S24      1.0000 0.38429  0.38703  0.71819  Biso   1.000  S
