data_image0
_cell_length_a       14.268
_cell_length_b       12.7763
_cell_length_c       11.8165
_cell_angle_alpha    90
_cell_angle_beta     101.347
_cell_angle_gamma    90

_symmetry_space_group_name_H-M    "P 1"
_symmetry_int_tables_number       1

loop_
  _symmetry_equiv_pos_as_xyz
  'x, y, z'

loop_
  _atom_site_label
  _atom_site_occupancy
  _atom_site_fract_x
  _atom_site_fract_y
  _atom_site_fract_z
  _atom_site_thermal_displace_type
  _atom_site_B_iso_or_equiv
  _atom_site_type_symbol
  Cu1      1.0000 0.50000  0.38775  0.25000  Biso   1.000  Cu
  Cu2      1.0000 0.00000  0.88775  0.25000  Biso   1.000  Cu
  Cu3      1.0000 0.50000  0.61225  0.75000  Biso   1.000  Cu
  Cu4      1.0000 0.00000  0.11225  0.75000  Biso   1.000  Cu
  O1       1.0000 0.22600  0.33360  0.28990  Biso   1.000  O
  O2       1.0000 0.72600  0.83360  0.28990  Biso   1.000  O
  O3       1.0000 0.77400  0.33360  0.21010  Biso   1.000  O
  O4       1.0000 0.27400  0.83360  0.21010  Biso   1.000  O
  O5       1.0000 0.77400  0.66640  0.71010  Biso   1.000  O
  O6       1.0000 0.27400  0.16640  0.71010  Biso   1.000  O
  O7       1.0000 0.22600  0.66640  0.78990  Biso   1.000  O
  O8       1.0000 0.72600  0.16640  0.78990  Biso   1.000  O
  O9       1.0000 0.49500  0.55740  0.15950  Biso   1.000  O
  O10      1.0000 0.99500  0.05740  0.15950  Biso   1.000  O
  O11      1.0000 0.50500  0.55740  0.34050  Biso   1.000  O
  O12      1.0000 0.00500  0.05740  0.34050  Biso   1.000  O
  O13      1.0000 0.50500  0.44260  0.84050  Biso   1.000  O
  O14      1.0000 0.00500  0.94260  0.84050  Biso   1.000  O
  O15      1.0000 0.49500  0.44260  0.65950  Biso   1.000  O
  O16      1.0000 0.99500  0.94260  0.65950  Biso   1.000  O
  O17      1.0000 0.50000  0.70310  0.25000  Biso   1.000  O
  O18      1.0000 0.00000  0.20310  0.25000  Biso   1.000  O
  O19      1.0000 0.50000  0.29690  0.75000  Biso   1.000  O
  O20      1.0000 0.00000  0.79690  0.75000  Biso   1.000  O
  N1       1.0000 0.37760  0.36460  0.28740  Biso   1.000  N
  N2       1.0000 0.87760  0.86460  0.28740  Biso   1.000  N
  N3       1.0000 0.62240  0.36460  0.21260  Biso   1.000  N
  N4       1.0000 0.12240  0.86460  0.21260  Biso   1.000  N
  N5       1.0000 0.62240  0.63540  0.71260  Biso   1.000  N
  N6       1.0000 0.12240  0.13540  0.71260  Biso   1.000  N
  N7       1.0000 0.37760  0.63540  0.78740  Biso   1.000  N
  N8       1.0000 0.87760  0.13540  0.78740  Biso   1.000  N
  N9       1.0000 0.50000  0.60950  0.25000  Biso   1.000  N
  N10      1.0000 0.00000  0.10950  0.25000  Biso   1.000  N
  N11      1.0000 0.50000  0.39050  0.75000  Biso   1.000  N
  N12      1.0000 0.00000  0.89050  0.75000  Biso   1.000  N
  C1       1.0000 0.33420  0.30360  0.03540  Biso   1.000  C
  C2       1.0000 0.83420  0.80360  0.03540  Biso   1.000  C
  C3       1.0000 0.66580  0.30360  0.46460  Biso   1.000  C
  C4       1.0000 0.16580  0.80360  0.46460  Biso   1.000  C
  C5       1.0000 0.66580  0.69640  0.96460  Biso   1.000  C
  C6       1.0000 0.16580  0.19640  0.96460  Biso   1.000  C
  C7       1.0000 0.33420  0.69640  0.53540  Biso   1.000  C
  C8       1.0000 0.83420  0.19640  0.53540  Biso   1.000  C
  H1       1.0000 0.39110  0.34010  0.05900  Biso   1.000  H
  H2       1.0000 0.89110  0.84010  0.05900  Biso   1.000  H
  H3       1.0000 0.60890  0.34010  0.44100  Biso   1.000  H
  H4       1.0000 0.10890  0.84010  0.44100  Biso   1.000  H
  H5       1.0000 0.60890  0.65990  0.94100  Biso   1.000  H
  H6       1.0000 0.10890  0.15990  0.94100  Biso   1.000  H
  H7       1.0000 0.39110  0.65990  0.55900  Biso   1.000  H
  H8       1.0000 0.89110  0.15990  0.55900  Biso   1.000  H
  C9       1.0000 0.18760  0.23670  0.07440  Biso   1.000  C
  C10      1.0000 0.68760  0.73670  0.07440  Biso   1.000  C
  C11      1.0000 0.81240  0.23670  0.42560  Biso   1.000  C
  C12      1.0000 0.31240  0.73670  0.42560  Biso   1.000  C
  C13      1.0000 0.81240  0.76330  0.92560  Biso   1.000  C
  C14      1.0000 0.31240  0.26330  0.92560  Biso   1.000  C
  C15      1.0000 0.18760  0.76330  0.57440  Biso   1.000  C
  C16      1.0000 0.68760  0.26330  0.57440  Biso   1.000  C
  H9       1.0000 0.14520  0.22780  0.12430  Biso   1.000  H
  H10      1.0000 0.64520  0.72780  0.12430  Biso   1.000  H
  H11      1.0000 0.85480  0.22780  0.37570  Biso   1.000  H
  H12      1.0000 0.35480  0.72780  0.37570  Biso   1.000  H
  H13      1.0000 0.85480  0.77220  0.87570  Biso   1.000  H
  H14      1.0000 0.35480  0.27220  0.87570  Biso   1.000  H
  H15      1.0000 0.14520  0.77220  0.62430  Biso   1.000  H
  H16      1.0000 0.64520  0.27220  0.62430  Biso   1.000  H
  C17      1.0000 0.27270  0.29060  0.11130  Biso   1.000  C
  C18      1.0000 0.77270  0.79060  0.11130  Biso   1.000  C
  C19      1.0000 0.72730  0.29060  0.38870  Biso   1.000  C
  C20      1.0000 0.22730  0.79060  0.38870  Biso   1.000  C
  C21      1.0000 0.72730  0.70940  0.88870  Biso   1.000  C
  C22      1.0000 0.22730  0.20940  0.88870  Biso   1.000  C
  C23      1.0000 0.27270  0.70940  0.61130  Biso   1.000  C
  C24      1.0000 0.77270  0.20940  0.61130  Biso   1.000  C
  C25      1.0000 0.29650  0.33090  0.22870  Biso   1.000  C
  C26      1.0000 0.79650  0.83090  0.22870  Biso   1.000  C
  C27      1.0000 0.70350  0.33090  0.27130  Biso   1.000  C
  C28      1.0000 0.20350  0.83090  0.27130  Biso   1.000  C
  C29      1.0000 0.70350  0.66910  0.77130  Biso   1.000  C
  C30      1.0000 0.20350  0.16910  0.77130  Biso   1.000  C
  C31      1.0000 0.29650  0.66910  0.72870  Biso   1.000  C
  C32      1.0000 0.79650  0.16910  0.72870  Biso   1.000  C
  C33      1.0000 0.35970  0.39090  0.39530  Biso   1.000  C
  C34      1.0000 0.85970  0.89090  0.39530  Biso   1.000  C
  C35      1.0000 0.64030  0.39090  0.10470  Biso   1.000  C
  C36      1.0000 0.14030  0.89090  0.10470  Biso   1.000  C
  C37      1.0000 0.64030  0.60910  0.60470  Biso   1.000  C
  C38      1.0000 0.14030  0.10910  0.60470  Biso   1.000  C
  C39      1.0000 0.35970  0.60910  0.89530  Biso   1.000  C
  C40      1.0000 0.85970  0.10910  0.89530  Biso   1.000  C
  H17      1.0000 0.40460  0.41740  0.45650  Biso   1.000  H
  H18      1.0000 0.90460  0.91740  0.45650  Biso   1.000  H
  H19      1.0000 0.59540  0.41740  0.04350  Biso   1.000  H
  H20      1.0000 0.09540  0.91740  0.04350  Biso   1.000  H
  H21      1.0000 0.59540  0.58260  0.54350  Biso   1.000  H
  H22      1.0000 0.09540  0.08260  0.54350  Biso   1.000  H
  H23      1.0000 0.40460  0.58260  0.95650  Biso   1.000  H
  H24      1.0000 0.90460  0.08260  0.95650  Biso   1.000  H
  C41      1.0000 0.26790  0.37240  0.39740  Biso   1.000  C
  C42      1.0000 0.76790  0.87240  0.39740  Biso   1.000  C
  C43      1.0000 0.73210  0.37240  0.10260  Biso   1.000  C
  C44      1.0000 0.23210  0.87240  0.10260  Biso   1.000  C
  C45      1.0000 0.73210  0.62760  0.60260  Biso   1.000  C
  C46      1.0000 0.23210  0.12760  0.60260  Biso   1.000  C
  C47      1.0000 0.26790  0.62760  0.89740  Biso   1.000  C
  C48      1.0000 0.76790  0.12760  0.89740  Biso   1.000  C
  C49      1.0000 0.20810  0.38450  0.48290  Biso   1.000  C
  C50      1.0000 0.70810  0.88450  0.48290  Biso   1.000  C
  C51      1.0000 0.79190  0.38450  0.01710  Biso   1.000  C
  C52      1.0000 0.29190  0.88450  0.01710  Biso   1.000  C
  C53      1.0000 0.79190  0.61550  0.51710  Biso   1.000  C
  C54      1.0000 0.29190  0.11550  0.51710  Biso   1.000  C
  C55      1.0000 0.20810  0.61550  0.98290  Biso   1.000  C
  C56      1.0000 0.70810  0.11550  0.98290  Biso   1.000  C
  C57      1.0000 0.11090  0.36800  0.45580  Biso   1.000  C
  C58      1.0000 0.61090  0.86800  0.45580  Biso   1.000  C
  C59      1.0000 0.88910  0.36800  0.04420  Biso   1.000  C
  C60      1.0000 0.38910  0.86800  0.04420  Biso   1.000  C
  C61      1.0000 0.88910  0.63200  0.54420  Biso   1.000  C
  C62      1.0000 0.38910  0.13200  0.54420  Biso   1.000  C
  C63      1.0000 0.11090  0.63200  0.95580  Biso   1.000  C
  C64      1.0000 0.61090  0.13200  0.95580  Biso   1.000  C
  H25      1.0000 0.08130  0.34810  0.38170  Biso   1.000  H
  H26      1.0000 0.58130  0.84810  0.38170  Biso   1.000  H
  H27      1.0000 0.91870  0.34810  0.11830  Biso   1.000  H
  H28      1.0000 0.41870  0.84810  0.11830  Biso   1.000  H
  H29      1.0000 0.91870  0.65190  0.61830  Biso   1.000  H
  H30      1.0000 0.41870  0.15190  0.61830  Biso   1.000  H
  H31      1.0000 0.08130  0.65190  0.88170  Biso   1.000  H
  H32      1.0000 0.58130  0.15190  0.88170  Biso   1.000  H
  C65      1.0000 0.05790  0.38170  0.54180  Biso   1.000  C
  C66      1.0000 0.55790  0.88170  0.54180  Biso   1.000  C
  C67      1.0000 0.94210  0.38170  0.95820  Biso   1.000  C
  C68      1.0000 0.44210  0.88170  0.95820  Biso   1.000  C
  C69      1.0000 0.94210  0.61830  0.45820  Biso   1.000  C
  C70      1.0000 0.44210  0.11830  0.45820  Biso   1.000  C
  C71      1.0000 0.05790  0.61830  0.04180  Biso   1.000  C
  C72      1.0000 0.55790  0.11830  0.04180  Biso   1.000  C
  H33      1.0000 0.99210  0.37160  0.52470  Biso   1.000  H
  H34      1.0000 0.49210  0.87160  0.52470  Biso   1.000  H
  H35      1.0000 0.00790  0.37160  0.97530  Biso   1.000  H
  H36      1.0000 0.50790  0.87160  0.97530  Biso   1.000  H
  H37      1.0000 0.00790  0.62840  0.47530  Biso   1.000  H
  H38      1.0000 0.50790  0.12840  0.47530  Biso   1.000  H
  H39      1.0000 0.99210  0.62840  0.02470  Biso   1.000  H
  H40      1.0000 0.49210  0.12840  0.02470  Biso   1.000  H
  C73      1.0000 0.10170  0.40980  0.65180  Biso   1.000  C
  C74      1.0000 0.60170  0.90980  0.65180  Biso   1.000  C
  C75      1.0000 0.89830  0.40980  0.84820  Biso   1.000  C
  C76      1.0000 0.39830  0.90980  0.84820  Biso   1.000  C
  C77      1.0000 0.89830  0.59020  0.34820  Biso   1.000  C
  C78      1.0000 0.39830  0.09020  0.34820  Biso   1.000  C
  C79      1.0000 0.10170  0.59020  0.15180  Biso   1.000  C
  C80      1.0000 0.60170  0.09020  0.15180  Biso   1.000  C
  H41      1.0000 0.06540  0.41800  0.70850  Biso   1.000  H
  H42      1.0000 0.56540  0.91800  0.70850  Biso   1.000  H
  H43      1.0000 0.93460  0.41800  0.79150  Biso   1.000  H
  H44      1.0000 0.43460  0.91800  0.79150  Biso   1.000  H
  H45      1.0000 0.93460  0.58200  0.29150  Biso   1.000  H
  H46      1.0000 0.43460  0.08200  0.29150  Biso   1.000  H
  H47      1.0000 0.06540  0.58200  0.20850  Biso   1.000  H
  H48      1.0000 0.56540  0.08200  0.20850  Biso   1.000  H
  C81      1.0000 0.19630  0.42550  0.67770  Biso   1.000  C
  C82      1.0000 0.69630  0.92550  0.67770  Biso   1.000  C
  C83      1.0000 0.80370  0.42550  0.82230  Biso   1.000  C
  C84      1.0000 0.30370  0.92550  0.82230  Biso   1.000  C
  C85      1.0000 0.80370  0.57450  0.32230  Biso   1.000  C
  C86      1.0000 0.30370  0.07450  0.32230  Biso   1.000  C
  C87      1.0000 0.19630  0.57450  0.17770  Biso   1.000  C
  C88      1.0000 0.69630  0.07450  0.17770  Biso   1.000  C
  H49      1.0000 0.22530  0.44490  0.75220  Biso   1.000  H
  H50      1.0000 0.72530  0.94490  0.75220  Biso   1.000  H
  H51      1.0000 0.77470  0.44490  0.74780  Biso   1.000  H
  H52      1.0000 0.27470  0.94490  0.74780  Biso   1.000  H
  H53      1.0000 0.77470  0.55510  0.24780  Biso   1.000  H
  H54      1.0000 0.27470  0.05510  0.24780  Biso   1.000  H
  H55      1.0000 0.22530  0.55510  0.25220  Biso   1.000  H
  H56      1.0000 0.72530  0.05510  0.25220  Biso   1.000  H
  C89      1.0000 0.25100  0.41310  0.59400  Biso   1.000  C
  C90      1.0000 0.75100  0.91310  0.59400  Biso   1.000  C
  C91      1.0000 0.74900  0.41310  0.90600  Biso   1.000  C
  C92      1.0000 0.24900  0.91310  0.90600  Biso   1.000  C
  C93      1.0000 0.74900  0.58690  0.40600  Biso   1.000  C
  C94      1.0000 0.24900  0.08690  0.40600  Biso   1.000  C
  C95      1.0000 0.25100  0.58690  0.09400  Biso   1.000  C
  C96      1.0000 0.75100  0.08690  0.09400  Biso   1.000  C
  H57      1.0000 0.31670  0.42400  0.61240  Biso   1.000  H
  H58      1.0000 0.81670  0.92400  0.61240  Biso   1.000  H
  H59      1.0000 0.68330  0.42400  0.88760  Biso   1.000  H
  H60      1.0000 0.18330  0.92400  0.88760  Biso   1.000  H
  H61      1.0000 0.68330  0.57600  0.38760  Biso   1.000  H
  H62      1.0000 0.18330  0.07600  0.38760  Biso   1.000  H
  H63      1.0000 0.31670  0.57600  0.11240  Biso   1.000  H
  H64      1.0000 0.81670  0.07600  0.11240  Biso   1.000  H
