data_image0
_cell_length_a       3.7498
_cell_length_b       11.5531
_cell_length_c       11.6843
_cell_angle_alpha    89.189
_cell_angle_beta     80.976
_cell_angle_gamma    86.25

_symmetry_space_group_name_H-M    "P 1"
_symmetry_int_tables_number       1

loop_
  _symmetry_equiv_pos_as_xyz
  'x, y, z'

loop_
  _atom_site_label
  _atom_site_occupancy
  _atom_site_fract_x
  _atom_site_fract_y
  _atom_site_fract_z
  _atom_site_thermal_displace_type
  _atom_site_B_iso_or_equiv
  _atom_site_type_symbol
  Cu1      1.0000 0.29439  0.10779  0.50790  Biso   1.000  Cu
  Cu2      1.0000 0.70561  0.89221  0.49210  Biso   1.000  Cu
  Cl1      1.0000 0.24620  0.92157  0.37766  Biso   1.000  Cl
  Cl2      1.0000 0.75380  0.07843  0.62234  Biso   1.000  Cl
  O1       1.0000 0.52540  0.35234  0.24361  Biso   1.000  O
  O2       1.0000 0.47460  0.64766  0.75639  Biso   1.000  O
  N1       1.0000 0.43770  0.21163  0.37406  Biso   1.000  N
  N2       1.0000 0.56230  0.78837  0.62594  Biso   1.000  N
  C1       1.0000 0.18000  0.41212  0.42742  Biso   1.000  C
  C2       1.0000 0.82000  0.58788  0.57258  Biso   1.000  C
  C3       1.0000 0.20040  0.52872  0.39386  Biso   1.000  C
  C4       1.0000 0.79960  0.47128  0.60614  Biso   1.000  C
  H1       1.0000 0.34500  0.54840  0.32370  Biso   1.000  H
  H2       1.0000 0.65500  0.45160  0.67630  Biso   1.000  H
  C5       1.0000 0.97740  0.38401  0.53413  Biso   1.000  C
  C6       1.0000 0.02260  0.61599  0.46587  Biso   1.000  C
  H3       1.0000 0.94100  0.30820  0.55510  Biso   1.000  H
  H4       1.0000 0.05900  0.69180  0.44490  Biso   1.000  H
  C7       1.0000 0.37540  0.32134  0.35238  Biso   1.000  C
  C8       1.0000 0.62460  0.67866  0.64762  Biso   1.000  C
  C9       1.0000 0.64590  0.16636  0.27343  Biso   1.000  C
  C10      1.0000 0.35410  0.83364  0.72657  Biso   1.000  C
  H5       1.0000 0.73460  0.08950  0.26300  Biso   1.000  H
  H6       1.0000 0.26540  0.91050  0.73700  Biso   1.000  H
  C11      1.0000 0.69850  0.25148  0.19361  Biso   1.000  C
  C12      1.0000 0.30150  0.74852  0.80639  Biso   1.000  C
  C13      1.0000 0.87460  0.25694  0.07355  Biso   1.000  C
  C14      1.0000 0.12540  0.74306  0.92645  Biso   1.000  C
  C15      1.0000 0.07180  0.15829  0.02250  Biso   1.000  C
  C16      1.0000 0.92820  0.84171  0.97750  Biso   1.000  C
  H7       1.0000 0.09850  0.09130  0.06620  Biso   1.000  H
  H8       1.0000 0.90150  0.90870  0.93380  Biso   1.000  H
  C17      1.0000 0.22660  0.16122  0.90666  Biso   1.000  C
  C18      1.0000 0.77340  0.83878  0.09334  Biso   1.000  C
  H9       1.0000 0.35570  0.09570  0.87280  Biso   1.000  H
  H10      1.0000 0.64430  0.90430  0.12720  Biso   1.000  H
  C19      1.0000 0.19050  0.26092  0.84093  Biso   1.000  C
  C20      1.0000 0.80950  0.73908  0.15907  Biso   1.000  C
  H11      1.0000 0.29370  0.26200  0.76320  Biso   1.000  H
  H12      1.0000 0.70630  0.73800  0.23680  Biso   1.000  H
  C21      1.0000 0.99980  0.35934  0.89148  Biso   1.000  C
  C22      1.0000 0.00020  0.64066  0.10852  Biso   1.000  C
  H13      1.0000 0.97790  0.42660  0.84770  Biso   1.000  H
  H14      1.0000 0.02210  0.57340  0.15230  Biso   1.000  H
  C23      1.0000 0.84180  0.35739  0.00752  Biso   1.000  C
  C24      1.0000 0.15820  0.64261  0.99248  Biso   1.000  C
  H15      1.0000 0.71400  0.42330  0.04110  Biso   1.000  H
  H16      1.0000 0.28600  0.57670  0.95890  Biso   1.000  H
