data_image0
_cell_length_a       9.9125
_cell_length_b       10.2339
_cell_length_c       13.055
_cell_angle_alpha    102.88
_cell_angle_beta     102.706
_cell_angle_gamma    94.705

_symmetry_space_group_name_H-M    "P 1"
_symmetry_int_tables_number       1

loop_
  _symmetry_equiv_pos_as_xyz
  'x, y, z'

loop_
  _atom_site_label
  _atom_site_occupancy
  _atom_site_fract_x
  _atom_site_fract_y
  _atom_site_fract_z
  _atom_site_thermal_displace_type
  _atom_site_B_iso_or_equiv
  _atom_site_type_symbol
  I1       1.0000 0.69389  0.46993  0.46045  Biso   1.000  I
  I2       1.0000 0.30611  0.53007  0.53955  Biso   1.000  I
  Cu1      1.0000 0.58607  0.56157  0.62456  Biso   1.000  Cu
  Cu2      1.0000 0.41393  0.43843  0.37544  Biso   1.000  Cu
  S1       1.0000 0.66760  0.79250  0.68710  Biso   1.000  S
  S2       1.0000 0.33240  0.20750  0.31290  Biso   1.000  S
  S3       1.0000 0.59280  0.46240  0.76720  Biso   1.000  S
  S4       1.0000 0.40720  0.53760  0.23280  Biso   1.000  S
  O1       1.0000 0.88260  0.30240  0.91740  Biso   1.000  O
  O2       1.0000 0.11740  0.69760  0.08260  Biso   1.000  O
  O3       1.0000 0.74230  0.03630  0.92010  Biso   1.000  O
  O4       1.0000 0.25770  0.96370  0.07990  Biso   1.000  O
  O5       1.0000 0.61940  0.07820  0.62950  Biso   1.000  O
  O6       1.0000 0.38060  0.92180  0.37050  Biso   1.000  O
  C1       1.0000 0.94520  0.19110  0.94710  Biso   1.000  C
  C2       1.0000 0.05480  0.80890  0.05290  Biso   1.000  C
  H1       1.0000 0.03590  0.22320  0.99530  Biso   1.000  H
  H2       1.0000 0.96410  0.77680  0.00470  Biso   1.000  H
  H3       1.0000 0.95640  0.12880  0.88360  Biso   1.000  H
  H4       1.0000 0.04360  0.87120  0.11640  Biso   1.000  H
  C3       1.0000 0.85680  0.12290  0.00030  Biso   1.000  C
  C4       1.0000 0.14320  0.87710  0.99970  Biso   1.000  C
  H5       1.0000 0.91040  0.07020  0.04200  Biso   1.000  H
  H6       1.0000 0.08960  0.92980  0.95800  Biso   1.000  H
  H7       1.0000 0.82160  0.18880  0.04870  Biso   1.000  H
  H8       1.0000 0.17840  0.81120  0.95130  Biso   1.000  H
  C5       1.0000 0.66570  0.93910  0.95130  Biso   1.000  C
  C6       1.0000 0.33430  0.06090  0.04870  Biso   1.000  C
  C7       1.0000 0.68660  0.92380  0.05540  Biso   1.000  C
  C8       1.0000 0.31340  0.07620  0.94460  Biso   1.000  C
  H9       1.0000 0.75570  0.98440  0.11350  Biso   1.000  H
  H10      1.0000 0.24430  0.01560  0.88650  Biso   1.000  H
  C9       1.0000 0.60710  0.82060  0.07450  Biso   1.000  C
  C10      1.0000 0.39290  0.17940  0.92550  Biso   1.000  C
  H11      1.0000 0.62350  0.80630  0.14610  Biso   1.000  H
  H12      1.0000 0.37650  0.19370  0.85390  Biso   1.000  H
  C11      1.0000 0.50410  0.73720  0.99280  Biso   1.000  C
  C12      1.0000 0.49590  0.26280  0.00720  Biso   1.000  C
  H13      1.0000 0.44630  0.66810  0.00860  Biso   1.000  H
  H14      1.0000 0.55370  0.33190  0.99140  Biso   1.000  H
  C13      1.0000 0.48370  0.75110  0.89210  Biso   1.000  C
  C14      1.0000 0.51630  0.24890  0.10790  Biso   1.000  C
  H15      1.0000 0.41340  0.68880  0.83610  Biso   1.000  H
  H16      1.0000 0.58660  0.31120  0.16390  Biso   1.000  H
  C15      1.0000 0.56170  0.85460  0.86380  Biso   1.000  C
  C16      1.0000 0.43830  0.14540  0.13620  Biso   1.000  C
  C17      1.0000 0.54120  0.86980  0.75310  Biso   1.000  C
  C18      1.0000 0.45880  0.13020  0.24690  Biso   1.000  C
  H17      1.0000 0.54930  0.96430  0.75430  Biso   1.000  H
  H18      1.0000 0.45070  0.03570  0.24570  Biso   1.000  H
  H19      1.0000 0.44880  0.82870  0.71230  Biso   1.000  H
  H20      1.0000 0.55120  0.17130  0.28770  Biso   1.000  H
  C19      1.0000 0.64190  0.84980  0.56250  Biso   1.000  C
  C20      1.0000 0.35810  0.15020  0.43750  Biso   1.000  C
  H21      1.0000 0.68290  0.79190  0.51290  Biso   1.000  H
  H22      1.0000 0.31710  0.20810  0.48710  Biso   1.000  H
  H23      1.0000 0.54340  0.83890  0.53040  Biso   1.000  H
  H24      1.0000 0.45660  0.16110  0.46960  Biso   1.000  H
  C21      1.0000 0.70210  0.99580  0.57490  Biso   1.000  C
  C22      1.0000 0.29790  0.00420  0.42510  Biso   1.000  C
  H25      1.0000 0.79760  0.01370  0.61620  Biso   1.000  H
  H26      1.0000 0.20240  0.98630  0.38380  Biso   1.000  H
  H27      1.0000 0.69860  0.01310  0.50520  Biso   1.000  H
  H28      1.0000 0.30140  0.98690  0.49480  Biso   1.000  H
  C23      1.0000 0.67250  0.21940  0.66100  Biso   1.000  C
  C24      1.0000 0.32750  0.78060  0.33900  Biso   1.000  C
  H29      1.0000 0.66230  0.25700  0.59900  Biso   1.000  H
  H30      1.0000 0.33770  0.74300  0.40100  Biso   1.000  H
  H31      1.0000 0.76910  0.23460  0.69910  Biso   1.000  H
  H32      1.0000 0.23090  0.76540  0.30090  Biso   1.000  H
  C25      1.0000 0.58300  0.27910  0.73410  Biso   1.000  C
  C26      1.0000 0.41700  0.72090  0.26590  Biso   1.000  C
  H33      1.0000 0.60870  0.25150  0.80050  Biso   1.000  H
  H34      1.0000 0.39130  0.74850  0.19950  Biso   1.000  H
  H35      1.0000 0.48750  0.24090  0.70020  Biso   1.000  H
  H36      1.0000 0.51250  0.75910  0.29980  Biso   1.000  H
  C27      1.0000 0.75410  0.51710  0.87260  Biso   1.000  C
  C28      1.0000 0.24590  0.48290  0.12740  Biso   1.000  C
  H37      1.0000 0.76050  0.61300  0.90100  Biso   1.000  H
  H38      1.0000 0.23950  0.38700  0.09900  Biso   1.000  H
  H39      1.0000 0.74640  0.47530  0.93040  Biso   1.000  H
  H40      1.0000 0.25360  0.52470  0.06960  Biso   1.000  H
  C29      1.0000 0.88610  0.48990  0.84420  Biso   1.000  C
  C30      1.0000 0.11390  0.51010  0.15580  Biso   1.000  C
  C31      1.0000 0.94880  0.57390  0.78980  Biso   1.000  C
  C32      1.0000 0.05120  0.42610  0.21020  Biso   1.000  C
  H41      1.0000 0.90400  0.64820  0.77150  Biso   1.000  H
  H42      1.0000 0.09600  0.35180  0.22850  Biso   1.000  H
  C33      1.0000 0.07510  0.55010  0.76240  Biso   1.000  C
  C34      1.0000 0.92490  0.44990  0.23760  Biso   1.000  C
  H43      1.0000 0.11660  0.60640  0.72470  Biso   1.000  H
  H44      1.0000 0.88340  0.39360  0.27530  Biso   1.000  H
  C35      1.0000 0.13870  0.44340  0.79100  Biso   1.000  C
  C36      1.0000 0.86130  0.55660  0.20900  Biso   1.000  C
  H45      1.0000 0.22760  0.42910  0.77590  Biso   1.000  H
  H46      1.0000 0.77240  0.57090  0.22410  Biso   1.000  H
  C37      1.0000 0.07690  0.35650  0.84110  Biso   1.000  C
  C38      1.0000 0.92310  0.64350  0.15890  Biso   1.000  C
  H47      1.0000 0.12020  0.28030  0.85680  Biso   1.000  H
  H48      1.0000 0.87980  0.71970  0.14320  Biso   1.000  H
  C39      1.0000 0.95250  0.38120  0.86810  Biso   1.000  C
  C40      1.0000 0.04750  0.61880  0.13190  Biso   1.000  C
  N1       1.0000 0.10800  0.96500  0.67300  Biso   1.000  N
  N2       1.0000 0.89200  0.03500  0.32700  Biso   1.000  N
  C41      1.0000 0.06400  0.87600  0.60300  Biso   1.000  C
  C42      1.0000 0.93600  0.12400  0.39700  Biso   1.000  C
  C43      1.0000 0.01400  0.77210  0.49550  Biso   1.000  C
  C44      1.0000 0.98600  0.22790  0.50450  Biso   1.000  C
  H49      1.0000 0.93860  0.70980  0.49870  Biso   1.000  H
  H50      1.0000 0.06140  0.29020  0.50130  Biso   1.000  H
  H51      1.0000 0.08970  0.72360  0.48060  Biso   1.000  H
  H52      1.0000 0.91030  0.27640  0.51940  Biso   1.000  H
  H53      1.0000 0.98340  0.81670  0.43890  Biso   1.000  H
  H54      1.0000 0.01660  0.18330  0.56110  Biso   1.000  H
