data_image0
_cell_length_a       12.8498
_cell_length_b       9.0701
_cell_length_c       19.779
_cell_angle_alpha    90
_cell_angle_beta     100.132
_cell_angle_gamma    90

_symmetry_space_group_name_H-M    "P 1"
_symmetry_int_tables_number       1

loop_
  _symmetry_equiv_pos_as_xyz
  'x, y, z'

loop_
  _atom_site_label
  _atom_site_occupancy
  _atom_site_fract_x
  _atom_site_fract_y
  _atom_site_fract_z
  _atom_site_thermal_displace_type
  _atom_site_B_iso_or_equiv
  _atom_site_type_symbol
  Cu1      1.0000 0.57281  0.60030  0.24169  Biso   1.000  Cu
  Cu2      1.0000 0.42719  0.10030  0.25831  Biso   1.000  Cu
  Cu3      1.0000 0.42719  0.39970  0.75831  Biso   1.000  Cu
  Cu4      1.0000 0.57281  0.89970  0.74169  Biso   1.000  Cu
  S1       1.0000 0.62870  0.66913  0.13555  Biso   1.000  S
  S2       1.0000 0.37130  0.16913  0.36445  Biso   1.000  S
  S3       1.0000 0.37130  0.33087  0.86445  Biso   1.000  S
  S4       1.0000 0.62870  0.83087  0.63555  Biso   1.000  S
  S5       1.0000 0.72568  0.78709  0.81697  Biso   1.000  S
  S6       1.0000 0.27432  0.28709  0.68303  Biso   1.000  S
  S7       1.0000 0.27432  0.21291  0.18303  Biso   1.000  S
  S8       1.0000 0.72568  0.71291  0.31697  Biso   1.000  S
  O1       1.0000 0.86890  0.91910  0.99593  Biso   1.000  O
  O2       1.0000 0.13110  0.41910  0.50407  Biso   1.000  O
  O3       1.0000 0.13110  0.08090  0.00407  Biso   1.000  O
  O4       1.0000 0.86890  0.58090  0.49593  Biso   1.000  O
  O5       1.0000 0.85430  0.67020  0.08610  Biso   1.000  O
  O6       1.0000 0.14570  0.17020  0.41390  Biso   1.000  O
  O7       1.0000 0.14570  0.32980  0.91390  Biso   1.000  O
  O8       1.0000 0.85430  0.82980  0.58610  Biso   1.000  O
  O9       1.0000 0.57420  0.71770  0.97498  Biso   1.000  O
  O10      1.0000 0.42580  0.21770  0.52502  Biso   1.000  O
  O11      1.0000 0.42580  0.28230  0.02502  Biso   1.000  O
  O12      1.0000 0.57420  0.78230  0.47498  Biso   1.000  O
  C1       1.0000 0.89100  0.92140  0.06890  Biso   1.000  C
  C2       1.0000 0.10900  0.42140  0.43110  Biso   1.000  C
  C3       1.0000 0.10900  0.07860  0.93110  Biso   1.000  C
  C4       1.0000 0.89100  0.57860  0.56890  Biso   1.000  C
  H1       1.0000 0.82710  0.93900  0.08660  Biso   1.000  H
  H2       1.0000 0.17290  0.43900  0.41340  Biso   1.000  H
  H3       1.0000 0.17290  0.06100  0.91340  Biso   1.000  H
  H4       1.0000 0.82710  0.56100  0.58660  Biso   1.000  H
  H5       1.0000 0.94010  0.99910  0.08460  Biso   1.000  H
  H6       1.0000 0.05990  0.49910  0.41540  Biso   1.000  H
  H7       1.0000 0.05990  0.00090  0.91540  Biso   1.000  H
  H8       1.0000 0.94010  0.50090  0.58460  Biso   1.000  H
  C5       1.0000 0.93640  0.77810  0.09350  Biso   1.000  C
  C6       1.0000 0.06360  0.27810  0.40650  Biso   1.000  C
  C7       1.0000 0.06360  0.22190  0.90650  Biso   1.000  C
  C8       1.0000 0.93640  0.72190  0.59350  Biso   1.000  C
  H9       1.0000 0.98940  0.74930  0.06740  Biso   1.000  H
  H10      1.0000 0.01060  0.24930  0.43260  Biso   1.000  H
  H11      1.0000 0.01060  0.25070  0.93260  Biso   1.000  H
  H12      1.0000 0.98940  0.75070  0.56740  Biso   1.000  H
  H13      1.0000 0.96930  0.78580  0.14090  Biso   1.000  H
  H14      1.0000 0.03070  0.28580  0.35910  Biso   1.000  H
  H15      1.0000 0.03070  0.21420  0.85910  Biso   1.000  H
  H16      1.0000 0.96930  0.71420  0.64090  Biso   1.000  H
  C9       1.0000 0.87100  0.54540  0.12370  Biso   1.000  C
  C10      1.0000 0.12900  0.04540  0.37630  Biso   1.000  C
  C11      1.0000 0.12900  0.45460  0.87630  Biso   1.000  C
  C12      1.0000 0.87100  0.95460  0.62370  Biso   1.000  C
  C13      1.0000 0.97110  0.49750  0.15650  Biso   1.000  C
  C14      1.0000 0.02890  0.99750  0.34350  Biso   1.000  C
  C15      1.0000 0.02890  0.50250  0.84350  Biso   1.000  C
  C16      1.0000 0.97110  0.00250  0.65650  Biso   1.000  C
  H17      1.0000 0.03280  0.55470  0.15320  Biso   1.000  H
  H18      1.0000 0.96720  0.05470  0.34680  Biso   1.000  H
  H19      1.0000 0.96720  0.44530  0.84680  Biso   1.000  H
  H20      1.0000 0.03280  0.94530  0.65320  Biso   1.000  H
  C17      1.0000 0.98010  0.36700  0.19360  Biso   1.000  C
  C18      1.0000 0.01990  0.86700  0.30640  Biso   1.000  C
  C19      1.0000 0.01990  0.63300  0.80640  Biso   1.000  C
  C20      1.0000 0.98010  0.13300  0.69360  Biso   1.000  C
  H21      1.0000 0.04850  0.33490  0.21650  Biso   1.000  H
  H22      1.0000 0.95150  0.83490  0.28350  Biso   1.000  H
  H23      1.0000 0.95150  0.66510  0.78350  Biso   1.000  H
  H24      1.0000 0.04850  0.16510  0.71650  Biso   1.000  H
  C21      1.0000 0.89450  0.28500  0.19790  Biso   1.000  C
  C22      1.0000 0.10550  0.78500  0.30210  Biso   1.000  C
  C23      1.0000 0.10550  0.71500  0.80210  Biso   1.000  C
  C24      1.0000 0.89450  0.21500  0.69790  Biso   1.000  C
  H25      1.0000 0.90230  0.19350  0.22270  Biso   1.000  H
  H26      1.0000 0.09770  0.69350  0.27730  Biso   1.000  H
  H27      1.0000 0.09770  0.80650  0.77730  Biso   1.000  H
  H28      1.0000 0.90230  0.30650  0.72270  Biso   1.000  H
  C25      1.0000 0.79530  0.33210  0.16690  Biso   1.000  C
  C26      1.0000 0.20470  0.83210  0.33310  Biso   1.000  C
  C27      1.0000 0.20470  0.66790  0.83310  Biso   1.000  C
  C28      1.0000 0.79530  0.16790  0.66690  Biso   1.000  C
  H29      1.0000 0.73430  0.27450  0.17150  Biso   1.000  H
  H30      1.0000 0.26570  0.77450  0.32850  Biso   1.000  H
  H31      1.0000 0.26570  0.72550  0.82850  Biso   1.000  H
  H32      1.0000 0.73430  0.22550  0.67150  Biso   1.000  H
  C29      1.0000 0.78300  0.46020  0.12970  Biso   1.000  C
  C30      1.0000 0.21700  0.96020  0.37030  Biso   1.000  C
  C31      1.0000 0.21700  0.53980  0.87030  Biso   1.000  C
  C32      1.0000 0.78300  0.03980  0.62970  Biso   1.000  C
  C33      1.0000 0.67410  0.50870  0.09340  Biso   1.000  C
  C34      1.0000 0.32590  0.00870  0.40660  Biso   1.000  C
  C35      1.0000 0.32590  0.49130  0.90660  Biso   1.000  C
  C36      1.0000 0.67410  0.99130  0.59340  Biso   1.000  C
  H33      1.0000 0.62490  0.42920  0.09370  Biso   1.000  H
  H34      1.0000 0.37510  0.92920  0.40630  Biso   1.000  H
  H35      1.0000 0.37510  0.57080  0.90630  Biso   1.000  H
  H36      1.0000 0.62490  0.07080  0.59370  Biso   1.000  H
  H37      1.0000 0.67690  0.53240  0.04650  Biso   1.000  H
  H38      1.0000 0.32310  0.03240  0.45350  Biso   1.000  H
  H39      1.0000 0.32310  0.46760  0.95350  Biso   1.000  H
  H40      1.0000 0.67690  0.96760  0.54650  Biso   1.000  H
  C37      1.0000 0.50470  0.70600  0.07910  Biso   1.000  C
  C38      1.0000 0.49530  0.20600  0.42090  Biso   1.000  C
  C39      1.0000 0.49530  0.29400  0.92090  Biso   1.000  C
  C40      1.0000 0.50470  0.79400  0.57910  Biso   1.000  C
  H41      1.0000 0.47190  0.61380  0.06410  Biso   1.000  H
  H42      1.0000 0.52810  0.11380  0.43590  Biso   1.000  H
  H43      1.0000 0.52810  0.38620  0.93590  Biso   1.000  H
  H44      1.0000 0.47190  0.88620  0.56410  Biso   1.000  H
  H45      1.0000 0.45870  0.75670  0.10470  Biso   1.000  H
  H46      1.0000 0.54130  0.25670  0.39530  Biso   1.000  H
  H47      1.0000 0.54130  0.24330  0.89530  Biso   1.000  H
  H48      1.0000 0.45870  0.74330  0.60470  Biso   1.000  H
  C41      1.0000 0.51550  0.79640  0.01740  Biso   1.000  C
  C42      1.0000 0.48450  0.29640  0.48260  Biso   1.000  C
  C43      1.0000 0.48450  0.20360  0.98260  Biso   1.000  C
  C44      1.0000 0.51550  0.70360  0.51740  Biso   1.000  C
  H49      1.0000 0.44670  0.81920  0.99190  Biso   1.000  H
  H50      1.0000 0.55330  0.31920  0.50810  Biso   1.000  H
  H51      1.0000 0.55330  0.18080  0.00810  Biso   1.000  H
  H52      1.0000 0.44670  0.68080  0.49190  Biso   1.000  H
  H53      1.0000 0.55070  0.88740  0.03170  Biso   1.000  H
  H54      1.0000 0.44930  0.38740  0.46830  Biso   1.000  H
  H55      1.0000 0.44930  0.11260  0.96830  Biso   1.000  H
  H56      1.0000 0.55070  0.61260  0.53170  Biso   1.000  H
  C45      1.0000 0.60720  0.80500  0.92300  Biso   1.000  C
  C46      1.0000 0.39280  0.30500  0.57700  Biso   1.000  C
  C47      1.0000 0.39280  0.19500  0.07700  Biso   1.000  C
  C48      1.0000 0.60720  0.69500  0.42300  Biso   1.000  C
  H57      1.0000 0.64280  0.89220  0.94250  Biso   1.000  H
  H58      1.0000 0.35720  0.39220  0.55750  Biso   1.000  H
  H59      1.0000 0.35720  0.10780  0.05750  Biso   1.000  H
  H60      1.0000 0.64280  0.60780  0.44250  Biso   1.000  H
  H61      1.0000 0.54750  0.83370  0.88930  Biso   1.000  H
  H62      1.0000 0.45250  0.33370  0.61070  Biso   1.000  H
  H63      1.0000 0.45250  0.16630  0.11070  Biso   1.000  H
  H64      1.0000 0.54750  0.66630  0.38930  Biso   1.000  H
  C49      1.0000 0.68120  0.70960  0.89110  Biso   1.000  C
  C50      1.0000 0.31880  0.20960  0.60890  Biso   1.000  C
  C51      1.0000 0.31880  0.29040  0.10890  Biso   1.000  C
  C52      1.0000 0.68120  0.79040  0.39110  Biso   1.000  C
  H65      1.0000 0.64640  0.61760  0.87790  Biso   1.000  H
  H66      1.0000 0.35360  0.11760  0.62210  Biso   1.000  H
  H67      1.0000 0.35360  0.38240  0.12210  Biso   1.000  H
  H68      1.0000 0.64640  0.88240  0.37790  Biso   1.000  H
  H69      1.0000 0.74210  0.68830  0.92530  Biso   1.000  H
  H70      1.0000 0.25790  0.18830  0.57470  Biso   1.000  H
  H71      1.0000 0.25790  0.31170  0.07470  Biso   1.000  H
  H72      1.0000 0.74210  0.81170  0.42530  Biso   1.000  H
  C53      1.0000 0.83850  0.90160  0.85450  Biso   1.000  C
  C54      1.0000 0.16150  0.40160  0.64550  Biso   1.000  C
  C55      1.0000 0.16150  0.09840  0.14550  Biso   1.000  C
  C56      1.0000 0.83850  0.59840  0.35450  Biso   1.000  C
  H73      1.0000 0.88540  0.84180  0.88640  Biso   1.000  H
  H74      1.0000 0.11460  0.34180  0.61360  Biso   1.000  H
  H75      1.0000 0.11460  0.15820  0.11360  Biso   1.000  H
  H76      1.0000 0.88540  0.65820  0.38640  Biso   1.000  H
  H77      1.0000 0.87590  0.92860  0.81840  Biso   1.000  H
  H78      1.0000 0.12410  0.42860  0.68160  Biso   1.000  H
  H79      1.0000 0.12410  0.07140  0.18160  Biso   1.000  H
  H80      1.0000 0.87590  0.57140  0.31840  Biso   1.000  H
  C57      1.0000 0.81640  0.03880  0.89070  Biso   1.000  C
  C58      1.0000 0.18360  0.53880  0.60930  Biso   1.000  C
  C59      1.0000 0.18360  0.96120  0.10930  Biso   1.000  C
  C60      1.0000 0.81640  0.46120  0.39070  Biso   1.000  C
  C61      1.0000 0.78160  0.16230  0.85490  Biso   1.000  C
  C62      1.0000 0.21840  0.66230  0.64510  Biso   1.000  C
  C63      1.0000 0.21840  0.83770  0.14510  Biso   1.000  C
  C64      1.0000 0.78160  0.33770  0.35490  Biso   1.000  C
  H81      1.0000 0.76650  0.15690  0.80570  Biso   1.000  H
  H82      1.0000 0.23350  0.65690  0.69430  Biso   1.000  H
  H83      1.0000 0.23350  0.84310  0.19430  Biso   1.000  H
  H84      1.0000 0.76650  0.34310  0.30570  Biso   1.000  H
  C65      1.0000 0.76690  0.29630  0.88620  Biso   1.000  C
  C66      1.0000 0.23310  0.79630  0.61380  Biso   1.000  C
  C67      1.0000 0.23310  0.70370  0.11380  Biso   1.000  C
  C68      1.0000 0.76690  0.20370  0.38620  Biso   1.000  C
  H85      1.0000 0.74300  0.38200  0.85940  Biso   1.000  H
  H86      1.0000 0.25700  0.88200  0.64060  Biso   1.000  H
  H87      1.0000 0.25700  0.61800  0.14060  Biso   1.000  H
  H88      1.0000 0.74300  0.11800  0.35940  Biso   1.000  H
  C69      1.0000 0.78760  0.30180  0.95640  Biso   1.000  C
  C70      1.0000 0.21240  0.80180  0.54360  Biso   1.000  C
  C71      1.0000 0.21240  0.69820  0.04360  Biso   1.000  C
  C72      1.0000 0.78760  0.19820  0.45640  Biso   1.000  C
  H89      1.0000 0.77880  0.39340  0.97900  Biso   1.000  H
  H90      1.0000 0.22120  0.89340  0.52100  Biso   1.000  H
  H91      1.0000 0.22120  0.60660  0.02100  Biso   1.000  H
  H92      1.0000 0.77880  0.10660  0.47900  Biso   1.000  H
  C73      1.0000 0.82030  0.18070  0.99510  Biso   1.000  C
  C74      1.0000 0.17970  0.68070  0.50490  Biso   1.000  C
  C75      1.0000 0.17970  0.81930  0.00490  Biso   1.000  C
  C76      1.0000 0.82030  0.31930  0.49510  Biso   1.000  C
  H93      1.0000 0.83360  0.18690  0.04430  Biso   1.000  H
  H94      1.0000 0.16640  0.68690  0.45570  Biso   1.000  H
  H95      1.0000 0.16640  0.81310  0.95570  Biso   1.000  H
  H96      1.0000 0.83360  0.31310  0.54430  Biso   1.000  H
  C77      1.0000 0.83440  0.04770  0.96260  Biso   1.000  C
  C78      1.0000 0.16560  0.54770  0.53740  Biso   1.000  C
  C79      1.0000 0.16560  0.95230  0.03740  Biso   1.000  C
  C80      1.0000 0.83440  0.45230  0.46260  Biso   1.000  C
  N1       1.0000 0.48800  0.77530  0.24860  Biso   1.000  N
  N2       1.0000 0.51200  0.27530  0.25140  Biso   1.000  N
  N3       1.0000 0.51200  0.22470  0.75140  Biso   1.000  N
  N4       1.0000 0.48800  0.72470  0.74860  Biso   1.000  N
  N5       1.0000 0.46140  0.89530  0.25110  Biso   1.000  N
  N6       1.0000 0.53860  0.39530  0.24890  Biso   1.000  N
  N7       1.0000 0.53860  0.10470  0.74890  Biso   1.000  N
  N8       1.0000 0.46140  0.60470  0.75110  Biso   1.000  N
