data_image0
_cell_length_a       22.018
_cell_length_b       4.3769
_cell_length_c       18.259
_cell_angle_alpha    90
_cell_angle_beta     121.467
_cell_angle_gamma    90

_symmetry_space_group_name_H-M    "P 1"
_symmetry_int_tables_number       1

loop_
  _symmetry_equiv_pos_as_xyz
  'x, y, z'

loop_
  _atom_site_label
  _atom_site_occupancy
  _atom_site_fract_x
  _atom_site_fract_y
  _atom_site_fract_z
  _atom_site_thermal_displace_type
  _atom_site_B_iso_or_equiv
  _atom_site_type_symbol
  Br1      1.0000 0.16110  0.76860  0.23708  Biso   1.000  Br
  Br2      1.0000 0.66110  0.26860  0.23708  Biso   1.000  Br
  Br3      1.0000 0.83890  0.76860  0.26292  Biso   1.000  Br
  Br4      1.0000 0.33890  0.26860  0.26292  Biso   1.000  Br
  Br5      1.0000 0.83890  0.23140  0.76292  Biso   1.000  Br
  Br6      1.0000 0.33890  0.73140  0.76292  Biso   1.000  Br
  Br7      1.0000 0.16110  0.23140  0.73708  Biso   1.000  Br
  Br8      1.0000 0.66110  0.73140  0.73708  Biso   1.000  Br
  Cu1      1.0000 0.21532  0.40340  0.19320  Biso   1.000  Cu
  Cu2      1.0000 0.71532  0.90340  0.19320  Biso   1.000  Cu
  Cu3      1.0000 0.78468  0.40340  0.30680  Biso   1.000  Cu
  Cu4      1.0000 0.28468  0.90340  0.30680  Biso   1.000  Cu
  Cu5      1.0000 0.78468  0.59660  0.80680  Biso   1.000  Cu
  Cu6      1.0000 0.28468  0.09660  0.80680  Biso   1.000  Cu
  Cu7      1.0000 0.21532  0.59660  0.69320  Biso   1.000  Cu
  Cu8      1.0000 0.71532  0.09660  0.69320  Biso   1.000  Cu
  N1       1.0000 0.16000  0.24600  0.07110  Biso   1.000  N
  N2       1.0000 0.66000  0.74600  0.07110  Biso   1.000  N
  N3       1.0000 0.84000  0.24600  0.42890  Biso   1.000  N
  N4       1.0000 0.34000  0.74600  0.42890  Biso   1.000  N
  N5       1.0000 0.84000  0.75400  0.92890  Biso   1.000  N
  N6       1.0000 0.34000  0.25400  0.92890  Biso   1.000  N
  N7       1.0000 0.16000  0.75400  0.57110  Biso   1.000  N
  N8       1.0000 0.66000  0.25400  0.57110  Biso   1.000  N
  C1       1.0000 0.04840  0.10800  0.94560  Biso   1.000  C
  C2       1.0000 0.54840  0.60800  0.94560  Biso   1.000  C
  C3       1.0000 0.95160  0.10800  0.55440  Biso   1.000  C
  C4       1.0000 0.45160  0.60800  0.55440  Biso   1.000  C
  C5       1.0000 0.95160  0.89200  0.05440  Biso   1.000  C
  C6       1.0000 0.45160  0.39200  0.05440  Biso   1.000  C
  C7       1.0000 0.04840  0.89200  0.44560  Biso   1.000  C
  C8       1.0000 0.54840  0.39200  0.44560  Biso   1.000  C
  H1       1.0000 0.99900  0.11980  0.91530  Biso   1.000  H
  H2       1.0000 0.49900  0.61980  0.91530  Biso   1.000  H
  H3       1.0000 0.00100  0.11980  0.58470  Biso   1.000  H
  H4       1.0000 0.50100  0.61980  0.58470  Biso   1.000  H
  H5       1.0000 0.00100  0.88020  0.08470  Biso   1.000  H
  H6       1.0000 0.50100  0.38020  0.08470  Biso   1.000  H
  H7       1.0000 0.99900  0.88020  0.41530  Biso   1.000  H
  H8       1.0000 0.49900  0.38020  0.41530  Biso   1.000  H
  C9       1.0000 0.08850  0.25400  0.02550  Biso   1.000  C
  C10      1.0000 0.58850  0.75400  0.02550  Biso   1.000  C
  C11      1.0000 0.91150  0.25400  0.47450  Biso   1.000  C
  C12      1.0000 0.41150  0.75400  0.47450  Biso   1.000  C
  C13      1.0000 0.91150  0.74600  0.97450  Biso   1.000  C
  C14      1.0000 0.41150  0.24600  0.97450  Biso   1.000  C
  C15      1.0000 0.08850  0.74600  0.52550  Biso   1.000  C
  C16      1.0000 0.58850  0.24600  0.52550  Biso   1.000  C
  H9       1.0000 0.06480  0.35860  0.04750  Biso   1.000  H
  H10      1.0000 0.56480  0.85860  0.04750  Biso   1.000  H
  H11      1.0000 0.93520  0.35860  0.45250  Biso   1.000  H
  H12      1.0000 0.43520  0.85860  0.45250  Biso   1.000  H
  H13      1.0000 0.93520  0.64140  0.95250  Biso   1.000  H
  H14      1.0000 0.43520  0.14140  0.95250  Biso   1.000  H
  H15      1.0000 0.06480  0.64140  0.54750  Biso   1.000  H
  H16      1.0000 0.56480  0.14140  0.54750  Biso   1.000  H
  C17      1.0000 0.19100  0.09800  0.03690  Biso   1.000  C
  C18      1.0000 0.69100  0.59800  0.03690  Biso   1.000  C
  C19      1.0000 0.80900  0.09800  0.46310  Biso   1.000  C
  C20      1.0000 0.30900  0.59800  0.46310  Biso   1.000  C
  C21      1.0000 0.80900  0.90200  0.96310  Biso   1.000  C
  C22      1.0000 0.30900  0.40200  0.96310  Biso   1.000  C
  C23      1.0000 0.19100  0.90200  0.53690  Biso   1.000  C
  C24      1.0000 0.69100  0.40200  0.53690  Biso   1.000  C
  H17      1.0000 0.24050  0.09010  0.06780  Biso   1.000  H
  H18      1.0000 0.74050  0.59010  0.06780  Biso   1.000  H
  H19      1.0000 0.75950  0.09010  0.43220  Biso   1.000  H
  H20      1.0000 0.25950  0.59010  0.43220  Biso   1.000  H
  H21      1.0000 0.75950  0.90990  0.93220  Biso   1.000  H
  H22      1.0000 0.25950  0.40990  0.93220  Biso   1.000  H
  H23      1.0000 0.24050  0.90990  0.56780  Biso   1.000  H
  H24      1.0000 0.74050  0.40990  0.56780  Biso   1.000  H
  C25      1.0000 0.00000  0.98400  0.75000  Biso   1.000  C
  C26      1.0000 0.50000  0.48400  0.75000  Biso   1.000  C
  C27      1.0000 0.00000  0.01600  0.25000  Biso   1.000  C
  C28      1.0000 0.50000  0.51600  0.25000  Biso   1.000  C
  C29      1.0000 0.04110  0.77800  0.82940  Biso   1.000  C
  C30      1.0000 0.54110  0.27800  0.82940  Biso   1.000  C
  C31      1.0000 0.95890  0.77800  0.67060  Biso   1.000  C
  C32      1.0000 0.45890  0.27800  0.67060  Biso   1.000  C
  C33      1.0000 0.95890  0.22200  0.17060  Biso   1.000  C
  C34      1.0000 0.45890  0.72200  0.17060  Biso   1.000  C
  C35      1.0000 0.04110  0.22200  0.32940  Biso   1.000  C
  C36      1.0000 0.54110  0.72200  0.32940  Biso   1.000  C
  H25      1.0000 0.00760  0.64230  0.83240  Biso   1.000  H
  H26      1.0000 0.50760  0.14230  0.83240  Biso   1.000  H
  H27      1.0000 0.99240  0.64230  0.66760  Biso   1.000  H
  H28      1.0000 0.49240  0.14230  0.66760  Biso   1.000  H
  H29      1.0000 0.99240  0.35770  0.16760  Biso   1.000  H
  H30      1.0000 0.49240  0.85770  0.16760  Biso   1.000  H
  H31      1.0000 0.00760  0.35770  0.33240  Biso   1.000  H
  H32      1.0000 0.50760  0.85770  0.33240  Biso   1.000  H
  H33      1.0000 0.07400  0.65200  0.82240  Biso   1.000  H
  H34      1.0000 0.57400  0.15200  0.82240  Biso   1.000  H
  H35      1.0000 0.92600  0.65200  0.67760  Biso   1.000  H
  H36      1.0000 0.42600  0.15200  0.67760  Biso   1.000  H
  H37      1.0000 0.92600  0.34800  0.17760  Biso   1.000  H
  H38      1.0000 0.42600  0.84800  0.17760  Biso   1.000  H
  H39      1.0000 0.07400  0.34800  0.32240  Biso   1.000  H
  H40      1.0000 0.57400  0.84800  0.32240  Biso   1.000  H
  C37      1.0000 0.08200  0.94900  0.91240  Biso   1.000  C
  C38      1.0000 0.58200  0.44900  0.91240  Biso   1.000  C
  C39      1.0000 0.91800  0.94900  0.58760  Biso   1.000  C
  C40      1.0000 0.41800  0.44900  0.58760  Biso   1.000  C
  C41      1.0000 0.91800  0.05100  0.08760  Biso   1.000  C
  C42      1.0000 0.41800  0.55100  0.08760  Biso   1.000  C
  C43      1.0000 0.08200  0.05100  0.41240  Biso   1.000  C
  C44      1.0000 0.58200  0.55100  0.41240  Biso   1.000  C
  C45      1.0000 0.15560  0.95400  0.95890  Biso   1.000  C
  C46      1.0000 0.65560  0.45400  0.95890  Biso   1.000  C
  C47      1.0000 0.84440  0.95400  0.54110  Biso   1.000  C
  C48      1.0000 0.34440  0.45400  0.54110  Biso   1.000  C
  C49      1.0000 0.84440  0.04600  0.04110  Biso   1.000  C
  C50      1.0000 0.34440  0.54600  0.04110  Biso   1.000  C
  C51      1.0000 0.15560  0.04600  0.45890  Biso   1.000  C
  C52      1.0000 0.65560  0.54600  0.45890  Biso   1.000  C
  H41      1.0000 0.18090  0.85950  0.93730  Biso   1.000  H
  H42      1.0000 0.68090  0.35950  0.93730  Biso   1.000  H
  H43      1.0000 0.81910  0.85950  0.56270  Biso   1.000  H
  H44      1.0000 0.31910  0.35950  0.56270  Biso   1.000  H
  H45      1.0000 0.81910  0.14050  0.06270  Biso   1.000  H
  H46      1.0000 0.31910  0.64050  0.06270  Biso   1.000  H
  H47      1.0000 0.18090  0.14050  0.43730  Biso   1.000  H
  H48      1.0000 0.68090  0.64050  0.43730  Biso   1.000  H
