data_image0
_cell_length_a       10.868
_cell_length_b       13.951
_cell_length_c       19.474
_cell_angle_alpha    86.82
_cell_angle_beta     88.76
_cell_angle_gamma    76.72

_symmetry_space_group_name_H-M    "P 1"
_symmetry_int_tables_number       1

loop_
  _symmetry_equiv_pos_as_xyz
  'x, y, z'

loop_
  _atom_site_label
  _atom_site_occupancy
  _atom_site_fract_x
  _atom_site_fract_y
  _atom_site_fract_z
  _atom_site_thermal_displace_type
  _atom_site_B_iso_or_equiv
  _atom_site_type_symbol
  Cu1      1.0000 0.11868  0.33070  0.92727  Biso   1.000  Cu
  Cu2      1.0000 0.88132  0.66930  0.07273  Biso   1.000  Cu
  Cu3      1.0000 0.08964  0.50876  0.05204  Biso   1.000  Cu
  Cu4      1.0000 0.91036  0.49124  0.94796  Biso   1.000  Cu
  I1       1.0000 0.11884  0.68297  0.09191  Biso   1.000  I
  I2       1.0000 0.88116  0.31703  0.90809  Biso   1.000  I
  I3       1.0000 0.13919  0.51357  0.91509  Biso   1.000  I
  I4       1.0000 0.86081  0.48643  0.08491  Biso   1.000  I
  N1       1.0000 0.58590  0.83210  0.20180  Biso   1.000  N
  N2       1.0000 0.41410  0.16790  0.79820  Biso   1.000  N
  N3       1.0000 0.77990  0.74990  0.14840  Biso   1.000  N
  N4       1.0000 0.22010  0.25010  0.85160  Biso   1.000  N
  N5       1.0000 0.38340  0.24280  0.08620  Biso   1.000  N
  N6       1.0000 0.61660  0.75720  0.91380  Biso   1.000  N
  N7       1.0000 0.24800  0.40530  0.08520  Biso   1.000  N
  N8       1.0000 0.75200  0.59470  0.91480  Biso   1.000  N
  S1       1.0000 0.57504  0.75254  0.08061  Biso   1.000  S
  S2       1.0000 0.42496  0.24746  0.91939  Biso   1.000  S
  S3       1.0000 0.14802  0.26592  0.03979  Biso   1.000  S
  S4       1.0000 0.85198  0.73408  0.96021  Biso   1.000  S
  C1       1.0000 0.65220  0.78230  0.15160  Biso   1.000  C
  C2       1.0000 0.34780  0.21770  0.84840  Biso   1.000  C
  C3       1.0000 0.84140  0.76790  0.20370  Biso   1.000  C
  C4       1.0000 0.15860  0.23210  0.79630  Biso   1.000  C
  H1       1.0000 0.92970  0.74520  0.20500  Biso   1.000  H
  H2       1.0000 0.07030  0.25480  0.79500  Biso   1.000  H
  C5       1.0000 0.78230  0.81730  0.25780  Biso   1.000  C
  C6       1.0000 0.21770  0.18270  0.74220  Biso   1.000  C
  H3       1.0000 0.82830  0.82810  0.29580  Biso   1.000  H
  H4       1.0000 0.17170  0.17190  0.70420  Biso   1.000  H
  C7       1.0000 0.65120  0.85140  0.25530  Biso   1.000  C
  C8       1.0000 0.34880  0.14860  0.74470  Biso   1.000  C
  C9       1.0000 0.58080  0.91310  0.30840  Biso   1.000  C
  C10      1.0000 0.41920  0.08690  0.69160  Biso   1.000  C
  C11      1.0000 0.64260  0.95830  0.35480  Biso   1.000  C
  C12      1.0000 0.35740  0.04170  0.64520  Biso   1.000  C
  H5       1.0000 0.73090  0.94980  0.35200  Biso   1.000  H
  H6       1.0000 0.26910  0.05020  0.64800  Biso   1.000  H
  C13      1.0000 0.57570  0.01510  0.40460  Biso   1.000  C
  C14      1.0000 0.42430  0.98490  0.59540  Biso   1.000  C
  H7       1.0000 0.61890  0.04410  0.43590  Biso   1.000  H
  H8       1.0000 0.38110  0.95590  0.56410  Biso   1.000  H
  C15      1.0000 0.44670  0.03000  0.40910  Biso   1.000  C
  C16      1.0000 0.55330  0.97000  0.59090  Biso   1.000  C
  H9       1.0000 0.40100  0.06990  0.44270  Biso   1.000  H
  H10      1.0000 0.59900  0.93010  0.55730  Biso   1.000  H
  C17      1.0000 0.38460  0.98500  0.36290  Biso   1.000  C
  C18      1.0000 0.61540  0.01500  0.63710  Biso   1.000  C
  H11      1.0000 0.29630  0.99380  0.36610  Biso   1.000  H
  H12      1.0000 0.70370  0.00620  0.63390  Biso   1.000  H
  C19      1.0000 0.44950  0.92870  0.31330  Biso   1.000  C
  C20      1.0000 0.55050  0.07130  0.68670  Biso   1.000  C
  H13      1.0000 0.40560  0.89990  0.28220  Biso   1.000  H
  H14      1.0000 0.59440  0.10010  0.71780  Biso   1.000  H
  C21      1.0000 0.41270  0.81250  0.09610  Biso   1.000  C
  C22      1.0000 0.58730  0.18750  0.90390  Biso   1.000  C
  H15      1.0000 0.35960  0.78450  0.06650  Biso   1.000  H
  H16      1.0000 0.64040  0.21550  0.93350  Biso   1.000  H
  H17      1.0000 0.39150  0.79630  0.14390  Biso   1.000  H
  H18      1.0000 0.60850  0.20370  0.85610  Biso   1.000  H
  C23      1.0000 0.37810  0.92300  0.08440  Biso   1.000  C
  C24      1.0000 0.62190  0.07700  0.91560  Biso   1.000  C
  H19      1.0000 0.39580  0.94010  0.03620  Biso   1.000  H
  H20      1.0000 0.60420  0.05990  0.96380  Biso   1.000  H
  H21      1.0000 0.43150  0.95190  0.11320  Biso   1.000  H
  H22      1.0000 0.56850  0.04810  0.88680  Biso   1.000  H
  C25      1.0000 0.23990  0.96810  0.10060  Biso   1.000  C
  C26      1.0000 0.76010  0.03190  0.89940  Biso   1.000  C
  H23      1.0000 0.18780  0.94980  0.06530  Biso   1.000  H
  H24      1.0000 0.81220  0.05020  0.93470  Biso   1.000  H
  H25      1.0000 0.21810  0.93860  0.14470  Biso   1.000  H
  H26      1.0000 0.78190  0.06140  0.85530  Biso   1.000  H
  C27      1.0000 0.20500  0.07940  0.10440  Biso   1.000  C
  C28      1.0000 0.79500  0.92060  0.89560  Biso   1.000  C
  H27      1.0000 0.11890  0.09930  0.12300  Biso   1.000  H
  H28      1.0000 0.88110  0.90070  0.87700  Biso   1.000  H
  H29      1.0000 0.26210  0.09890  0.13640  Biso   1.000  H
  H30      1.0000 0.73790  0.90110  0.86360  Biso   1.000  H
  C29      1.0000 0.21180  0.13350  0.03570  Biso   1.000  C
  C30      1.0000 0.78820  0.86650  0.96430  Biso   1.000  C
  H31      1.0000 0.16430  0.10750  0.00180  Biso   1.000  H
  H32      1.0000 0.83570  0.89250  0.99820  Biso   1.000  H
  H33      1.0000 0.30020  0.12170  0.02010  Biso   1.000  H
  H34      1.0000 0.69980  0.87830  0.97990  Biso   1.000  H
  C31      1.0000 0.27350  0.30740  0.07530  Biso   1.000  C
  C32      1.0000 0.72650  0.69260  0.92470  Biso   1.000  C
  C33      1.0000 0.34230  0.43740  0.11020  Biso   1.000  C
  C34      1.0000 0.65770  0.56260  0.88980  Biso   1.000  C
  H35      1.0000 0.32800  0.50380  0.12110  Biso   1.000  H
  H36      1.0000 0.67200  0.49620  0.87890  Biso   1.000  H
  C35      1.0000 0.46160  0.37700  0.12090  Biso   1.000  C
  C36      1.0000 0.53840  0.62300  0.87910  Biso   1.000  C
  H37      1.0000 0.52790  0.40260  0.13680  Biso   1.000  H
  H38      1.0000 0.47210  0.59740  0.86320  Biso   1.000  H
  C37      1.0000 0.48060  0.27890  0.10750  Biso   1.000  C
  C38      1.0000 0.51940  0.72110  0.89250  Biso   1.000  C
  C39      1.0000 0.60480  0.20890  0.11410  Biso   1.000  C
  C40      1.0000 0.39520  0.79110  0.88590  Biso   1.000  C
  C41      1.0000 0.71590  0.23880  0.09750  Biso   1.000  C
  C42      1.0000 0.28410  0.76120  0.90250  Biso   1.000  C
  H39      1.0000 0.71190  0.30470  0.08280  Biso   1.000  H
  H40      1.0000 0.28810  0.69530  0.91720  Biso   1.000  H
  C43      1.0000 0.83070  0.17360  0.10240  Biso   1.000  C
  C44      1.0000 0.16930  0.82640  0.89760  Biso   1.000  C
  H41      1.0000 0.90520  0.19490  0.09150  Biso   1.000  H
  H42      1.0000 0.09480  0.80510  0.90850  Biso   1.000  H
  C45      1.0000 0.83690  0.07720  0.12320  Biso   1.000  C
  C46      1.0000 0.16310  0.92280  0.87680  Biso   1.000  C
  H43      1.0000 0.91600  0.03260  0.12730  Biso   1.000  H
  H44      1.0000 0.08400  0.96740  0.87270  Biso   1.000  H
  C47      1.0000 0.73050  0.04560  0.13770  Biso   1.000  C
  C48      1.0000 0.26950  0.95440  0.86230  Biso   1.000  C
  H45      1.0000 0.73610  0.97920  0.15170  Biso   1.000  H
  H46      1.0000 0.26390  0.02080  0.84830  Biso   1.000  H
  C49      1.0000 0.61380  0.10980  0.13210  Biso   1.000  C
  C50      1.0000 0.38620  0.89020  0.86790  Biso   1.000  C
  H47      1.0000 0.54000  0.08650  0.14060  Biso   1.000  H
  H48      1.0000 0.46000  0.91350  0.85940  Biso   1.000  H
  Cu5      1.0000 0.95780  0.02516  0.42964  Biso   1.000  Cu
  Cu6      1.0000 0.04220  0.97484  0.57036  Biso   1.000  Cu
  Cu7      1.0000 0.90836  0.18751  0.57057  Biso   1.000  Cu
  Cu8      1.0000 0.09164  0.81249  0.42943  Biso   1.000  Cu
  I5       1.0000 0.10743  0.11761  0.49598  Biso   1.000  I
  I6       1.0000 0.89257  0.88239  0.50402  Biso   1.000  I
  I7       1.0000 0.06890  0.93496  0.31650  Biso   1.000  I
  I8       1.0000 0.93110  0.06504  0.68350  Biso   1.000  I
  N9       1.0000 0.66510  0.29290  0.40230  Biso   1.000  N
  N10      1.0000 0.33490  0.70710  0.59770  Biso   1.000  N
  N11      1.0000 0.82230  0.14460  0.39040  Biso   1.000  N
  N12      1.0000 0.17770  0.85540  0.60960  Biso   1.000  N
  N13      1.0000 0.12630  0.50260  0.40500  Biso   1.000  N
  N14      1.0000 0.87370  0.49740  0.59500  Biso   1.000  N
  N15      1.0000 0.09950  0.67810  0.39140  Biso   1.000  N
  N16      1.0000 0.90050  0.32190  0.60860  Biso   1.000  N
  S5       1.0000 0.72627  0.17276  0.51435  Biso   1.000  S
  S6       1.0000 0.27373  0.82724  0.48565  Biso   1.000  S
  S7       1.0000 0.14644  0.60127  0.51582  Biso   1.000  S
  S8       1.0000 0.85356  0.39873  0.48418  Biso   1.000  S
  C51      1.0000 0.73770  0.20850  0.42580  Biso   1.000  C
  C52      1.0000 0.26230  0.79150  0.57420  Biso   1.000  C
  C53      1.0000 0.83100  0.17000  0.32310  Biso   1.000  C
  C54      1.0000 0.16900  0.83000  0.67690  Biso   1.000  C
  H49      1.0000 0.88700  0.12680  0.29510  Biso   1.000  H
  H50      1.0000 0.11300  0.87320  0.70490  Biso   1.000  H
  C55      1.0000 0.76200  0.25570  0.29390  Biso   1.000  C
  C56      1.0000 0.23800  0.74430  0.70610  Biso   1.000  C
  H51      1.0000 0.76950  0.27130  0.24670  Biso   1.000  H
  H52      1.0000 0.23050  0.72870  0.75330  Biso   1.000  H
  C57      1.0000 0.68000  0.32010  0.33540  Biso   1.000  C
  C58      1.0000 0.32000  0.67990  0.66460  Biso   1.000  C
  C59      1.0000 0.60590  0.41690  0.31020  Biso   1.000  C
  C60      1.0000 0.39410  0.58310  0.68980  Biso   1.000  C
  C61      1.0000 0.65080  0.46840  0.25640  Biso   1.000  C
  C62      1.0000 0.34920  0.53160  0.74360  Biso   1.000  C
  H53      1.0000 0.72870  0.44140  0.23520  Biso   1.000  H
  H54      1.0000 0.27130  0.55860  0.76480  Biso   1.000  H
  C63      1.0000 0.58030  0.56000  0.23380  Biso   1.000  C
  C64      1.0000 0.41970  0.44000  0.76620  Biso   1.000  C
  H55      1.0000 0.61050  0.59410  0.19660  Biso   1.000  H
  H56      1.0000 0.38950  0.40590  0.80340  Biso   1.000  H
  C65      1.0000 0.46720  0.60250  0.26450  Biso   1.000  C
  C66      1.0000 0.53280  0.39750  0.73550  Biso   1.000  C
  H57      1.0000 0.42050  0.66480  0.24850  Biso   1.000  H
  H58      1.0000 0.57950  0.33520  0.75150  Biso   1.000  H
  C67      1.0000 0.42400  0.55240  0.31890  Biso   1.000  C
  C68      1.0000 0.57600  0.44760  0.68110  Biso   1.000  C
  H59      1.0000 0.34740  0.58060  0.34090  Biso   1.000  H
  H60      1.0000 0.65260  0.41940  0.65910  Biso   1.000  H
  C69      1.0000 0.49330  0.45980  0.34180  Biso   1.000  C
  C70      1.0000 0.50670  0.54020  0.65820  Biso   1.000  C
  H61      1.0000 0.46310  0.42600  0.37930  Biso   1.000  H
  H62      1.0000 0.53690  0.57400  0.62070  Biso   1.000  H
  C71      1.0000 0.59200  0.26460  0.54410  Biso   1.000  C
  C72      1.0000 0.40800  0.73540  0.45590  Biso   1.000  C
  H63      1.0000 0.59590  0.26650  0.59420  Biso   1.000  H
  H64      1.0000 0.40410  0.73350  0.40580  Biso   1.000  H
  H65      1.0000 0.59730  0.32960  0.52410  Biso   1.000  H
  H66      1.0000 0.40270  0.67040  0.47590  Biso   1.000  H
  C73      1.0000 0.46750  0.24440  0.52520  Biso   1.000  C
  C74      1.0000 0.53250  0.75560  0.47480  Biso   1.000  C
  H67      1.0000 0.46760  0.17590  0.53960  Biso   1.000  H
  H68      1.0000 0.53240  0.82410  0.46040  Biso   1.000  H
  H69      1.0000 0.45960  0.25090  0.47510  Biso   1.000  H
  H70      1.0000 0.54040  0.74910  0.52490  Biso   1.000  H
  C75      1.0000 0.35190  0.31200  0.55700  Biso   1.000  C
  C76      1.0000 0.64810  0.68800  0.44300  Biso   1.000  C
  H71      1.0000 0.36520  0.31220  0.60660  Biso   1.000  H
  H72      1.0000 0.63480  0.68780  0.39340  Biso   1.000  H
  H73      1.0000 0.27810  0.28420  0.55060  Biso   1.000  H
  H74      1.0000 0.72190  0.71580  0.44940  Biso   1.000  H
  C77      1.0000 0.32210  0.41870  0.52750  Biso   1.000  C
  C78      1.0000 0.67790  0.58130  0.47250  Biso   1.000  C
  H75      1.0000 0.38410  0.45280  0.54420  Biso   1.000  H
  H76      1.0000 0.61590  0.54720  0.45580  Biso   1.000  H
  H77      1.0000 0.32900  0.41910  0.47720  Biso   1.000  H
  H78      1.0000 0.67100  0.58090  0.52280  Biso   1.000  H
  C79      1.0000 0.19020  0.47320  0.54800  Biso   1.000  C
  C80      1.0000 0.80980  0.52680  0.45200  Biso   1.000  C
  H79      1.0000 0.18390  0.47110  0.59830  Biso   1.000  H
  H80      1.0000 0.81610  0.52890  0.40170  Biso   1.000  H
  H81      1.0000 0.12910  0.43840  0.53110  Biso   1.000  H
  H82      1.0000 0.87090  0.56160  0.46890  Biso   1.000  H
  C81      1.0000 0.12160  0.59060  0.42870  Biso   1.000  C
  C82      1.0000 0.87840  0.40940  0.57130  Biso   1.000  C
  C83      1.0000 0.08140  0.66900  0.32350  Biso   1.000  C
  C84      1.0000 0.91860  0.33100  0.67650  Biso   1.000  C
  H83      1.0000 0.06620  0.72680  0.29470  Biso   1.000  H
  H84      1.0000 0.93380  0.27320  0.70530  Biso   1.000  H
  C85      1.0000 0.08350  0.58320  0.29430  Biso   1.000  C
  C86      1.0000 0.91650  0.41680  0.70570  Biso   1.000  C
  H85      1.0000 0.07060  0.58120  0.24680  Biso   1.000  H
  H86      1.0000 0.92940  0.41880  0.75320  Biso   1.000  H
  C87      1.0000 0.10550  0.49840  0.33680  Biso   1.000  C
  C88      1.0000 0.89450  0.50160  0.66320  Biso   1.000  C
  C89      1.0000 0.11260  0.39920  0.31230  Biso   1.000  C
  C90      1.0000 0.88740  0.60080  0.68770  Biso   1.000  C
  C91      1.0000 0.06060  0.38840  0.24930  Biso   1.000  C
  C92      1.0000 0.93940  0.61160  0.75070  Biso   1.000  C
  H87      1.0000 0.01910  0.44450  0.22290  Biso   1.000  H
  H88      1.0000 0.98090  0.55550  0.77710  Biso   1.000  H
  C93      1.0000 0.06960  0.29510  0.22520  Biso   1.000  C
  C94      1.0000 0.93040  0.70490  0.77480  Biso   1.000  C
  H89      1.0000 0.03440  0.28860  0.18250  Biso   1.000  H
  H90      1.0000 0.96560  0.71140  0.81750  Biso   1.000  H
  C95      1.0000 0.12810  0.21450  0.26220  Biso   1.000  C
  C96      1.0000 0.87190  0.78550  0.73780  Biso   1.000  C
  H91      1.0000 0.13500  0.15140  0.24580  Biso   1.000  H
  H92      1.0000 0.86500  0.84860  0.75420  Biso   1.000  H
  C97      1.0000 0.17710  0.22560  0.32380  Biso   1.000  C
  C98      1.0000 0.82290  0.77440  0.67620  Biso   1.000  C
  H93      1.0000 0.21830  0.16900  0.34970  Biso   1.000  H
  H94      1.0000 0.78170  0.83100  0.65030  Biso   1.000  H
  C99      1.0000 0.16890  0.31760  0.35020  Biso   1.000  C
  C100     1.0000 0.83110  0.68240  0.64980  Biso   1.000  C
  H95      1.0000 0.20190  0.32280  0.39370  Biso   1.000  H
  H96      1.0000 0.79810  0.67720  0.60630  Biso   1.000  H
