data_image0
_cell_length_a       7.6628
_cell_length_b       8.355
_cell_length_c       11.668
_cell_angle_alpha    95.2
_cell_angle_beta     102.55
_cell_angle_gamma    93.44

_symmetry_space_group_name_H-M    "P 1"
_symmetry_int_tables_number       1

loop_
  _symmetry_equiv_pos_as_xyz
  'x, y, z'

loop_
  _atom_site_label
  _atom_site_occupancy
  _atom_site_fract_x
  _atom_site_fract_y
  _atom_site_fract_z
  _atom_site_thermal_displace_type
  _atom_site_B_iso_or_equiv
  _atom_site_type_symbol
  Cu1      1.0000 0.85797  0.04268  0.03832  Biso   1.000  Cu
  Cu2      1.0000 0.14203  0.95732  0.96168  Biso   1.000  Cu
  Cu3      1.0000 0.54138  0.86937  0.91211  Biso   1.000  Cu
  Cu4      1.0000 0.45862  0.13063  0.08789  Biso   1.000  Cu
  I1       1.0000 0.65417  0.87508  0.14171  Biso   1.000  I
  I2       1.0000 0.34583  0.12492  0.85829  Biso   1.000  I
  I3       1.0000 0.18014  0.07429  0.18703  Biso   1.000  I
  I4       1.0000 0.81986  0.92571  0.81297  Biso   1.000  I
  N1       1.0000 0.88820  0.49140  0.22070  Biso   1.000  N
  N2       1.0000 0.11180  0.50860  0.77930  Biso   1.000  N
  N3       1.0000 0.60640  0.33430  0.17650  Biso   1.000  N
  N4       1.0000 0.39360  0.66570  0.82350  Biso   1.000  N
  C1       1.0000 0.76160  0.38830  0.15250  Biso   1.000  C
  C2       1.0000 0.23840  0.61170  0.84750  Biso   1.000  C
  C3       1.0000 0.57550  0.40430  0.27660  Biso   1.000  C
  C4       1.0000 0.42450  0.59570  0.72340  Biso   1.000  C
  H1       1.0000 0.46560  0.37640  0.29600  Biso   1.000  H
  H2       1.0000 0.53440  0.62360  0.70400  Biso   1.000  H
  C5       1.0000 0.69570  0.51530  0.35330  Biso   1.000  C
  C6       1.0000 0.30430  0.48470  0.64670  Biso   1.000  C
  H3       1.0000 0.66930  0.56220  0.42320  Biso   1.000  H
  H4       1.0000 0.33070  0.43780  0.57680  Biso   1.000  H
  C7       1.0000 0.85730  0.55520  0.32330  Biso   1.000  C
  C8       1.0000 0.14270  0.44480  0.67670  Biso   1.000  C
  C9       1.0000 0.00390  0.66510  0.39900  Biso   1.000  C
  C10      1.0000 0.99610  0.33490  0.60100  Biso   1.000  C
  C11      1.0000 0.98530  0.75070  0.50350  Biso   1.000  C
  C12      1.0000 0.01470  0.24930  0.49650  Biso   1.000  C
  H5       1.0000 0.87610  0.73890  0.52730  Biso   1.000  H
  H6       1.0000 0.12390  0.26110  0.47270  Biso   1.000  H
  C13      1.0000 0.12280  0.85100  0.57150  Biso   1.000  C
  C14      1.0000 0.87720  0.14900  0.42850  Biso   1.000  C
  H7       1.0000 0.10730  0.90800  0.64140  Biso   1.000  H
  H8       1.0000 0.89270  0.09200  0.35860  Biso   1.000  H
  C15      1.0000 0.28410  0.86960  0.53890  Biso   1.000  C
  C16      1.0000 0.71590  0.13040  0.46110  Biso   1.000  C
  H9       1.0000 0.37790  0.93930  0.58680  Biso   1.000  H
  H10      1.0000 0.62210  0.06070  0.41320  Biso   1.000  H
  C17      1.0000 0.30950  0.78880  0.43880  Biso   1.000  C
  C18      1.0000 0.69050  0.21120  0.56120  Biso   1.000  C
  H11      1.0000 0.42060  0.80140  0.41760  Biso   1.000  H
  H12      1.0000 0.57940  0.19860  0.58240  Biso   1.000  H
  C19      1.0000 0.16590  0.68400  0.36560  Biso   1.000  C
  C20      1.0000 0.83410  0.31600  0.63440  Biso   1.000  C
  H13      1.0000 0.18150  0.62850  0.29520  Biso   1.000  H
  H14      1.0000 0.81850  0.37150  0.70480  Biso   1.000  H
  C21      1.0000 0.00900  0.41270  0.01200  Biso   1.000  C
  C22      1.0000 0.99100  0.58730  0.98800  Biso   1.000  C
  H15      1.0000 0.09180  0.40890  0.08840  Biso   1.000  H
  H16      1.0000 0.90820  0.59110  0.91160  Biso   1.000  H
  H17      1.0000 0.05960  0.35650  0.95090  Biso   1.000  H
  H18      1.0000 0.94040  0.64350  0.04910  Biso   1.000  H
  S1       1.0000 0.79509  0.31108  0.01346  Biso   1.000  S
  S2       1.0000 0.20491  0.68892  0.98654  Biso   1.000  S
