data_image0
_cell_length_a       10.357
_cell_length_b       11.51
_cell_length_c       13.13
_cell_angle_alpha    93.44
_cell_angle_beta     102.57
_cell_angle_gamma    97.87

_symmetry_space_group_name_H-M    "P 1"
_symmetry_int_tables_number       1

loop_
  _symmetry_equiv_pos_as_xyz
  'x, y, z'

loop_
  _atom_site_label
  _atom_site_occupancy
  _atom_site_fract_x
  _atom_site_fract_y
  _atom_site_fract_z
  _atom_site_thermal_displace_type
  _atom_site_B_iso_or_equiv
  _atom_site_type_symbol
  Cu1      1.0000 0.95234  0.27396  0.28233  Biso   1.000  Cu
  Cu2      1.0000 0.04766  0.72604  0.71767  Biso   1.000  Cu
  Cu3      1.0000 0.92034  0.01381  0.19501  Biso   1.000  Cu
  Cu4      1.0000 0.07966  0.98619  0.80499  Biso   1.000  Cu
  Cu5      1.0000 0.14522  0.99340  0.03268  Biso   1.000  Cu
  Cu6      1.0000 0.85478  0.00660  0.96732  Biso   1.000  Cu
  I1       1.0000 0.90487  0.09297  0.38060  Biso   1.000  I
  I2       1.0000 0.09513  0.90703  0.61940  Biso   1.000  I
  I3       1.0000 0.02957  0.17448  0.09199  Biso   1.000  I
  I4       1.0000 0.97043  0.82552  0.90801  Biso   1.000  I
  I5       1.0000 0.68234  0.92573  0.07838  Biso   1.000  I
  I6       1.0000 0.31766  0.07427  0.92162  Biso   1.000  I
  N1       1.0000 0.64040  0.48450  0.23370  Biso   1.000  N
  N2       1.0000 0.35960  0.51550  0.76630  Biso   1.000  N
  N3       1.0000 0.78150  0.33870  0.22770  Biso   1.000  N
  N4       1.0000 0.21850  0.66130  0.77230  Biso   1.000  N
  N5       1.0000 0.27110  0.85400  0.32960  Biso   1.000  N
  N6       1.0000 0.72890  0.14600  0.67040  Biso   1.000  N
  N7       1.0000 0.25470  0.94580  0.16940  Biso   1.000  N
  N8       1.0000 0.74530  0.05420  0.83060  Biso   1.000  N
  N9       1.0000 0.12280  0.37790  0.32420  Biso   1.000  N
  N10      1.0000 0.87720  0.62210  0.67580  Biso   1.000  N
  S1       1.0000 0.87227  0.51047  0.37732  Biso   1.000  S
  S2       1.0000 0.12773  0.48953  0.62268  Biso   1.000  S
  S3       1.0000 0.02727  0.84380  0.20556  Biso   1.000  S
  S4       1.0000 0.97273  0.15620  0.79444  Biso   1.000  S
  C1       1.0000 0.75160  0.44040  0.26740  Biso   1.000  C
  C2       1.0000 0.24840  0.55960  0.73260  Biso   1.000  C
  C3       1.0000 0.68740  0.27900  0.14970  Biso   1.000  C
  C4       1.0000 0.31260  0.72100  0.85030  Biso   1.000  C
  H1       1.0000 0.70300  0.20700  0.12060  Biso   1.000  H
  H2       1.0000 0.29700  0.79300  0.87940  Biso   1.000  H
  C5       1.0000 0.56970  0.31730  0.11020  Biso   1.000  C
  C6       1.0000 0.43030  0.68270  0.88980  Biso   1.000  C
  H3       1.0000 0.50380  0.27250  0.05620  Biso   1.000  H
  H4       1.0000 0.49620  0.72750  0.94380  Biso   1.000  H
  C7       1.0000 0.55030  0.42630  0.15320  Biso   1.000  C
  C8       1.0000 0.44970  0.57370  0.84680  Biso   1.000  C
  C9       1.0000 0.42720  0.48060  0.11400  Biso   1.000  C
  C10      1.0000 0.57280  0.51940  0.88600  Biso   1.000  C
  C11      1.0000 0.31470  0.41550  0.04780  Biso   1.000  C
  C12      1.0000 0.68530  0.58450  0.95220  Biso   1.000  C
  H5       1.0000 0.31530  0.33600  0.02700  Biso   1.000  H
  H6       1.0000 0.68470  0.66400  0.97300  Biso   1.000  H
  C13      1.0000 0.20080  0.46610  0.01150  Biso   1.000  C
  C14      1.0000 0.79920  0.53390  0.98850  Biso   1.000  C
  H7       1.0000 0.12520  0.42210  0.96550  Biso   1.000  H
  H8       1.0000 0.87480  0.57790  0.03450  Biso   1.000  H
  C15      1.0000 0.20100  0.58340  0.04480  Biso   1.000  C
  C16      1.0000 0.79900  0.41660  0.95520  Biso   1.000  C
  H9       1.0000 0.12340  0.61800  0.02420  Biso   1.000  H
  H10      1.0000 0.87660  0.38200  0.97580  Biso   1.000  H
  C17      1.0000 0.31440  0.64830  0.10760  Biso   1.000  C
  C18      1.0000 0.68560  0.35170  0.89240  Biso   1.000  C
  H11      1.0000 0.31520  0.72850  0.12650  Biso   1.000  H
  H12      1.0000 0.68480  0.27150  0.87350  Biso   1.000  H
  C19      1.0000 0.42670  0.59800  0.14340  Biso   1.000  C
  C20      1.0000 0.57330  0.40200  0.85660  Biso   1.000  C
  H13      1.0000 0.50300  0.64320  0.18760  Biso   1.000  H
  H14      1.0000 0.49700  0.35680  0.81240  Biso   1.000  H
  C21      1.0000 0.81930  0.65360  0.38980  Biso   1.000  C
  C22      1.0000 0.18070  0.34640  0.61020  Biso   1.000  C
  H15      1.0000 0.72290  0.64220  0.38630  Biso   1.000  H
  H16      1.0000 0.27710  0.35780  0.61370  Biso   1.000  H
  H17      1.0000 0.86490  0.69370  0.45880  Biso   1.000  H
  H18      1.0000 0.13510  0.30630  0.54120  Biso   1.000  H
  C23      1.0000 0.84840  0.73220  0.30570  Biso   1.000  C
  C24      1.0000 0.15160  0.26780  0.69430  Biso   1.000  C
  H19      1.0000 0.80350  0.80150  0.30900  Biso   1.000  H
  H20      1.0000 0.19650  0.19850  0.69100  Biso   1.000  H
  H21      1.0000 0.81220  0.68900  0.23650  Biso   1.000  H
  H22      1.0000 0.18780  0.31100  0.76350  Biso   1.000  H
  C25      1.0000 0.99870  0.77230  0.31960  Biso   1.000  C
  C26      1.0000 0.00130  0.22770  0.68040  Biso   1.000  C
  H23      1.0000 0.04620  0.70420  0.32770  Biso   1.000  H
  H24      1.0000 0.95380  0.29580  0.67230  Biso   1.000  H
  H25      1.0000 0.03280  0.82720  0.38280  Biso   1.000  H
  H26      1.0000 0.96720  0.17280  0.61720  Biso   1.000  H
  C27      1.0000 0.20350  0.88610  0.24130  Biso   1.000  C
  C28      1.0000 0.79650  0.11390  0.75870  Biso   1.000  C
  C29      1.0000 0.38670  0.97300  0.19380  Biso   1.000  C
  C30      1.0000 0.61330  0.02700  0.80620  Biso   1.000  C
  H27      1.0000 0.42800  0.01470  0.14710  Biso   1.000  H
  H28      1.0000 0.57200  0.98530  0.85290  Biso   1.000  H
  C31      1.0000 0.46790  0.94340  0.28440  Biso   1.000  C
  C32      1.0000 0.53210  0.05660  0.71560  Biso   1.000  C
  H29      1.0000 0.56160  0.96300  0.29830  Biso   1.000  H
  H30      1.0000 0.43840  0.03700  0.70170  Biso   1.000  H
  C33      1.0000 0.40530  0.88390  0.35360  Biso   1.000  C
  C34      1.0000 0.59470  0.11610  0.64640  Biso   1.000  C
  C35      1.0000 0.47950  0.84990  0.45510  Biso   1.000  C
  C36      1.0000 0.52050  0.15010  0.54490  Biso   1.000  C
  C37      1.0000 0.61760  0.86730  0.48340  Biso   1.000  C
  C38      1.0000 0.38240  0.13270  0.51660  Biso   1.000  C
  H31      1.0000 0.66740  0.90040  0.43750  Biso   1.000  H
  H32      1.0000 0.33260  0.09960  0.56250  Biso   1.000  H
  C39      1.0000 0.68310  0.83620  0.57900  Biso   1.000  C
  C40      1.0000 0.31690  0.16380  0.42100  Biso   1.000  C
  H33      1.0000 0.77720  0.84940  0.59840  Biso   1.000  H
  H34      1.0000 0.22280  0.15060  0.40160  Biso   1.000  H
  C41      1.0000 0.61040  0.78570  0.64610  Biso   1.000  C
  C42      1.0000 0.38960  0.21430  0.35390  Biso   1.000  C
  H35      1.0000 0.65520  0.76220  0.70990  Biso   1.000  H
  H36      1.0000 0.34480  0.23780  0.29010  Biso   1.000  H
  C43      1.0000 0.47460  0.77000  0.62010  Biso   1.000  C
  C44      1.0000 0.52540  0.23000  0.37990  Biso   1.000  C
  H37      1.0000 0.42590  0.73800  0.66720  Biso   1.000  H
  H38      1.0000 0.57410  0.26200  0.33280  Biso   1.000  H
  C45      1.0000 0.40680  0.80080  0.52450  Biso   1.000  C
  C46      1.0000 0.59320  0.19920  0.47550  Biso   1.000  C
  H39      1.0000 0.31270  0.78870  0.50650  Biso   1.000  H
  H40      1.0000 0.68730  0.21130  0.49350  Biso   1.000  H
  C47      1.0000 0.22000  0.44360  0.34960  Biso   1.000  C
  C48      1.0000 0.78000  0.55640  0.65040  Biso   1.000  C
  C49      1.0000 0.33830  0.52590  0.38260  Biso   1.000  C
  C50      1.0000 0.66170  0.47410  0.61740  Biso   1.000  C
  H41      1.0000 0.37220  0.52540  0.45750  Biso   1.000  H
  H42      1.0000 0.62780  0.47460  0.54250  Biso   1.000  H
  H43      1.0000 0.31910  0.60390  0.36710  Biso   1.000  H
  H44      1.0000 0.68090  0.39610  0.63290  Biso   1.000  H
  H45      1.0000 0.40480  0.50500  0.34600  Biso   1.000  H
  H46      1.0000 0.59520  0.49500  0.65400  Biso   1.000  H
