data_image0
_cell_length_a       16.9667
_cell_length_b       9.1246
_cell_length_c       19.5716
_cell_angle_alpha    90
_cell_angle_beta     90.797
_cell_angle_gamma    90

_symmetry_space_group_name_H-M    "P 1"
_symmetry_int_tables_number       1

loop_
  _symmetry_equiv_pos_as_xyz
  'x, y, z'

loop_
  _atom_site_label
  _atom_site_occupancy
  _atom_site_fract_x
  _atom_site_fract_y
  _atom_site_fract_z
  _atom_site_thermal_displace_type
  _atom_site_B_iso_or_equiv
  _atom_site_type_symbol
  Cu1      1.0000 0.92871  0.29880  0.70728  Biso   1.000  Cu
  Cu2      1.0000 0.57129  0.79880  0.79272  Biso   1.000  Cu
  Cu3      1.0000 0.07129  0.70120  0.29272  Biso   1.000  Cu
  Cu4      1.0000 0.42871  0.20120  0.20728  Biso   1.000  Cu
  Cl1      1.0000 0.17456  0.20230  0.51321  Biso   1.000  Cl
  Cl2      1.0000 0.32544  0.70230  0.98679  Biso   1.000  Cl
  Cl3      1.0000 0.82544  0.79770  0.48679  Biso   1.000  Cl
  Cl4      1.0000 0.67456  0.29770  0.01321  Biso   1.000  Cl
  Cl5      1.0000 0.16310  0.30930  0.51590  Biso   1.000  Cl
  Cl6      1.0000 0.33690  0.80930  0.98410  Biso   1.000  Cl
  Cl7      1.0000 0.83690  0.69070  0.48410  Biso   1.000  Cl
  Cl8      1.0000 0.66310  0.19070  0.01590  Biso   1.000  Cl
  P1       1.0000 0.00373  0.33654  0.79808  Biso   1.000  P
  P2       1.0000 0.49627  0.83654  0.70192  Biso   1.000  P
  P3       1.0000 0.99627  0.66346  0.20192  Biso   1.000  P
  P4       1.0000 0.50373  0.16346  0.29808  Biso   1.000  P
  O1       1.0000 0.13790  0.20950  0.57690  Biso   1.000  O
  O2       1.0000 0.36210  0.70950  0.92310  Biso   1.000  O
  O3       1.0000 0.86210  0.79050  0.42310  Biso   1.000  O
  O4       1.0000 0.63790  0.29050  0.07690  Biso   1.000  O
  O5       1.0000 0.24750  0.28090  0.51630  Biso   1.000  O
  O6       1.0000 0.25250  0.78090  0.98370  Biso   1.000  O
  O7       1.0000 0.75250  0.71910  0.48370  Biso   1.000  O
  O8       1.0000 0.74750  0.21910  0.01630  Biso   1.000  O
  O9       1.0000 0.12690  0.26790  0.46110  Biso   1.000  O
  O10      1.0000 0.37310  0.76790  0.03890  Biso   1.000  O
  O11      1.0000 0.87310  0.73210  0.53890  Biso   1.000  O
  O12      1.0000 0.62690  0.23210  0.96110  Biso   1.000  O
  O13      1.0000 0.18890  0.05380  0.49640  Biso   1.000  O
  O14      1.0000 0.31110  0.55380  0.00360  Biso   1.000  O
  O15      1.0000 0.81110  0.94620  0.50360  Biso   1.000  O
  O16      1.0000 0.68890  0.44620  0.99640  Biso   1.000  O
  O17      1.0000 0.13200  0.44300  0.51500  Biso   1.000  O
  O18      1.0000 0.36800  0.94300  0.98500  Biso   1.000  O
  O19      1.0000 0.86800  0.55700  0.48500  Biso   1.000  O
  O20      1.0000 0.63200  0.05700  0.01500  Biso   1.000  O
  N1       1.0000 0.90150  0.08800  0.67180  Biso   1.000  N
  N2       1.0000 0.59850  0.58800  0.82820  Biso   1.000  N
  N3       1.0000 0.09850  0.91200  0.32820  Biso   1.000  N
  N4       1.0000 0.40150  0.41200  0.17180  Biso   1.000  N
  N5       1.0000 0.67950  0.91140  0.79510  Biso   1.000  N
  N6       1.0000 0.82050  0.41140  0.70490  Biso   1.000  N
  N7       1.0000 0.32050  0.08860  0.20490  Biso   1.000  N
  N8       1.0000 0.17950  0.58860  0.29510  Biso   1.000  N
  N9       1.0000 0.96450  0.33370  0.60600  Biso   1.000  N
  N10      1.0000 0.53550  0.83370  0.89400  Biso   1.000  N
  N11      1.0000 0.03550  0.66630  0.39400  Biso   1.000  N
  N12      1.0000 0.46450  0.16630  0.10600  Biso   1.000  N
  N13      1.0000 0.02890  0.75590  0.68780  Biso   1.000  N
  N14      1.0000 0.47110  0.25590  0.81220  Biso   1.000  N
  N15      1.0000 0.97110  0.24410  0.31220  Biso   1.000  N
  N16      1.0000 0.52890  0.74410  0.18780  Biso   1.000  N
  C1       1.0000 0.95000  0.06860  0.60970  Biso   1.000  C
  C2       1.0000 0.55000  0.56860  0.89030  Biso   1.000  C
  C3       1.0000 0.05000  0.93140  0.39030  Biso   1.000  C
  C4       1.0000 0.45000  0.43140  0.10970  Biso   1.000  C
  H1       1.0000 0.93190  0.98120  0.58380  Biso   1.000  H
  H2       1.0000 0.56810  0.48120  0.91620  Biso   1.000  H
  H3       1.0000 0.06810  0.01880  0.41620  Biso   1.000  H
  H4       1.0000 0.43190  0.51880  0.08380  Biso   1.000  H
  H5       1.0000 0.00600  0.05430  0.62280  Biso   1.000  H
  H6       1.0000 0.49400  0.55430  0.87720  Biso   1.000  H
  H7       1.0000 0.99400  0.94570  0.37720  Biso   1.000  H
  H8       1.0000 0.50600  0.44570  0.12280  Biso   1.000  H
  C5       1.0000 0.94120  0.20330  0.56630  Biso   1.000  C
  C6       1.0000 0.55880  0.70330  0.93370  Biso   1.000  C
  C7       1.0000 0.05880  0.79670  0.43370  Biso   1.000  C
  C8       1.0000 0.44120  0.29670  0.06630  Biso   1.000  C
  H9       1.0000 0.97470  0.19460  0.52550  Biso   1.000  H
  H10      1.0000 0.52530  0.69460  0.97450  Biso   1.000  H
  H11      1.0000 0.02530  0.80540  0.47450  Biso   1.000  H
  H12      1.0000 0.47470  0.30540  0.02550  Biso   1.000  H
  H13      1.0000 0.88570  0.21320  0.55060  Biso   1.000  H
  H14      1.0000 0.61430  0.71320  0.94940  Biso   1.000  H
  H15      1.0000 0.11430  0.78680  0.44940  Biso   1.000  H
  H16      1.0000 0.38570  0.28680  0.05060  Biso   1.000  H
  C9       1.0000 0.84890  0.99180  0.68300  Biso   1.000  C
  C10      1.0000 0.65110  0.49180  0.81700  Biso   1.000  C
  C11      1.0000 0.15110  0.00820  0.31700  Biso   1.000  C
  C12      1.0000 0.34890  0.50820  0.18300  Biso   1.000  C
  H17      1.0000 0.84140  0.91520  0.65070  Biso   1.000  H
  H18      1.0000 0.65860  0.41520  0.84930  Biso   1.000  H
  H19      1.0000 0.15860  0.08480  0.34930  Biso   1.000  H
  H20      1.0000 0.34140  0.58480  0.15070  Biso   1.000  H
  C13      1.0000 0.79930  0.99450  0.74390  Biso   1.000  C
  C14      1.0000 0.70070  0.49450  0.75610  Biso   1.000  C
  C15      1.0000 0.20070  0.00550  0.25610  Biso   1.000  C
  C16      1.0000 0.29930  0.50550  0.24390  Biso   1.000  C
  C17      1.0000 0.72810  0.91840  0.74210  Biso   1.000  C
  C18      1.0000 0.77190  0.41840  0.75790  Biso   1.000  C
  C19      1.0000 0.27190  0.08160  0.25790  Biso   1.000  C
  C20      1.0000 0.22810  0.58160  0.24210  Biso   1.000  C
  H21      1.0000 0.71330  0.86900  0.70120  Biso   1.000  H
  H22      1.0000 0.78670  0.36900  0.79880  Biso   1.000  H
  H23      1.0000 0.28670  0.13100  0.29880  Biso   1.000  H
  H24      1.0000 0.21330  0.63100  0.20120  Biso   1.000  H
  C21      1.0000 0.70160  0.98130  0.85240  Biso   1.000  C
  C22      1.0000 0.79840  0.48130  0.64760  Biso   1.000  C
  C23      1.0000 0.29840  0.01870  0.14760  Biso   1.000  C
  C24      1.0000 0.20160  0.51870  0.35240  Biso   1.000  C
  H25      1.0000 0.66800  0.97660  0.89070  Biso   1.000  H
  H26      1.0000 0.83200  0.47660  0.60930  Biso   1.000  H
  H27      1.0000 0.33200  0.02340  0.10930  Biso   1.000  H
  H28      1.0000 0.16800  0.52340  0.39070  Biso   1.000  H
  C25      1.0000 0.77080  0.06000  0.85850  Biso   1.000  C
  C26      1.0000 0.72920  0.56000  0.64150  Biso   1.000  C
  C27      1.0000 0.22920  0.94000  0.14150  Biso   1.000  C
  C28      1.0000 0.27080  0.44000  0.35850  Biso   1.000  C
  H29      1.0000 0.78390  0.10870  0.90010  Biso   1.000  H
  H30      1.0000 0.71610  0.60870  0.59990  Biso   1.000  H
  H31      1.0000 0.21610  0.89130  0.09990  Biso   1.000  H
  H32      1.0000 0.28390  0.39130  0.40010  Biso   1.000  H
  C29      1.0000 0.82050  0.06680  0.80390  Biso   1.000  C
  C30      1.0000 0.67950  0.56680  0.69610  Biso   1.000  C
  C31      1.0000 0.17950  0.93320  0.19610  Biso   1.000  C
  C32      1.0000 0.32050  0.43320  0.30390  Biso   1.000  C
  H33      1.0000 0.86850  0.12000  0.80700  Biso   1.000  H
  H34      1.0000 0.63150  0.62000  0.69300  Biso   1.000  H
  H35      1.0000 0.13150  0.88000  0.19300  Biso   1.000  H
  H36      1.0000 0.36850  0.38000  0.30700  Biso   1.000  H
  C33      1.0000 0.00970  0.42150  0.57770  Biso   1.000  C
  C34      1.0000 0.49030  0.92150  0.92230  Biso   1.000  C
  C35      1.0000 0.99030  0.57850  0.42230  Biso   1.000  C
  C36      1.0000 0.50970  0.07850  0.07770  Biso   1.000  C
  H37      1.0000 0.02600  0.39790  0.53280  Biso   1.000  H
  H38      1.0000 0.47400  0.89790  0.96720  Biso   1.000  H
  H39      1.0000 0.97400  0.60210  0.46720  Biso   1.000  H
  H40      1.0000 0.52600  0.10210  0.03280  Biso   1.000  H
  C37      1.0000 0.03990  0.55710  0.60710  Biso   1.000  C
  C38      1.0000 0.46010  0.05710  0.89290  Biso   1.000  C
  C39      1.0000 0.96010  0.44290  0.39290  Biso   1.000  C
  C40      1.0000 0.53990  0.94290  0.10710  Biso   1.000  C
  C41      1.0000 0.00210  0.63760  0.65850  Biso   1.000  C
  C42      1.0000 0.49790  0.13760  0.84150  Biso   1.000  C
  C43      1.0000 0.99790  0.36240  0.34150  Biso   1.000  C
  C44      1.0000 0.50210  0.86240  0.15850  Biso   1.000  C
  H41      1.0000 0.95250  0.60230  0.67310  Biso   1.000  H
  H42      1.0000 0.54750  0.10230  0.82690  Biso   1.000  H
  H43      1.0000 0.04750  0.39770  0.32690  Biso   1.000  H
  H44      1.0000 0.45250  0.89770  0.17310  Biso   1.000  H
  C45      1.0000 0.09660  0.80190  0.66500  Biso   1.000  C
  C46      1.0000 0.40340  0.30190  0.83500  Biso   1.000  C
  C47      1.0000 0.90340  0.19810  0.33500  Biso   1.000  C
  C48      1.0000 0.59660  0.69810  0.16500  Biso   1.000  C
  H45      1.0000 0.11740  0.88710  0.68650  Biso   1.000  H
  H46      1.0000 0.38260  0.38710  0.81350  Biso   1.000  H
  H47      1.0000 0.88260  0.11290  0.31350  Biso   1.000  H
  H48      1.0000 0.61740  0.61290  0.18650  Biso   1.000  H
  C49      1.0000 0.14040  0.74460  0.61510  Biso   1.000  C
  C50      1.0000 0.35960  0.24460  0.88490  Biso   1.000  C
  C51      1.0000 0.85960  0.25540  0.38490  Biso   1.000  C
  C52      1.0000 0.64040  0.75540  0.11510  Biso   1.000  C
  H49      1.0000 0.18870  0.78810  0.60180  Biso   1.000  H
  H50      1.0000 0.31130  0.28810  0.89820  Biso   1.000  H
  H51      1.0000 0.81130  0.21190  0.39820  Biso   1.000  H
  H52      1.0000 0.68870  0.71190  0.10180  Biso   1.000  H
  C53      1.0000 0.11110  0.61700  0.58370  Biso   1.000  C
  C54      1.0000 0.38890  0.11700  0.91630  Biso   1.000  C
  C55      1.0000 0.88890  0.38300  0.41630  Biso   1.000  C
  C56      1.0000 0.61110  0.88300  0.08370  Biso   1.000  C
  H53      1.0000 0.13880  0.57190  0.54740  Biso   1.000  H
  H54      1.0000 0.36120  0.07190  0.95260  Biso   1.000  H
  H55      1.0000 0.86120  0.42810  0.45260  Biso   1.000  H
  H56      1.0000 0.63880  0.92810  0.04740  Biso   1.000  H
  C57      1.0000 0.03590  0.17650  0.84730  Biso   1.000  C
  C58      1.0000 0.46410  0.67650  0.65270  Biso   1.000  C
  C59      1.0000 0.96410  0.82350  0.15270  Biso   1.000  C
  C60      1.0000 0.53590  0.32350  0.34730  Biso   1.000  C
  C61      1.0000 0.03480  0.03980  0.81530  Biso   1.000  C
  C62      1.0000 0.46520  0.53980  0.68470  Biso   1.000  C
  C63      1.0000 0.96520  0.96020  0.18470  Biso   1.000  C
  C64      1.0000 0.53480  0.46020  0.31530  Biso   1.000  C
  H57      1.0000 0.01310  0.03060  0.77050  Biso   1.000  H
  H58      1.0000 0.48690  0.53060  0.72950  Biso   1.000  H
  H59      1.0000 0.98690  0.96940  0.22950  Biso   1.000  H
  H60      1.0000 0.51310  0.46940  0.27050  Biso   1.000  H
  C65      1.0000 0.06470  0.91880  0.84810  Biso   1.000  C
  C66      1.0000 0.43530  0.41880  0.65190  Biso   1.000  C
  C67      1.0000 0.93530  0.08120  0.15190  Biso   1.000  C
  C68      1.0000 0.56470  0.58120  0.34810  Biso   1.000  C
  H61      1.0000 0.06400  0.82640  0.82570  Biso   1.000  H
  H62      1.0000 0.43600  0.32640  0.67430  Biso   1.000  H
  H63      1.0000 0.93600  0.17360  0.17430  Biso   1.000  H
  H64      1.0000 0.56400  0.67360  0.32570  Biso   1.000  H
  C69      1.0000 0.09580  0.93040  0.91340  Biso   1.000  C
  C70      1.0000 0.40420  0.43040  0.58660  Biso   1.000  C
  C71      1.0000 0.90420  0.06960  0.08660  Biso   1.000  C
  C72      1.0000 0.59580  0.56960  0.41340  Biso   1.000  C
  H65      1.0000 0.11690  0.84670  0.93600  Biso   1.000  H
  H66      1.0000 0.38310  0.34670  0.56400  Biso   1.000  H
  H67      1.0000 0.88310  0.15330  0.06400  Biso   1.000  H
  H68      1.0000 0.61690  0.65330  0.43600  Biso   1.000  H
  C73      1.0000 0.09590  0.06380  0.94530  Biso   1.000  C
  C74      1.0000 0.40410  0.56380  0.55470  Biso   1.000  C
  C75      1.0000 0.90410  0.93620  0.05470  Biso   1.000  C
  C76      1.0000 0.59590  0.43620  0.44530  Biso   1.000  C
  H69      1.0000 0.11530  0.07140  0.99090  Biso   1.000  H
  H70      1.0000 0.38470  0.57140  0.50910  Biso   1.000  H
  H71      1.0000 0.88470  0.92860  0.00910  Biso   1.000  H
  H72      1.0000 0.61530  0.42860  0.49090  Biso   1.000  H
  C77      1.0000 0.06840  0.18680  0.91250  Biso   1.000  C
  C78      1.0000 0.43160  0.68680  0.58750  Biso   1.000  C
  C79      1.0000 0.93160  0.81320  0.08750  Biso   1.000  C
  C80      1.0000 0.56840  0.31320  0.41250  Biso   1.000  C
  H73      1.0000 0.07160  0.27950  0.93450  Biso   1.000  H
  H74      1.0000 0.42840  0.77950  0.56550  Biso   1.000  H
  H75      1.0000 0.92840  0.72050  0.06550  Biso   1.000  H
  H76      1.0000 0.57160  0.22050  0.43450  Biso   1.000  H
  C81      1.0000 0.94900  0.45080  0.85710  Biso   1.000  C
  C82      1.0000 0.55100  0.95080  0.64290  Biso   1.000  C
  C83      1.0000 0.05100  0.54920  0.14290  Biso   1.000  C
  C84      1.0000 0.44900  0.04920  0.35710  Biso   1.000  C
  C85      1.0000 0.93540  0.59590  0.83910  Biso   1.000  C
  C86      1.0000 0.56460  0.09590  0.66090  Biso   1.000  C
  C87      1.0000 0.06460  0.40410  0.16090  Biso   1.000  C
  C88      1.0000 0.43540  0.90410  0.33910  Biso   1.000  C
  H77      1.0000 0.96070  0.63600  0.80040  Biso   1.000  H
  H78      1.0000 0.53930  0.13600  0.69960  Biso   1.000  H
  H79      1.0000 0.03930  0.36400  0.19960  Biso   1.000  H
  H80      1.0000 0.46070  0.86400  0.30040  Biso   1.000  H
  C89      1.0000 0.88520  0.68310  0.87720  Biso   1.000  C
  C90      1.0000 0.61480  0.18310  0.62280  Biso   1.000  C
  C91      1.0000 0.11480  0.31690  0.12280  Biso   1.000  C
  C92      1.0000 0.38520  0.81690  0.37720  Biso   1.000  C
  H81      1.0000 0.87650  0.78250  0.86490  Biso   1.000  H
  H82      1.0000 0.62350  0.28250  0.63510  Biso   1.000  H
  H83      1.0000 0.12350  0.21750  0.13510  Biso   1.000  H
  H84      1.0000 0.37650  0.71750  0.36490  Biso   1.000  H
  C93      1.0000 0.84860  0.62500  0.93240  Biso   1.000  C
  C94      1.0000 0.65140  0.12500  0.56760  Biso   1.000  C
  C95      1.0000 0.15140  0.37500  0.06760  Biso   1.000  C
  C96      1.0000 0.34860  0.87500  0.43240  Biso   1.000  C
  H85      1.0000 0.81360  0.68410  0.95790  Biso   1.000  H
  H86      1.0000 0.68640  0.18410  0.54210  Biso   1.000  H
  H87      1.0000 0.18640  0.31590  0.04210  Biso   1.000  H
  H88      1.0000 0.31360  0.81590  0.45790  Biso   1.000  H
  C97      1.0000 0.86150  0.48100  0.95190  Biso   1.000  C
  C98      1.0000 0.63850  0.98100  0.54810  Biso   1.000  C
  C99      1.0000 0.13850  0.51900  0.04810  Biso   1.000  C
  C100     1.0000 0.36150  0.01900  0.45190  Biso   1.000  C
  H89      1.0000 0.83600  0.44170  0.99070  Biso   1.000  H
  H90      1.0000 0.66400  0.94170  0.50930  Biso   1.000  H
  H91      1.0000 0.16400  0.55830  0.00930  Biso   1.000  H
  H92      1.0000 0.33600  0.05830  0.49070  Biso   1.000  H
  C101     1.0000 0.91180  0.39550  0.91450  Biso   1.000  C
  C102     1.0000 0.58820  0.89550  0.58550  Biso   1.000  C
  C103     1.0000 0.08820  0.60450  0.08550  Biso   1.000  C
  C104     1.0000 0.41180  0.10450  0.41450  Biso   1.000  C
  H93      1.0000 0.92120  0.29700  0.92810  Biso   1.000  H
  H94      1.0000 0.57880  0.79700  0.57190  Biso   1.000  H
  H95      1.0000 0.07880  0.70300  0.07190  Biso   1.000  H
  H96      1.0000 0.42120  0.20300  0.42810  Biso   1.000  H
  C105     1.0000 0.09760  0.42990  0.78660  Biso   1.000  C
  C106     1.0000 0.40240  0.92990  0.71340  Biso   1.000  C
  C107     1.0000 0.90240  0.57010  0.21340  Biso   1.000  C
  C108     1.0000 0.59760  0.07010  0.28660  Biso   1.000  C
  C109     1.0000 0.12970  0.52570  0.83540  Biso   1.000  C
  C110     1.0000 0.37030  0.02570  0.66460  Biso   1.000  C
  C111     1.0000 0.87030  0.47430  0.16460  Biso   1.000  C
  C112     1.0000 0.62970  0.97430  0.33540  Biso   1.000  C
  H97      1.0000 0.10060  0.55020  0.87490  Biso   1.000  H
  H98      1.0000 0.39940  0.05020  0.62510  Biso   1.000  H
  H99      1.0000 0.89940  0.44980  0.12510  Biso   1.000  H
  H100     1.0000 0.60060  0.94980  0.37490  Biso   1.000  H
  C113     1.0000 0.20310  0.58430  0.82600  Biso   1.000  C
  C114     1.0000 0.29690  0.08430  0.67400  Biso   1.000  C
  C115     1.0000 0.79690  0.41570  0.17400  Biso   1.000  C
  C116     1.0000 0.70310  0.91570  0.32600  Biso   1.000  C
  H101     1.0000 0.22540  0.64740  0.85970  Biso   1.000  H
  H102     1.0000 0.27460  0.14740  0.64030  Biso   1.000  H
  H103     1.0000 0.77460  0.35260  0.14030  Biso   1.000  H
  H104     1.0000 0.72540  0.85260  0.35970  Biso   1.000  H
  C117     1.0000 0.24500  0.55230  0.76790  Biso   1.000  C
  C118     1.0000 0.25500  0.05230  0.73210  Biso   1.000  C
  C119     1.0000 0.75500  0.44770  0.23210  Biso   1.000  C
  C120     1.0000 0.74500  0.94770  0.26790  Biso   1.000  C
  H105     1.0000 0.29510  0.59580  0.76110  Biso   1.000  H
  H106     1.0000 0.20490  0.09580  0.73890  Biso   1.000  H
  H107     1.0000 0.70490  0.40420  0.23890  Biso   1.000  H
  H108     1.0000 0.79510  0.90420  0.26110  Biso   1.000  H
  C121     1.0000 0.21390  0.45640  0.71920  Biso   1.000  C
  C122     1.0000 0.28610  0.95640  0.78080  Biso   1.000  C
  C123     1.0000 0.78610  0.54360  0.28080  Biso   1.000  C
  C124     1.0000 0.71390  0.04360  0.21920  Biso   1.000  C
  H109     1.0000 0.24310  0.43190  0.67970  Biso   1.000  H
  H110     1.0000 0.25690  0.93190  0.82030  Biso   1.000  H
  H111     1.0000 0.75690  0.56810  0.32030  Biso   1.000  H
  H112     1.0000 0.74310  0.06810  0.17970  Biso   1.000  H
  C125     1.0000 0.13990  0.39750  0.72920  Biso   1.000  C
  C126     1.0000 0.36010  0.89750  0.77080  Biso   1.000  C
  C127     1.0000 0.86010  0.60250  0.27080  Biso   1.000  C
  C128     1.0000 0.63990  0.10250  0.22920  Biso   1.000  C
  H113     1.0000 0.11800  0.33330  0.69580  Biso   1.000  H
  H114     1.0000 0.38200  0.83330  0.80420  Biso   1.000  H
  H115     1.0000 0.88200  0.66670  0.30420  Biso   1.000  H
  H116     1.0000 0.61800  0.16670  0.19580  Biso   1.000  H
