data_image0
_cell_length_a       19.149
_cell_length_b       14.814
_cell_length_c       13.911
_cell_angle_alpha    90
_cell_angle_beta     119.08
_cell_angle_gamma    90

_symmetry_space_group_name_H-M    "P 1"
_symmetry_int_tables_number       1

loop_
  _symmetry_equiv_pos_as_xyz
  'x, y, z'

loop_
  _atom_site_label
  _atom_site_occupancy
  _atom_site_fract_x
  _atom_site_fract_y
  _atom_site_fract_z
  _atom_site_thermal_displace_type
  _atom_site_B_iso_or_equiv
  _atom_site_type_symbol
  I1       1.0000 0.68851  0.83448  0.05859  Biso   1.000  I
  I2       1.0000 0.18851  0.33448  0.05859  Biso   1.000  I
  I3       1.0000 0.31149  0.83448  0.44141  Biso   1.000  I
  I4       1.0000 0.81149  0.33448  0.44141  Biso   1.000  I
  I5       1.0000 0.31149  0.16552  0.94141  Biso   1.000  I
  I6       1.0000 0.81149  0.66552  0.94141  Biso   1.000  I
  I7       1.0000 0.68851  0.16552  0.55859  Biso   1.000  I
  I8       1.0000 0.18851  0.66552  0.55859  Biso   1.000  I
  Cu1      1.0000 0.82630  0.79220  0.07660  Biso   1.000  Cu
  Cu2      1.0000 0.32630  0.29220  0.07660  Biso   1.000  Cu
  Cu3      1.0000 0.17370  0.79220  0.42340  Biso   1.000  Cu
  Cu4      1.0000 0.67370  0.29220  0.42340  Biso   1.000  Cu
  Cu5      1.0000 0.17370  0.20780  0.92340  Biso   1.000  Cu
  Cu6      1.0000 0.67370  0.70780  0.92340  Biso   1.000  Cu
  Cu7      1.0000 0.82630  0.20780  0.57660  Biso   1.000  Cu
  Cu8      1.0000 0.32630  0.70780  0.57660  Biso   1.000  Cu
  Cr1      1.0000 0.00000  0.89150  0.25000  Biso   1.000  Cr
  Cr2      1.0000 0.50000  0.39150  0.25000  Biso   1.000  Cr
  Cr3      1.0000 0.00000  0.10850  0.75000  Biso   1.000  Cr
  Cr4      1.0000 0.50000  0.60850  0.75000  Biso   1.000  Cr
  S1       1.0000 0.89620  0.91950  0.06250  Biso   1.000  S
  S2       1.0000 0.39620  0.41950  0.06250  Biso   1.000  S
  S3       1.0000 0.10380  0.91950  0.43750  Biso   1.000  S
  S4       1.0000 0.60380  0.41950  0.43750  Biso   1.000  S
  S5       1.0000 0.10380  0.08050  0.93750  Biso   1.000  S
  S6       1.0000 0.60380  0.58050  0.93750  Biso   1.000  S
  S7       1.0000 0.89620  0.08050  0.56250  Biso   1.000  S
  S8       1.0000 0.39620  0.58050  0.56250  Biso   1.000  S
  S9       1.0000 0.91400  0.99990  0.26350  Biso   1.000  S
  S10      1.0000 0.41400  0.49990  0.26350  Biso   1.000  S
  S11      1.0000 0.08600  0.99990  0.23650  Biso   1.000  S
  S12      1.0000 0.58600  0.49990  0.23650  Biso   1.000  S
  S13      1.0000 0.08600  0.00010  0.73650  Biso   1.000  S
  S14      1.0000 0.58600  0.50010  0.73650  Biso   1.000  S
  S15      1.0000 0.91400  0.00010  0.76350  Biso   1.000  S
  S16      1.0000 0.41400  0.50010  0.76350  Biso   1.000  S
  C1       1.0000 0.86280  0.00170  0.12060  Biso   1.000  C
  C2       1.0000 0.36280  0.50170  0.12060  Biso   1.000  C
  C3       1.0000 0.13720  0.00170  0.37940  Biso   1.000  C
  C4       1.0000 0.63720  0.50170  0.37940  Biso   1.000  C
  C5       1.0000 0.13720  0.99830  0.87940  Biso   1.000  C
  C6       1.0000 0.63720  0.49830  0.87940  Biso   1.000  C
  C7       1.0000 0.86280  0.99830  0.62060  Biso   1.000  C
  C8       1.0000 0.36280  0.49830  0.62060  Biso   1.000  C
  N1       1.0000 0.80510  0.05800  0.06410  Biso   1.000  N
  N2       1.0000 0.30510  0.55800  0.06410  Biso   1.000  N
  N3       1.0000 0.19490  0.05800  0.43590  Biso   1.000  N
  N4       1.0000 0.69490  0.55800  0.43590  Biso   1.000  N
  N5       1.0000 0.19490  0.94200  0.93590  Biso   1.000  N
  N6       1.0000 0.69490  0.44200  0.93590  Biso   1.000  N
  N7       1.0000 0.80510  0.94200  0.56410  Biso   1.000  N
  N8       1.0000 0.30510  0.44200  0.56410  Biso   1.000  N
  C9       1.0000 0.78290  0.12880  0.11680  Biso   1.000  C
  C10      1.0000 0.28290  0.62880  0.11680  Biso   1.000  C
  C11      1.0000 0.21710  0.12880  0.38320  Biso   1.000  C
  C12      1.0000 0.71710  0.62880  0.38320  Biso   1.000  C
  C13      1.0000 0.21710  0.87120  0.88320  Biso   1.000  C
  C14      1.0000 0.71710  0.37120  0.88320  Biso   1.000  C
  C15      1.0000 0.78290  0.87120  0.61680  Biso   1.000  C
  C16      1.0000 0.28290  0.37120  0.61680  Biso   1.000  C
  C17      1.0000 0.72290  0.10090  0.14990  Biso   1.000  C
  C18      1.0000 0.22290  0.60090  0.14990  Biso   1.000  C
  C19      1.0000 0.27710  0.10090  0.35010  Biso   1.000  C
  C20      1.0000 0.77710  0.60090  0.35010  Biso   1.000  C
  C21      1.0000 0.27710  0.89910  0.85010  Biso   1.000  C
  C22      1.0000 0.77710  0.39910  0.85010  Biso   1.000  C
  C23      1.0000 0.72290  0.89910  0.64990  Biso   1.000  C
  C24      1.0000 0.22290  0.39910  0.64990  Biso   1.000  C
  C25      1.0000 0.76290  0.05320  0.94580  Biso   1.000  C
  C26      1.0000 0.26290  0.55320  0.94580  Biso   1.000  C
  C27      1.0000 0.23710  0.05320  0.55420  Biso   1.000  C
  C28      1.0000 0.73710  0.55320  0.55420  Biso   1.000  C
  C29      1.0000 0.23710  0.94680  0.05420  Biso   1.000  C
  C30      1.0000 0.73710  0.44680  0.05420  Biso   1.000  C
  C31      1.0000 0.76290  0.94680  0.44580  Biso   1.000  C
  C32      1.0000 0.26290  0.44680  0.44580  Biso   1.000  C
  C33      1.0000 0.79720  0.11550  0.89340  Biso   1.000  C
  C34      1.0000 0.29720  0.61550  0.89340  Biso   1.000  C
  C35      1.0000 0.20280  0.11550  0.60660  Biso   1.000  C
  C36      1.0000 0.70280  0.61550  0.60660  Biso   1.000  C
  C37      1.0000 0.20280  0.88450  0.10660  Biso   1.000  C
  C38      1.0000 0.70280  0.38450  0.10660  Biso   1.000  C
  C39      1.0000 0.79720  0.88450  0.39340  Biso   1.000  C
  C40      1.0000 0.29720  0.38450  0.39340  Biso   1.000  C
  S17      1.0000 0.93350  0.76180  0.27250  Biso   1.000  S
  S18      1.0000 0.43350  0.26180  0.27250  Biso   1.000  S
  S19      1.0000 0.06650  0.76180  0.22750  Biso   1.000  S
  S20      1.0000 0.56650  0.26180  0.22750  Biso   1.000  S
  S21      1.0000 0.06650  0.23820  0.72750  Biso   1.000  S
  S22      1.0000 0.56650  0.73820  0.72750  Biso   1.000  S
  S23      1.0000 0.93350  0.23820  0.77250  Biso   1.000  S
  S24      1.0000 0.43350  0.73820  0.77250  Biso   1.000  S
  C41      1.0000 0.00000  0.69780  0.25000  Biso   1.000  C
  C42      1.0000 0.50000  0.19780  0.25000  Biso   1.000  C
  C43      1.0000 0.00000  0.30220  0.75000  Biso   1.000  C
  C44      1.0000 0.50000  0.80220  0.75000  Biso   1.000  C
  N9       1.0000 0.00000  0.61000  0.25000  Biso   1.000  N
  N10      1.0000 0.50000  0.11000  0.25000  Biso   1.000  N
  N11      1.0000 0.00000  0.39000  0.75000  Biso   1.000  N
  N12      1.0000 0.50000  0.89000  0.75000  Biso   1.000  N
  C45      1.0000 0.06420  0.55470  0.24450  Biso   1.000  C
  C46      1.0000 0.56420  0.05470  0.24450  Biso   1.000  C
  C47      1.0000 0.93580  0.55470  0.25550  Biso   1.000  C
  C48      1.0000 0.43580  0.05470  0.25550  Biso   1.000  C
  C49      1.0000 0.93580  0.44530  0.75550  Biso   1.000  C
  C50      1.0000 0.43580  0.94530  0.75550  Biso   1.000  C
  C51      1.0000 0.06420  0.44530  0.74450  Biso   1.000  C
  C52      1.0000 0.56420  0.94530  0.74450  Biso   1.000  C
  C53      1.0000 0.03490  0.52720  0.13400  Biso   1.000  C
  C54      1.0000 0.53490  0.02720  0.13400  Biso   1.000  C
  C55      1.0000 0.96510  0.52720  0.36600  Biso   1.000  C
  C56      1.0000 0.46510  0.02720  0.36600  Biso   1.000  C
  C57      1.0000 0.96510  0.47280  0.86600  Biso   1.000  C
  C58      1.0000 0.46510  0.97280  0.86600  Biso   1.000  C
  C59      1.0000 0.03490  0.47280  0.63400  Biso   1.000  C
  C60      1.0000 0.53490  0.97280  0.63400  Biso   1.000  C
  H1       1.0000 0.82900  0.15000  0.18200  Biso   1.000  H
  H2       1.0000 0.32900  0.65000  0.18200  Biso   1.000  H
  H3       1.0000 0.17100  0.15000  0.31800  Biso   1.000  H
  H4       1.0000 0.67100  0.65000  0.31800  Biso   1.000  H
  H5       1.0000 0.17100  0.85000  0.81800  Biso   1.000  H
  H6       1.0000 0.67100  0.35000  0.81800  Biso   1.000  H
  H7       1.0000 0.82900  0.85000  0.68200  Biso   1.000  H
  H8       1.0000 0.32900  0.35000  0.68200  Biso   1.000  H
  H9       1.0000 0.76000  0.18100  0.06900  Biso   1.000  H
  H10      1.0000 0.26000  0.68100  0.06900  Biso   1.000  H
  H11      1.0000 0.24000  0.18100  0.43100  Biso   1.000  H
  H12      1.0000 0.74000  0.68100  0.43100  Biso   1.000  H
  H13      1.0000 0.24000  0.81900  0.93100  Biso   1.000  H
  H14      1.0000 0.74000  0.31900  0.93100  Biso   1.000  H
  H15      1.0000 0.76000  0.81900  0.56900  Biso   1.000  H
  H16      1.0000 0.26000  0.31900  0.56900  Biso   1.000  H
  H17      1.0000 0.67400  0.08000  0.08600  Biso   1.000  H
  H18      1.0000 0.17400  0.58000  0.08600  Biso   1.000  H
  H19      1.0000 0.32600  0.08000  0.41400  Biso   1.000  H
  H20      1.0000 0.82600  0.58000  0.41400  Biso   1.000  H
  H21      1.0000 0.32600  0.92000  0.91400  Biso   1.000  H
  H22      1.0000 0.82600  0.42000  0.91400  Biso   1.000  H
  H23      1.0000 0.67400  0.92000  0.58600  Biso   1.000  H
  H24      1.0000 0.17400  0.42000  0.58600  Biso   1.000  H
  H25      1.0000 0.74200  0.04900  0.20000  Biso   1.000  H
  H26      1.0000 0.24200  0.54900  0.20000  Biso   1.000  H
  H27      1.0000 0.25800  0.04900  0.30000  Biso   1.000  H
  H28      1.0000 0.75800  0.54900  0.30000  Biso   1.000  H
  H29      1.0000 0.25800  0.95100  0.80000  Biso   1.000  H
  H30      1.0000 0.75800  0.45100  0.80000  Biso   1.000  H
  H31      1.0000 0.74200  0.95100  0.70000  Biso   1.000  H
  H32      1.0000 0.24200  0.45100  0.70000  Biso   1.000  H
  H33      1.0000 0.70600  0.14500  0.18600  Biso   1.000  H
  H34      1.0000 0.20600  0.64500  0.18600  Biso   1.000  H
  H35      1.0000 0.29400  0.14500  0.31400  Biso   1.000  H
  H36      1.0000 0.79400  0.64500  0.31400  Biso   1.000  H
  H37      1.0000 0.29400  0.85500  0.81400  Biso   1.000  H
  H38      1.0000 0.79400  0.35500  0.81400  Biso   1.000  H
  H39      1.0000 0.70600  0.85500  0.68600  Biso   1.000  H
  H40      1.0000 0.20600  0.35500  0.68600  Biso   1.000  H
  H41      1.0000 0.76400  0.99100  0.92200  Biso   1.000  H
  H42      1.0000 0.26400  0.49100  0.92200  Biso   1.000  H
  H43      1.0000 0.23600  0.99100  0.57800  Biso   1.000  H
  H44      1.0000 0.73600  0.49100  0.57800  Biso   1.000  H
  H45      1.0000 0.23600  0.00900  0.07800  Biso   1.000  H
  H46      1.0000 0.73600  0.50900  0.07800  Biso   1.000  H
  H47      1.0000 0.76400  0.00900  0.42200  Biso   1.000  H
  H48      1.0000 0.26400  0.50900  0.42200  Biso   1.000  H
  H49      1.0000 0.70600  0.06600  0.91600  Biso   1.000  H
  H50      1.0000 0.20600  0.56600  0.91600  Biso   1.000  H
  H51      1.0000 0.29400  0.06600  0.58400  Biso   1.000  H
  H52      1.0000 0.79400  0.56600  0.58400  Biso   1.000  H
  H53      1.0000 0.29400  0.93400  0.08400  Biso   1.000  H
  H54      1.0000 0.79400  0.43400  0.08400  Biso   1.000  H
  H55      1.0000 0.70600  0.93400  0.41600  Biso   1.000  H
  H56      1.0000 0.20600  0.43400  0.41600  Biso   1.000  H
  H57      1.0000 0.79400  0.17600  0.91500  Biso   1.000  H
  H58      1.0000 0.29400  0.67600  0.91500  Biso   1.000  H
  H59      1.0000 0.20600  0.17600  0.58500  Biso   1.000  H
  H60      1.0000 0.70600  0.67600  0.58500  Biso   1.000  H
  H61      1.0000 0.20600  0.82400  0.08500  Biso   1.000  H
  H62      1.0000 0.70600  0.32400  0.08500  Biso   1.000  H
  H63      1.0000 0.79400  0.82400  0.41500  Biso   1.000  H
  H64      1.0000 0.29400  0.32400  0.41500  Biso   1.000  H
  H65      1.0000 0.85200  0.10100  0.92100  Biso   1.000  H
  H66      1.0000 0.35200  0.60100  0.92100  Biso   1.000  H
  H67      1.0000 0.14800  0.10100  0.57900  Biso   1.000  H
  H68      1.0000 0.64800  0.60100  0.57900  Biso   1.000  H
  H69      1.0000 0.14800  0.89900  0.07900  Biso   1.000  H
  H70      1.0000 0.64800  0.39900  0.07900  Biso   1.000  H
  H71      1.0000 0.85200  0.89900  0.42100  Biso   1.000  H
  H72      1.0000 0.35200  0.39900  0.42100  Biso   1.000  H
  H73      1.0000 0.76900  0.11000  0.81700  Biso   1.000  H
  H74      1.0000 0.26900  0.61000  0.81700  Biso   1.000  H
  H75      1.0000 0.23100  0.11000  0.68300  Biso   1.000  H
  H76      1.0000 0.73100  0.61000  0.68300  Biso   1.000  H
  H77      1.0000 0.23100  0.89000  0.18300  Biso   1.000  H
  H78      1.0000 0.73100  0.39000  0.18300  Biso   1.000  H
  H79      1.0000 0.76900  0.89000  0.31700  Biso   1.000  H
  H80      1.0000 0.26900  0.39000  0.31700  Biso   1.000  H
  H81      1.0000 0.11500  0.58700  0.27300  Biso   1.000  H
  H82      1.0000 0.61500  0.08700  0.27300  Biso   1.000  H
  H83      1.0000 0.88500  0.58700  0.22700  Biso   1.000  H
  H84      1.0000 0.38500  0.08700  0.22700  Biso   1.000  H
  H85      1.0000 0.88500  0.41300  0.72700  Biso   1.000  H
  H86      1.0000 0.38500  0.91300  0.72700  Biso   1.000  H
  H87      1.0000 0.11500  0.41300  0.77300  Biso   1.000  H
  H88      1.0000 0.61500  0.91300  0.77300  Biso   1.000  H
  H89      1.0000 0.07900  0.49900  0.29200  Biso   1.000  H
  H90      1.0000 0.57900  0.99900  0.29200  Biso   1.000  H
  H91      1.0000 0.92100  0.49900  0.20800  Biso   1.000  H
  H92      1.0000 0.42100  0.99900  0.20800  Biso   1.000  H
  H93      1.0000 0.92100  0.50100  0.70800  Biso   1.000  H
  H94      1.0000 0.42100  0.00100  0.70800  Biso   1.000  H
  H95      1.0000 0.07900  0.50100  0.79200  Biso   1.000  H
  H96      1.0000 0.57900  0.00100  0.79200  Biso   1.000  H
  H97      1.0000 0.98700  0.49300  0.10600  Biso   1.000  H
  H98      1.0000 0.48700  0.99300  0.10600  Biso   1.000  H
  H99      1.0000 0.01300  0.49300  0.39400  Biso   1.000  H
  H100     1.0000 0.51300  0.99300  0.39400  Biso   1.000  H
  H101     1.0000 0.01300  0.50700  0.89400  Biso   1.000  H
  H102     1.0000 0.51300  0.00700  0.89400  Biso   1.000  H
  H103     1.0000 0.98700  0.50700  0.60600  Biso   1.000  H
  H104     1.0000 0.48700  0.00700  0.60600  Biso   1.000  H
  H105     1.0000 0.02400  0.58100  0.08700  Biso   1.000  H
  H106     1.0000 0.52400  0.08100  0.08700  Biso   1.000  H
  H107     1.0000 0.97600  0.58100  0.41300  Biso   1.000  H
  H108     1.0000 0.47600  0.08100  0.41300  Biso   1.000  H
  H109     1.0000 0.97600  0.41900  0.91300  Biso   1.000  H
  H110     1.0000 0.47600  0.91900  0.91300  Biso   1.000  H
  H111     1.0000 0.02400  0.41900  0.58700  Biso   1.000  H
  H112     1.0000 0.52400  0.91900  0.58700  Biso   1.000  H
  H113     1.0000 0.07600  0.49400  0.13000  Biso   1.000  H
  H114     1.0000 0.57600  0.99400  0.13000  Biso   1.000  H
  H115     1.0000 0.92400  0.49400  0.37000  Biso   1.000  H
  H116     1.0000 0.42400  0.99400  0.37000  Biso   1.000  H
  H117     1.0000 0.92400  0.50600  0.87000  Biso   1.000  H
  H118     1.0000 0.42400  0.00600  0.87000  Biso   1.000  H
  H119     1.0000 0.07600  0.50600  0.63000  Biso   1.000  H
  H120     1.0000 0.57600  0.00600  0.63000  Biso   1.000  H
  N13      1.0000 0.59300  0.81200  0.38300  Biso   1.000  N
  N14      1.0000 0.09300  0.31200  0.38300  Biso   1.000  N
  N15      1.0000 0.40700  0.81200  0.11700  Biso   1.000  N
  N16      1.0000 0.90700  0.31200  0.11700  Biso   1.000  N
  N17      1.0000 0.40700  0.18800  0.61700  Biso   1.000  N
  N18      1.0000 0.90700  0.68800  0.61700  Biso   1.000  N
  N19      1.0000 0.59300  0.18800  0.88300  Biso   1.000  N
  N20      1.0000 0.09300  0.68800  0.88300  Biso   1.000  N
  C61      1.0000 0.54600  0.77400  0.39400  Biso   1.000  C
  C62      1.0000 0.04600  0.27400  0.39400  Biso   1.000  C
  C63      1.0000 0.45400  0.77400  0.10600  Biso   1.000  C
  C64      1.0000 0.95400  0.27400  0.10600  Biso   1.000  C
  C65      1.0000 0.45400  0.22600  0.60600  Biso   1.000  C
  C66      1.0000 0.95400  0.72600  0.60600  Biso   1.000  C
  C67      1.0000 0.54600  0.22600  0.89400  Biso   1.000  C
  C68      1.0000 0.04600  0.72600  0.89400  Biso   1.000  C
  C69      1.0000 0.48700  0.72300  0.40900  Biso   1.000  C
  C70      1.0000 0.98700  0.22300  0.40900  Biso   1.000  C
  C71      1.0000 0.51300  0.72300  0.09100  Biso   1.000  C
  C72      1.0000 0.01300  0.22300  0.09100  Biso   1.000  C
  C73      1.0000 0.51300  0.27700  0.59100  Biso   1.000  C
  C74      1.0000 0.01300  0.77700  0.59100  Biso   1.000  C
  C75      1.0000 0.48700  0.27700  0.90900  Biso   1.000  C
  C76      1.0000 0.98700  0.77700  0.90900  Biso   1.000  C
  H121     1.0000 0.51200  0.66000  0.43300  Biso   1.000  H
  H122     1.0000 0.01200  0.16000  0.43300  Biso   1.000  H
  H123     1.0000 0.48800  0.66000  0.06700  Biso   1.000  H
  H124     1.0000 0.98800  0.16000  0.06700  Biso   1.000  H
  H125     1.0000 0.48800  0.34000  0.56700  Biso   1.000  H
  H126     1.0000 0.98800  0.84000  0.56700  Biso   1.000  H
  H127     1.0000 0.51200  0.34000  0.93300  Biso   1.000  H
  H128     1.0000 0.01200  0.84000  0.93300  Biso   1.000  H
  H129     1.0000 0.43600  0.71500  0.34400  Biso   1.000  H
  H130     1.0000 0.93600  0.21500  0.34400  Biso   1.000  H
  H131     1.0000 0.56400  0.71500  0.15600  Biso   1.000  H
  H132     1.0000 0.06400  0.21500  0.15600  Biso   1.000  H
  H133     1.0000 0.56400  0.28500  0.65600  Biso   1.000  H
  H134     1.0000 0.06400  0.78500  0.65600  Biso   1.000  H
  H135     1.0000 0.43600  0.28500  0.84400  Biso   1.000  H
  H136     1.0000 0.93600  0.78500  0.84400  Biso   1.000  H
  H137     1.0000 0.47600  0.74500  0.46600  Biso   1.000  H
  H138     1.0000 0.97600  0.24500  0.46600  Biso   1.000  H
  H139     1.0000 0.52400  0.74500  0.03400  Biso   1.000  H
  H140     1.0000 0.02400  0.24500  0.03400  Biso   1.000  H
  H141     1.0000 0.52400  0.25500  0.53400  Biso   1.000  H
  H142     1.0000 0.02400  0.75500  0.53400  Biso   1.000  H
  H143     1.0000 0.47600  0.25500  0.96600  Biso   1.000  H
  H144     1.0000 0.97600  0.75500  0.96600  Biso   1.000  H
