data_image0
_cell_length_a       18.26
_cell_length_b       11.983
_cell_length_c       14.473
_cell_angle_alpha    90
_cell_angle_beta     90
_cell_angle_gamma    90

_symmetry_space_group_name_H-M    "P 1"
_symmetry_int_tables_number       1

loop_
  _symmetry_equiv_pos_as_xyz
  'x, y, z'

loop_
  _atom_site_label
  _atom_site_occupancy
  _atom_site_fract_x
  _atom_site_fract_y
  _atom_site_fract_z
  _atom_site_thermal_displace_type
  _atom_site_B_iso_or_equiv
  _atom_site_type_symbol
  I1       1.0000 0.00000  0.46930  0.25000  Biso   1.000  I
  I2       1.0000 0.50000  0.96930  0.25000  Biso   1.000  I
  I3       1.0000 0.00000  0.53070  0.75000  Biso   1.000  I
  I4       1.0000 0.50000  0.03070  0.75000  Biso   1.000  I
  I5       1.0000 0.12400  0.78500  0.24420  Biso   1.000  I
  I6       1.0000 0.62400  0.28500  0.24420  Biso   1.000  I
  I7       1.0000 0.12400  0.21500  0.75580  Biso   1.000  I
  I8       1.0000 0.62400  0.71500  0.75580  Biso   1.000  I
  I9       1.0000 0.87600  0.78500  0.25580  Biso   1.000  I
  I10      1.0000 0.37600  0.28500  0.25580  Biso   1.000  I
  I11      1.0000 0.87600  0.21500  0.74420  Biso   1.000  I
  I12      1.0000 0.37600  0.71500  0.74420  Biso   1.000  I
  Cu1      1.0000 0.09660  0.59820  0.32210  Biso   1.000  Cu
  Cu2      1.0000 0.59660  0.09820  0.32210  Biso   1.000  Cu
  Cu3      1.0000 0.09660  0.40180  0.67790  Biso   1.000  Cu
  Cu4      1.0000 0.59660  0.90180  0.67790  Biso   1.000  Cu
  Cu5      1.0000 0.90340  0.59820  0.17790  Biso   1.000  Cu
  Cu6      1.0000 0.40340  0.09820  0.17790  Biso   1.000  Cu
  Cu7      1.0000 0.90340  0.40180  0.82210  Biso   1.000  Cu
  Cu8      1.0000 0.40340  0.90180  0.82210  Biso   1.000  Cu
  Cu9      1.0000 0.00980  0.81950  0.32060  Biso   1.000  Cu
  Cu10     1.0000 0.50980  0.31950  0.32060  Biso   1.000  Cu
  Cu11     1.0000 0.00980  0.18050  0.67940  Biso   1.000  Cu
  Cu12     1.0000 0.50980  0.68050  0.67940  Biso   1.000  Cu
  Cu13     1.0000 0.99020  0.81950  0.17940  Biso   1.000  Cu
  Cu14     1.0000 0.49020  0.31950  0.17940  Biso   1.000  Cu
  Cu15     1.0000 0.99020  0.18050  0.82060  Biso   1.000  Cu
  Cu16     1.0000 0.49020  0.68050  0.82060  Biso   1.000  Cu
  N1       1.0000 0.98900  0.91100  0.43700  Biso   1.000  N
  N2       1.0000 0.48900  0.41100  0.43700  Biso   1.000  N
  N3       1.0000 0.98900  0.08900  0.56300  Biso   1.000  N
  N4       1.0000 0.48900  0.58900  0.56300  Biso   1.000  N
  N5       1.0000 0.01100  0.91100  0.06300  Biso   1.000  N
  N6       1.0000 0.51100  0.41100  0.06300  Biso   1.000  N
  N7       1.0000 0.01100  0.08900  0.93700  Biso   1.000  N
  N8       1.0000 0.51100  0.58900  0.93700  Biso   1.000  N
  C1       1.0000 0.98800  0.98100  0.45900  Biso   1.000  C
  C2       1.0000 0.48800  0.48100  0.45900  Biso   1.000  C
  C3       1.0000 0.98800  0.01900  0.54100  Biso   1.000  C
  C4       1.0000 0.48800  0.51900  0.54100  Biso   1.000  C
  C5       1.0000 0.01200  0.98100  0.04100  Biso   1.000  C
  C6       1.0000 0.51200  0.48100  0.04100  Biso   1.000  C
  C7       1.0000 0.01200  0.01900  0.95900  Biso   1.000  C
  C8       1.0000 0.51200  0.51900  0.95900  Biso   1.000  C
  Cr1      1.0000 0.18900  0.50000  0.50000  Biso   1.000  Cr
  Cr2      1.0000 0.68900  0.00000  0.50000  Biso   1.000  Cr
  Cr3      1.0000 0.81100  0.50000  0.00000  Biso   1.000  Cr
  Cr4      1.0000 0.31100  0.00000  0.00000  Biso   1.000  Cr
  S1       1.0000 0.20300  0.47960  0.33570  Biso   1.000  S
  S2       1.0000 0.70300  0.97960  0.33570  Biso   1.000  S
  S3       1.0000 0.20300  0.52040  0.66430  Biso   1.000  S
  S4       1.0000 0.70300  0.02040  0.66430  Biso   1.000  S
  S5       1.0000 0.79700  0.47960  0.16430  Biso   1.000  S
  S6       1.0000 0.29700  0.97960  0.16430  Biso   1.000  S
  S7       1.0000 0.79700  0.52040  0.83570  Biso   1.000  S
  S8       1.0000 0.29700  0.02040  0.83570  Biso   1.000  S
  S9       1.0000 0.27950  0.63770  0.45490  Biso   1.000  S
  S10      1.0000 0.77950  0.13770  0.45490  Biso   1.000  S
  S11      1.0000 0.27950  0.36230  0.54510  Biso   1.000  S
  S12      1.0000 0.77950  0.86230  0.54510  Biso   1.000  S
  S13      1.0000 0.72050  0.63770  0.04510  Biso   1.000  S
  S14      1.0000 0.22050  0.13770  0.04510  Biso   1.000  S
  S15      1.0000 0.72050  0.36230  0.95490  Biso   1.000  S
  S16      1.0000 0.22050  0.86230  0.95490  Biso   1.000  S
  C9       1.0000 0.26700  0.58800  0.34700  Biso   1.000  C
  C10      1.0000 0.76700  0.08800  0.34700  Biso   1.000  C
  C11      1.0000 0.26700  0.41200  0.65300  Biso   1.000  C
  C12      1.0000 0.76700  0.91200  0.65300  Biso   1.000  C
  C13      1.0000 0.73300  0.58800  0.15300  Biso   1.000  C
  C14      1.0000 0.23300  0.08800  0.15300  Biso   1.000  C
  C15      1.0000 0.73300  0.41200  0.84700  Biso   1.000  C
  C16      1.0000 0.23300  0.91200  0.84700  Biso   1.000  C
  N9       1.0000 0.30700  0.62200  0.27600  Biso   1.000  N
  N10      1.0000 0.80700  0.12200  0.27600  Biso   1.000  N
  N11      1.0000 0.30700  0.37800  0.72400  Biso   1.000  N
  N12      1.0000 0.80700  0.87800  0.72400  Biso   1.000  N
  N13      1.0000 0.69300  0.62200  0.22400  Biso   1.000  N
  N14      1.0000 0.19300  0.12200  0.22400  Biso   1.000  N
  N15      1.0000 0.69300  0.37800  0.77600  Biso   1.000  N
  N16      1.0000 0.19300  0.87800  0.77600  Biso   1.000  N
  C17      1.0000 0.29500  0.56200  0.17900  Biso   1.000  C
  C18      1.0000 0.79500  0.06200  0.17900  Biso   1.000  C
  C19      1.0000 0.29500  0.43800  0.82100  Biso   1.000  C
  C20      1.0000 0.79500  0.93800  0.82100  Biso   1.000  C
  C21      1.0000 0.70500  0.56200  0.32100  Biso   1.000  C
  C22      1.0000 0.20500  0.06200  0.32100  Biso   1.000  C
  C23      1.0000 0.70500  0.43800  0.67900  Biso   1.000  C
  C24      1.0000 0.20500  0.93800  0.67900  Biso   1.000  C
  C25      1.0000 0.34400  0.65500  0.12300  Biso   1.000  C
  C26      1.0000 0.84400  0.15500  0.12300  Biso   1.000  C
  C27      1.0000 0.34400  0.34500  0.87700  Biso   1.000  C
  C28      1.0000 0.84400  0.84500  0.87700  Biso   1.000  C
  C29      1.0000 0.65600  0.65500  0.37700  Biso   1.000  C
  C30      1.0000 0.15600  0.15500  0.37700  Biso   1.000  C
  C31      1.0000 0.65600  0.34500  0.62300  Biso   1.000  C
  C32      1.0000 0.15600  0.84500  0.62300  Biso   1.000  C
  C33      1.0000 0.40400  0.67300  0.18600  Biso   1.000  C
  C34      1.0000 0.90400  0.17300  0.18600  Biso   1.000  C
  C35      1.0000 0.40400  0.32700  0.81400  Biso   1.000  C
  C36      1.0000 0.90400  0.82700  0.81400  Biso   1.000  C
  C37      1.0000 0.59600  0.67300  0.31400  Biso   1.000  C
  C38      1.0000 0.09600  0.17300  0.31400  Biso   1.000  C
  C39      1.0000 0.59600  0.32700  0.68600  Biso   1.000  C
  C40      1.0000 0.09600  0.82700  0.68600  Biso   1.000  C
  C41      1.0000 0.36700  0.69100  0.27700  Biso   1.000  C
  C42      1.0000 0.86700  0.19100  0.27700  Biso   1.000  C
  C43      1.0000 0.36700  0.30900  0.72300  Biso   1.000  C
  C44      1.0000 0.86700  0.80900  0.72300  Biso   1.000  C
  C45      1.0000 0.63300  0.69100  0.22300  Biso   1.000  C
  C46      1.0000 0.13300  0.19100  0.22300  Biso   1.000  C
  C47      1.0000 0.63300  0.30900  0.77700  Biso   1.000  C
  C48      1.0000 0.13300  0.80900  0.77700  Biso   1.000  C
  S17      1.0000 0.08330  0.62280  0.48580  Biso   1.000  S
  S18      1.0000 0.58330  0.12280  0.48580  Biso   1.000  S
  S19      1.0000 0.08330  0.37720  0.51420  Biso   1.000  S
  S20      1.0000 0.58330  0.87720  0.51420  Biso   1.000  S
  S21      1.0000 0.91670  0.62280  0.01420  Biso   1.000  S
  S22      1.0000 0.41670  0.12280  0.01420  Biso   1.000  S
  S23      1.0000 0.91670  0.37720  0.98580  Biso   1.000  S
  S24      1.0000 0.41670  0.87720  0.98580  Biso   1.000  S
  C49      1.0000 0.03100  0.50000  0.50000  Biso   1.000  C
  C50      1.0000 0.53100  0.00000  0.50000  Biso   1.000  C
  C51      1.0000 0.96900  0.50000  0.00000  Biso   1.000  C
  C52      1.0000 0.46900  0.00000  0.00000  Biso   1.000  C
  N17      1.0000 0.96000  0.50000  0.50000  Biso   1.000  N
  N18      1.0000 0.46000  0.00000  0.50000  Biso   1.000  N
  N19      1.0000 0.04000  0.50000  0.00000  Biso   1.000  N
  N20      1.0000 0.54000  0.00000  0.00000  Biso   1.000  N
  C53      1.0000 0.91800  0.39200  0.50400  Biso   1.000  C
  C54      1.0000 0.41800  0.89200  0.50400  Biso   1.000  C
  C55      1.0000 0.91800  0.60800  0.49600  Biso   1.000  C
  C56      1.0000 0.41800  0.10800  0.49600  Biso   1.000  C
  C57      1.0000 0.08200  0.39200  0.99600  Biso   1.000  C
  C58      1.0000 0.58200  0.89200  0.99600  Biso   1.000  C
  C59      1.0000 0.08200  0.60800  0.00400  Biso   1.000  C
  C60      1.0000 0.58200  0.10800  0.00400  Biso   1.000  C
  C61      1.0000 0.84000  0.44300  0.48000  Biso   1.000  C
  C62      1.0000 0.34000  0.94300  0.48000  Biso   1.000  C
  C63      1.0000 0.84000  0.55700  0.52000  Biso   1.000  C
  C64      1.0000 0.34000  0.05700  0.52000  Biso   1.000  C
  C65      1.0000 0.16000  0.44300  0.02000  Biso   1.000  C
  C66      1.0000 0.66000  0.94300  0.02000  Biso   1.000  C
  C67      1.0000 0.16000  0.55700  0.98000  Biso   1.000  C
  C68      1.0000 0.66000  0.05700  0.98000  Biso   1.000  C
  H1       1.0000 0.31800  0.48900  0.17600  Biso   1.000  H
  H2       1.0000 0.81800  0.98900  0.17600  Biso   1.000  H
  H3       1.0000 0.31800  0.51100  0.82400  Biso   1.000  H
  H4       1.0000 0.81800  0.01100  0.82400  Biso   1.000  H
  H5       1.0000 0.68200  0.48900  0.32400  Biso   1.000  H
  H6       1.0000 0.18200  0.98900  0.32400  Biso   1.000  H
  H7       1.0000 0.68200  0.51100  0.67600  Biso   1.000  H
  H8       1.0000 0.18200  0.01100  0.67600  Biso   1.000  H
  H9       1.0000 0.24700  0.55900  0.16000  Biso   1.000  H
  H10      1.0000 0.74700  0.05900  0.16000  Biso   1.000  H
  H11      1.0000 0.24700  0.44100  0.84000  Biso   1.000  H
  H12      1.0000 0.74700  0.94100  0.84000  Biso   1.000  H
  H13      1.0000 0.75300  0.55900  0.34000  Biso   1.000  H
  H14      1.0000 0.25300  0.05900  0.34000  Biso   1.000  H
  H15      1.0000 0.75300  0.44100  0.66000  Biso   1.000  H
  H16      1.0000 0.25300  0.94100  0.66000  Biso   1.000  H
  H17      1.0000 0.36200  0.62900  0.06400  Biso   1.000  H
  H18      1.0000 0.86200  0.12900  0.06400  Biso   1.000  H
  H19      1.0000 0.36200  0.37100  0.93600  Biso   1.000  H
  H20      1.0000 0.86200  0.87100  0.93600  Biso   1.000  H
  H21      1.0000 0.63800  0.62900  0.43600  Biso   1.000  H
  H22      1.0000 0.13800  0.12900  0.43600  Biso   1.000  H
  H23      1.0000 0.63800  0.37100  0.56400  Biso   1.000  H
  H24      1.0000 0.13800  0.87100  0.56400  Biso   1.000  H
  H25      1.0000 0.31900  0.72300  0.11400  Biso   1.000  H
  H26      1.0000 0.81900  0.22300  0.11400  Biso   1.000  H
  H27      1.0000 0.31900  0.27700  0.88600  Biso   1.000  H
  H28      1.0000 0.81900  0.77700  0.88600  Biso   1.000  H
  H29      1.0000 0.68100  0.72300  0.38600  Biso   1.000  H
  H30      1.0000 0.18100  0.22300  0.38600  Biso   1.000  H
  H31      1.0000 0.68100  0.27700  0.61400  Biso   1.000  H
  H32      1.0000 0.18100  0.77700  0.61400  Biso   1.000  H
  H33      1.0000 0.43600  0.60600  0.18800  Biso   1.000  H
  H34      1.0000 0.93600  0.10600  0.18800  Biso   1.000  H
  H35      1.0000 0.43600  0.39400  0.81200  Biso   1.000  H
  H36      1.0000 0.93600  0.89400  0.81200  Biso   1.000  H
  H37      1.0000 0.56400  0.60600  0.31200  Biso   1.000  H
  H38      1.0000 0.06400  0.10600  0.31200  Biso   1.000  H
  H39      1.0000 0.56400  0.39400  0.68800  Biso   1.000  H
  H40      1.0000 0.06400  0.89400  0.68800  Biso   1.000  H
  H41      1.0000 0.43600  0.73300  0.16800  Biso   1.000  H
  H42      1.0000 0.93600  0.23300  0.16800  Biso   1.000  H
  H43      1.0000 0.43600  0.26700  0.83200  Biso   1.000  H
  H44      1.0000 0.93600  0.76700  0.83200  Biso   1.000  H
  H45      1.0000 0.56400  0.73300  0.33200  Biso   1.000  H
  H46      1.0000 0.06400  0.23300  0.33200  Biso   1.000  H
  H47      1.0000 0.56400  0.26700  0.66800  Biso   1.000  H
  H48      1.0000 0.06400  0.76700  0.66800  Biso   1.000  H
  H49      1.0000 0.40500  0.66900  0.32600  Biso   1.000  H
  H50      1.0000 0.90500  0.16900  0.32600  Biso   1.000  H
  H51      1.0000 0.40500  0.33100  0.67400  Biso   1.000  H
  H52      1.0000 0.90500  0.83100  0.67400  Biso   1.000  H
  H53      1.0000 0.59500  0.66900  0.17400  Biso   1.000  H
  H54      1.0000 0.09500  0.16900  0.17400  Biso   1.000  H
  H55      1.0000 0.59500  0.33100  0.82600  Biso   1.000  H
  H56      1.0000 0.09500  0.83100  0.82600  Biso   1.000  H
  H57      1.0000 0.36100  0.76700  0.28600  Biso   1.000  H
  H58      1.0000 0.86100  0.26700  0.28600  Biso   1.000  H
  H59      1.0000 0.36100  0.23300  0.71400  Biso   1.000  H
  H60      1.0000 0.86100  0.73300  0.71400  Biso   1.000  H
  H61      1.0000 0.63900  0.76700  0.21400  Biso   1.000  H
  H62      1.0000 0.13900  0.26700  0.21400  Biso   1.000  H
  H63      1.0000 0.63900  0.23300  0.78600  Biso   1.000  H
  H64      1.0000 0.13900  0.73300  0.78600  Biso   1.000  H
  H65      1.0000 0.93900  0.33700  0.45500  Biso   1.000  H
  H66      1.0000 0.43900  0.83700  0.45500  Biso   1.000  H
  H67      1.0000 0.93900  0.66300  0.54500  Biso   1.000  H
  H68      1.0000 0.43900  0.16300  0.54500  Biso   1.000  H
  H69      1.0000 0.06100  0.33700  0.04500  Biso   1.000  H
  H70      1.0000 0.56100  0.83700  0.04500  Biso   1.000  H
  H71      1.0000 0.06100  0.66300  0.95500  Biso   1.000  H
  H72      1.0000 0.56100  0.16300  0.95500  Biso   1.000  H
  H73      1.0000 0.92400  0.35100  0.56000  Biso   1.000  H
  H74      1.0000 0.42400  0.85100  0.56000  Biso   1.000  H
  H75      1.0000 0.92400  0.64900  0.44000  Biso   1.000  H
  H76      1.0000 0.42400  0.14900  0.44000  Biso   1.000  H
  H77      1.0000 0.07600  0.35100  0.94000  Biso   1.000  H
  H78      1.0000 0.57600  0.85100  0.94000  Biso   1.000  H
  H79      1.0000 0.07600  0.64900  0.06000  Biso   1.000  H
  H80      1.0000 0.57600  0.14900  0.06000  Biso   1.000  H
  H81      1.0000 0.83200  0.45100  0.41400  Biso   1.000  H
  H82      1.0000 0.33200  0.95100  0.41400  Biso   1.000  H
  H83      1.0000 0.83200  0.54900  0.58600  Biso   1.000  H
  H84      1.0000 0.33200  0.04900  0.58600  Biso   1.000  H
  H85      1.0000 0.16800  0.45100  0.08600  Biso   1.000  H
  H86      1.0000 0.66800  0.95100  0.08600  Biso   1.000  H
  H87      1.0000 0.16800  0.54900  0.91400  Biso   1.000  H
  H88      1.0000 0.66800  0.04900  0.91400  Biso   1.000  H
  H89      1.0000 0.80100  0.39800  0.50400  Biso   1.000  H
  H90      1.0000 0.30100  0.89800  0.50400  Biso   1.000  H
  H91      1.0000 0.80100  0.60200  0.49600  Biso   1.000  H
  H92      1.0000 0.30100  0.10200  0.49600  Biso   1.000  H
  H93      1.0000 0.19900  0.39800  0.99600  Biso   1.000  H
  H94      1.0000 0.69900  0.89800  0.99600  Biso   1.000  H
  H95      1.0000 0.19900  0.60200  0.00400  Biso   1.000  H
  H96      1.0000 0.69900  0.10200  0.00400  Biso   1.000  H
