data_image0
_cell_length_a       9.182
_cell_length_b       15.203
_cell_length_c       8.306
_cell_angle_alpha    86.821
_cell_angle_beta     89.007
_cell_angle_gamma    96.839

_symmetry_space_group_name_H-M    "P 1"
_symmetry_int_tables_number       1

loop_
  _symmetry_equiv_pos_as_xyz
  'x, y, z'

loop_
  _atom_site_label
  _atom_site_occupancy
  _atom_site_fract_x
  _atom_site_fract_y
  _atom_site_fract_z
  _atom_site_thermal_displace_type
  _atom_site_B_iso_or_equiv
  _atom_site_type_symbol
  C1       1.0000 0.27380  0.90260  0.48950  Biso   1.000  C
  C2       1.0000 0.72620  0.09740  0.51050  Biso   1.000  C
  C3       1.0000 0.11260  0.88190  0.47540  Biso   1.000  C
  C4       1.0000 0.88740  0.11810  0.52460  Biso   1.000  C
  C5       1.0000 0.03530  0.88090  0.33460  Biso   1.000  C
  C6       1.0000 0.96470  0.11910  0.66540  Biso   1.000  C
  H1       1.0000 0.07140  0.89610  0.22880  Biso   1.000  H
  H2       1.0000 0.92860  0.10390  0.77120  Biso   1.000  H
  C7       1.0000 0.89350  0.85280  0.38470  Biso   1.000  C
  C8       1.0000 0.10650  0.14720  0.61530  Biso   1.000  C
  C9       1.0000 0.76330  0.83470  0.28090  Biso   1.000  C
  C10      1.0000 0.23670  0.16530  0.71910  Biso   1.000  C
  C11      1.0000 0.23250  0.72360  0.99420  Biso   1.000  C
  C12      1.0000 0.76750  0.27640  0.00580  Biso   1.000  C
  C13      1.0000 0.07450  0.70420  0.95850  Biso   1.000  C
  C14      1.0000 0.92550  0.29580  0.04150  Biso   1.000  C
  C15      1.0000 0.98270  0.63010  0.01170  Biso   1.000  C
  C16      1.0000 0.01730  0.36990  0.98830  Biso   1.000  C
  H3       1.0000 0.00480  0.58160  0.07810  Biso   1.000  H
  H4       1.0000 0.99520  0.41840  0.92190  Biso   1.000  H
  C17      1.0000 0.84820  0.64390  0.94340  Biso   1.000  C
  C18      1.0000 0.15180  0.35610  0.05660  Biso   1.000  C
  C19      1.0000 0.70720  0.58380  0.96040  Biso   1.000  C
  C20      1.0000 0.29280  0.41620  0.03960  Biso   1.000  C
  C21      1.0000 0.55380  0.61880  0.54000  Biso   1.000  C
  C22      1.0000 0.44620  0.38120  0.46000  Biso   1.000  C
  C23      1.0000 0.49190  0.53950  0.46840  Biso   1.000  C
  C24      1.0000 0.50810  0.46050  0.53160  Biso   1.000  C
  C25      1.0000 0.45070  0.08790  0.13170  Biso   1.000  C
  C26      1.0000 0.54930  0.91210  0.86830  Biso   1.000  C
  C27      1.0000 0.53040  0.02480  0.05480  Biso   1.000  C
  C28      1.0000 0.46960  0.97520  0.94520  Biso   1.000  C
  B1       1.0000 0.04340  0.85510  0.78810  Biso   1.000  B
  B2       1.0000 0.95660  0.14490  0.21190  Biso   1.000  B
  Cu1      1.0000 0.71864  0.77918  0.70076  Biso   1.000  Cu
  Cu2      1.0000 0.28136  0.22082  0.29924  Biso   1.000  Cu
  F1       1.0000 0.33630  0.83501  0.55470  Biso   1.000  F
  F2       1.0000 0.66370  0.16499  0.44530  Biso   1.000  F
  F3       1.0000 0.31300  0.97157  0.58000  Biso   1.000  F
  F4       1.0000 0.68700  0.02843  0.42000  Biso   1.000  F
  F5       1.0000 0.33690  0.92250  0.34470  Biso   1.000  F
  F6       1.0000 0.66310  0.07750  0.65530  Biso   1.000  F
  F7       1.0000 0.63790  0.84919  0.34890  Biso   1.000  F
  F8       1.0000 0.36210  0.15081  0.65110  Biso   1.000  F
  F9       1.0000 0.74460  0.75020  0.24040  Biso   1.000  F
  F10      1.0000 0.25540  0.24980  0.75960  Biso   1.000  F
  F11      1.0000 0.78020  0.88600  0.14390  Biso   1.000  F
  F12      1.0000 0.21980  0.11400  0.85610  Biso   1.000  F
  F13      1.0000 0.26500  0.79923  0.06800  Biso   1.000  F
  F14      1.0000 0.73500  0.20077  0.93200  Biso   1.000  F
  F15      1.0000 0.27200  0.65920  0.09480  Biso   1.000  F
  F16      1.0000 0.72800  0.34080  0.90520  Biso   1.000  F
  F17      1.0000 0.31950  0.72930  0.86330  Biso   1.000  F
  F18      1.0000 0.68050  0.27070  0.13670  Biso   1.000  F
  F19      1.0000 0.68910  0.53016  0.83730  Biso   1.000  F
  F20      1.0000 0.31090  0.46984  0.16270  Biso   1.000  F
  F21      1.0000 0.70610  0.52950  0.09240  Biso   1.000  F
  F22      1.0000 0.29390  0.47050  0.90760  Biso   1.000  F
  F23      1.0000 0.59110  0.62610  0.96460  Biso   1.000  F
  F24      1.0000 0.40890  0.37390  0.03540  Biso   1.000  F
  N1       1.0000 0.01890  0.85603  0.60220  Biso   1.000  N
  N2       1.0000 0.98110  0.14397  0.39780  Biso   1.000  N
  N3       1.0000 0.88130  0.83830  0.54570  Biso   1.000  N
  N4       1.0000 0.11870  0.16170  0.45430  Biso   1.000  N
  N5       1.0000 0.99840  0.75854  0.86530  Biso   1.000  N
  N6       1.0000 0.00160  0.24146  0.13470  Biso   1.000  N
  N7       1.0000 0.85770  0.72051  0.85700  Biso   1.000  N
  N8       1.0000 0.14230  0.27949  0.14300  Biso   1.000  N
  N9       1.0000 0.60510  0.68240  0.59460  Biso   1.000  N
  N10      1.0000 0.39490  0.31760  0.40540  Biso   1.000  N
  N11      1.0000 0.39030  0.13740  0.19450  Biso   1.000  N
  N12      1.0000 0.60970  0.86260  0.80550  Biso   1.000  N
  C29      1.0000 0.97840  0.45370  0.50560  Biso   1.000  C
  C30      1.0000 0.02160  0.54630  0.49440  Biso   1.000  C
  C31      1.0000 0.90760  0.52050  0.43200  Biso   1.000  C
  C32      1.0000 0.09240  0.47950  0.56800  Biso   1.000  C
  H5       1.0000 0.82410  0.50600  0.37050  Biso   1.000  H
  H6       1.0000 0.17590  0.49400  0.62950  Biso   1.000  H
  C33      1.0000 0.96030  0.60900  0.44940  Biso   1.000  C
  C34      1.0000 0.03970  0.39100  0.55060  Biso   1.000  C
  H7       1.0000 0.91240  0.65420  0.39960  Biso   1.000  H
  H8       1.0000 0.08760  0.34580  0.60040  Biso   1.000  H
  C35      1.0000 0.08370  0.63060  0.54040  Biso   1.000  C
  C36      1.0000 0.91630  0.36940  0.45960  Biso   1.000  C
  H9       1.0000 0.11940  0.69040  0.55210  Biso   1.000  H
  H10      1.0000 0.88060  0.30960  0.44790  Biso   1.000  H
  C37      1.0000 0.15450  0.56370  0.61390  Biso   1.000  C
  C38      1.0000 0.84550  0.43630  0.38610  Biso   1.000  C
  H11      1.0000 0.23800  0.57830  0.67540  Biso   1.000  H
  H12      1.0000 0.76200  0.42170  0.32460  Biso   1.000  H
  C39      1.0000 0.10180  0.47520  0.59650  Biso   1.000  C
  C40      1.0000 0.89820  0.52480  0.40350  Biso   1.000  C
  H13      1.0000 0.14970  0.43000  0.64630  Biso   1.000  H
  H14      1.0000 0.85030  0.57000  0.35370  Biso   1.000  H
  C41      1.0000 0.92700  0.35980  0.49500  Biso   1.000  C
  C42      1.0000 0.07300  0.64020  0.50500  Biso   1.000  C
  H15      1.0000 0.93610  0.32870  0.59840  Biso   1.000  H
  H16      1.0000 0.06390  0.67130  0.40160  Biso   1.000  H
  H17      1.0000 0.98530  0.33510  0.41400  Biso   1.000  H
  H18      1.0000 0.01470  0.66490  0.58600  Biso   1.000  H
  H19      1.0000 0.82480  0.35300  0.46420  Biso   1.000  H
  H20      1.0000 0.17520  0.64700  0.53580  Biso   1.000  H
  H21      1.0000 0.17600  0.87200  0.80700  Biso   1.000  H
  H22      1.0000 0.82400  0.12800  0.19300  Biso   1.000  H
  H23      1.0000 0.96000  0.90000  0.84200  Biso   1.000  H
  H24      1.0000 0.04000  0.10000  0.15800  Biso   1.000  H
  H25      1.0000 0.35300  0.97200  0.92900  Biso   1.000  H
  H26      1.0000 0.64700  0.02800  0.07100  Biso   1.000  H
  H27      1.0000 0.45900  0.54800  0.36100  Biso   1.000  H
  H28      1.0000 0.54100  0.45200  0.63900  Biso   1.000  H
