data_image0
_cell_length_a       18.8049
_cell_length_b       13.7184
_cell_length_c       17.7762
_cell_angle_alpha    90
_cell_angle_beta     95.511
_cell_angle_gamma    90

_symmetry_space_group_name_H-M    "P 1"
_symmetry_int_tables_number       1

loop_
  _symmetry_equiv_pos_as_xyz
  'x, y, z'

loop_
  _atom_site_label
  _atom_site_occupancy
  _atom_site_fract_x
  _atom_site_fract_y
  _atom_site_fract_z
  _atom_site_thermal_displace_type
  _atom_site_B_iso_or_equiv
  _atom_site_type_symbol
  Mo1      1.0000 0.07704  0.42807  0.17132  Biso   1.000  Mo
  Mo2      1.0000 0.92296  0.92807  0.32868  Biso   1.000  Mo
  Mo3      1.0000 0.92296  0.57193  0.82868  Biso   1.000  Mo
  Mo4      1.0000 0.07704  0.07193  0.67132  Biso   1.000  Mo
  Mo5      1.0000 0.21708  0.27061  0.15498  Biso   1.000  Mo
  Mo6      1.0000 0.78292  0.77061  0.34502  Biso   1.000  Mo
  Mo7      1.0000 0.78292  0.72939  0.84502  Biso   1.000  Mo
  Mo8      1.0000 0.21708  0.22939  0.65498  Biso   1.000  Mo
  Mo9      1.0000 0.29254  0.50290  0.45205  Biso   1.000  Mo
  Mo10     1.0000 0.70746  0.00290  0.04795  Biso   1.000  Mo
  Mo11     1.0000 0.70746  0.49710  0.54795  Biso   1.000  Mo
  Mo12     1.0000 0.29254  0.99710  0.95205  Biso   1.000  Mo
  Mo13     1.0000 0.20566  0.48201  0.05215  Biso   1.000  Mo
  Mo14     1.0000 0.79434  0.98201  0.44785  Biso   1.000  Mo
  Mo15     1.0000 0.79434  0.51799  0.94785  Biso   1.000  Mo
  Mo16     1.0000 0.20566  0.01799  0.55215  Biso   1.000  Mo
  Mo17     1.0000 0.27928  0.73043  0.33861  Biso   1.000  Mo
  Mo18     1.0000 0.72072  0.23043  0.16139  Biso   1.000  Mo
  Mo19     1.0000 0.72072  0.26957  0.66139  Biso   1.000  Mo
  Mo20     1.0000 0.27928  0.76957  0.83861  Biso   1.000  Mo
  Mo21     1.0000 0.24754  0.28545  0.36366  Biso   1.000  Mo
  Mo22     1.0000 0.75246  0.78545  0.13634  Biso   1.000  Mo
  Mo23     1.0000 0.75246  0.71455  0.63634  Biso   1.000  Mo
  Mo24     1.0000 0.24754  0.21455  0.86366  Biso   1.000  Mo
  Mo25     1.0000 0.11182  0.67374  0.25475  Biso   1.000  Mo
  Mo26     1.0000 0.88818  0.17374  0.24525  Biso   1.000  Mo
  Mo27     1.0000 0.88818  0.32626  0.74525  Biso   1.000  Mo
  Mo28     1.0000 0.11182  0.82626  0.75475  Biso   1.000  Mo
  Mo29     1.0000 0.42883  0.56109  0.32275  Biso   1.000  Mo
  Mo30     1.0000 0.57117  0.06109  0.17725  Biso   1.000  Mo
  Mo31     1.0000 0.57117  0.43891  0.67725  Biso   1.000  Mo
  Mo32     1.0000 0.42883  0.93891  0.82275  Biso   1.000  Mo
  Mo33     1.0000 0.39616  0.33238  0.24556  Biso   1.000  Mo
  Mo34     1.0000 0.60384  0.83238  0.25444  Biso   1.000  Mo
  Mo35     1.0000 0.60384  0.66762  0.75444  Biso   1.000  Mo
  Mo36     1.0000 0.39616  0.16762  0.74556  Biso   1.000  Mo
  Mo37     1.0000 0.11919  0.45898  0.37995  Biso   1.000  Mo
  Mo38     1.0000 0.88081  0.95898  0.12005  Biso   1.000  Mo
  Mo39     1.0000 0.88081  0.54102  0.62005  Biso   1.000  Mo
  Mo40     1.0000 0.11919  0.04102  0.87995  Biso   1.000  Mo
  Mo41     1.0000 0.39106  0.53331  0.12958  Biso   1.000  Mo
  Mo42     1.0000 0.60894  0.03331  0.37042  Biso   1.000  Mo
  Mo43     1.0000 0.60894  0.46669  0.87042  Biso   1.000  Mo
  Mo44     1.0000 0.39106  0.96669  0.62958  Biso   1.000  Mo
  Mo45     1.0000 0.25079  0.71636  0.14523  Biso   1.000  Mo
  Mo46     1.0000 0.74921  0.21636  0.35477  Biso   1.000  Mo
  Mo47     1.0000 0.74921  0.28364  0.85477  Biso   1.000  Mo
  Mo48     1.0000 0.25079  0.78364  0.64523  Biso   1.000  Mo
  Cu1      1.0000 0.54394  0.34719  0.13025  Biso   1.000  Cu
  Cu2      1.0000 0.45606  0.84719  0.36975  Biso   1.000  Cu
  Cu3      1.0000 0.45606  0.65281  0.86975  Biso   1.000  Cu
  Cu4      1.0000 0.54394  0.15281  0.63025  Biso   1.000  Cu
  Cu5      1.0000 0.56999  0.37436  0.35105  Biso   1.000  Cu
  Cu6      1.0000 0.43001  0.87436  0.14895  Biso   1.000  Cu
  Cu7      1.0000 0.43001  0.62564  0.64895  Biso   1.000  Cu
  Cu8      1.0000 0.56999  0.12564  0.85105  Biso   1.000  Cu
  P1       1.0000 0.25140  0.49757  0.25066  Biso   1.000  P
  P2       1.0000 0.74860  0.99757  0.24934  Biso   1.000  P
  P3       1.0000 0.74860  0.50243  0.74934  Biso   1.000  P
  P4       1.0000 0.25140  0.00243  0.75066  Biso   1.000  P
  N1       1.0000 0.53700  0.18770  0.93670  Biso   1.000  N
  N2       1.0000 0.46300  0.68770  0.56330  Biso   1.000  N
  N3       1.0000 0.46300  0.81230  0.06330  Biso   1.000  N
  N4       1.0000 0.53700  0.31230  0.43670  Biso   1.000  N
  N5       1.0000 0.46450  0.18950  0.94740  Biso   1.000  N
  N6       1.0000 0.53550  0.68950  0.55260  Biso   1.000  N
  N7       1.0000 0.53550  0.81050  0.05260  Biso   1.000  N
  N8       1.0000 0.46450  0.31050  0.44740  Biso   1.000  N
  N9       1.0000 0.52070  0.27240  0.04120  Biso   1.000  N
  N10      1.0000 0.47930  0.77240  0.45880  Biso   1.000  N
  N11      1.0000 0.47930  0.72760  0.95880  Biso   1.000  N
  N12      1.0000 0.52070  0.22760  0.54120  Biso   1.000  N
  N13      1.0000 0.39370  0.25960  0.03410  Biso   1.000  N
  N14      1.0000 0.60630  0.75960  0.46590  Biso   1.000  N
  N15      1.0000 0.60630  0.74040  0.96590  Biso   1.000  N
  N16      1.0000 0.39370  0.24040  0.53410  Biso   1.000  N
  H1       1.0000 0.35540  0.23790  0.00940  Biso   1.000  H
  H2       1.0000 0.64460  0.73790  0.49060  Biso   1.000  H
  H3       1.0000 0.64460  0.76210  0.99060  Biso   1.000  H
  H4       1.0000 0.35540  0.26210  0.50940  Biso   1.000  H
  H5       1.0000 0.39110  0.29320  0.07450  Biso   1.000  H
  H6       1.0000 0.60890  0.79320  0.42550  Biso   1.000  H
  H7       1.0000 0.60890  0.70680  0.92550  Biso   1.000  H
  H8       1.0000 0.39110  0.20680  0.57450  Biso   1.000  H
  N17      1.0000 0.59110  0.44240  0.19520  Biso   1.000  N
  N18      1.0000 0.40890  0.94240  0.30480  Biso   1.000  N
  N19      1.0000 0.40890  0.55760  0.80480  Biso   1.000  N
  N20      1.0000 0.59110  0.05760  0.69520  Biso   1.000  N
  N21      1.0000 0.60950  0.44690  0.27380  Biso   1.000  N
  N22      1.0000 0.39050  0.94690  0.22620  Biso   1.000  N
  N23      1.0000 0.39050  0.55310  0.72620  Biso   1.000  N
  N24      1.0000 0.60950  0.05310  0.77380  Biso   1.000  N
  N25      1.0000 0.66170  0.56810  0.22140  Biso   1.000  N
  N26      1.0000 0.33830  0.06810  0.27860  Biso   1.000  N
  N27      1.0000 0.33830  0.43190  0.77860  Biso   1.000  N
  N28      1.0000 0.66170  0.93190  0.72140  Biso   1.000  N
  N29      1.0000 0.61800  0.54340  0.09320  Biso   1.000  N
  N30      1.0000 0.38200  0.04340  0.40680  Biso   1.000  N
  N31      1.0000 0.38200  0.45660  0.90680  Biso   1.000  N
  N32      1.0000 0.61800  0.95660  0.59320  Biso   1.000  N
  H9       1.0000 0.59210  0.50980  0.06010  Biso   1.000  H
  H10      1.0000 0.40790  0.00980  0.43990  Biso   1.000  H
  H11      1.0000 0.40790  0.49020  0.93990  Biso   1.000  H
  H12      1.0000 0.59210  0.99020  0.56010  Biso   1.000  H
  H13      1.0000 0.64080  0.59370  0.07940  Biso   1.000  H
  H14      1.0000 0.35920  0.09370  0.42060  Biso   1.000  H
  H15      1.0000 0.35920  0.40630  0.92060  Biso   1.000  H
  H16      1.0000 0.64080  0.90630  0.57940  Biso   1.000  H
  C1       1.0000 0.56750  0.23700  0.99420  Biso   1.000  C
  C2       1.0000 0.43250  0.73700  0.50580  Biso   1.000  C
  C3       1.0000 0.43250  0.76300  0.00580  Biso   1.000  C
  C4       1.0000 0.56750  0.26300  0.49420  Biso   1.000  C
  H17      1.0000 0.61660  0.24680  0.00220  Biso   1.000  H
  H18      1.0000 0.38340  0.74680  0.49780  Biso   1.000  H
  H19      1.0000 0.38340  0.75320  0.99780  Biso   1.000  H
  H20      1.0000 0.61660  0.25320  0.50220  Biso   1.000  H
  C5       1.0000 0.45600  0.24140  0.01000  Biso   1.000  C
  C6       1.0000 0.54400  0.74140  0.49000  Biso   1.000  C
  C7       1.0000 0.54400  0.75860  0.99000  Biso   1.000  C
  C8       1.0000 0.45600  0.25860  0.51000  Biso   1.000  C
  C9       1.0000 0.65080  0.52120  0.28620  Biso   1.000  C
  C10      1.0000 0.34920  0.02120  0.21380  Biso   1.000  C
  C11      1.0000 0.34920  0.47880  0.71380  Biso   1.000  C
  C12      1.0000 0.65080  0.97880  0.78620  Biso   1.000  C
  H21      1.0000 0.67070  0.54030  0.33390  Biso   1.000  H
  H22      1.0000 0.32930  0.04030  0.16610  Biso   1.000  H
  H23      1.0000 0.32930  0.45970  0.66610  Biso   1.000  H
  H24      1.0000 0.67070  0.95970  0.83390  Biso   1.000  H
  C13      1.0000 0.62290  0.51730  0.16620  Biso   1.000  C
  C14      1.0000 0.37710  0.01730  0.33380  Biso   1.000  C
  C15      1.0000 0.37710  0.48270  0.83380  Biso   1.000  C
  C16      1.0000 0.62290  0.98270  0.66620  Biso   1.000  C
  O1       1.0000 0.45386  0.24000  0.24340  Biso   1.000  O
  O2       1.0000 0.54614  0.74000  0.25660  Biso   1.000  O
  O3       1.0000 0.54614  0.76000  0.75660  Biso   1.000  O
  O4       1.0000 0.45386  0.26000  0.74340  Biso   1.000  O
  O5       1.0000 0.19480  0.49430  0.95850  Biso   1.000  O
  O6       1.0000 0.80520  0.99430  0.54150  Biso   1.000  O
  O7       1.0000 0.80520  0.50570  0.04150  Biso   1.000  O
  O8       1.0000 0.19480  0.00570  0.45850  Biso   1.000  O
  O9       1.0000 0.27222  0.63370  0.41180  Biso   1.000  O
  O10      1.0000 0.72778  0.13370  0.08820  Biso   1.000  O
  O11      1.0000 0.72778  0.36630  0.58820  Biso   1.000  O
  O12      1.0000 0.27222  0.86630  0.91180  Biso   1.000  O
  O13      1.0000 0.08070  0.56790  0.19330  Biso   1.000  O
  O14      1.0000 0.91930  0.06790  0.30670  Biso   1.000  O
  O15      1.0000 0.91930  0.43210  0.80670  Biso   1.000  O
  O16      1.0000 0.08070  0.93210  0.69330  Biso   1.000  O
  O17      1.0000 0.29317  0.36490  0.44730  Biso   1.000  O
  O18      1.0000 0.70683  0.86490  0.05270  Biso   1.000  O
  O19      1.0000 0.70683  0.63510  0.55270  Biso   1.000  O
  O20      1.0000 0.29317  0.13510  0.94730  Biso   1.000  O
  O21      1.0000 0.99035  0.41120  0.14620  Biso   1.000  O
  O22      1.0000 0.00965  0.91120  0.35380  Biso   1.000  O
  O23      1.0000 0.00965  0.58880  0.85380  Biso   1.000  O
  O24      1.0000 0.99035  0.08880  0.64620  Biso   1.000  O
  O25      1.0000 0.15963  0.32470  0.39100  Biso   1.000  O
  O26      1.0000 0.84037  0.82470  0.10900  Biso   1.000  O
  O27      1.0000 0.84037  0.67530  0.60900  Biso   1.000  O
  O28      1.0000 0.15963  0.17530  0.89100  Biso   1.000  O
  O29      1.0000 0.24980  0.80680  0.08230  Biso   1.000  O
  O30      1.0000 0.75020  0.30680  0.41770  Biso   1.000  O
  O31      1.0000 0.75020  0.19320  0.91770  Biso   1.000  O
  O32      1.0000 0.24980  0.69320  0.58230  Biso   1.000  O
  O33      1.0000 0.08447  0.41270  0.27879  Biso   1.000  O
  O34      1.0000 0.91553  0.91270  0.22121  Biso   1.000  O
  O35      1.0000 0.91553  0.58730  0.72121  Biso   1.000  O
  O36      1.0000 0.08447  0.08730  0.77879  Biso   1.000  O
  O37      1.0000 0.31519  0.28640  0.17855  Biso   1.000  O
  O38      1.0000 0.68481  0.78640  0.32145  Biso   1.000  O
  O39      1.0000 0.68481  0.71360  0.82145  Biso   1.000  O
  O40      1.0000 0.31519  0.21360  0.67855  Biso   1.000  O
  O41      1.0000 0.45203  0.42120  0.30724  Biso   1.000  O
  O42      1.0000 0.54797  0.92120  0.19276  Biso   1.000  O
  O43      1.0000 0.54797  0.57880  0.69276  Biso   1.000  O
  O44      1.0000 0.45203  0.07880  0.80724  Biso   1.000  O
  O45      1.0000 0.37169  0.67290  0.32325  Biso   1.000  O
  O46      1.0000 0.62831  0.17290  0.17675  Biso   1.000  O
  O47      1.0000 0.62831  0.32710  0.67675  Biso   1.000  O
  O48      1.0000 0.37169  0.82710  0.82325  Biso   1.000  O
  O49      1.0000 0.33587  0.65390  0.13690  Biso   1.000  O
  O50      1.0000 0.66413  0.15390  0.36310  Biso   1.000  O
  O51      1.0000 0.66413  0.34610  0.86310  Biso   1.000  O
  O52      1.0000 0.33587  0.84610  0.63690  Biso   1.000  O
  O53      1.0000 0.25834  0.17440  0.40270  Biso   1.000  O
  O54      1.0000 0.74166  0.67440  0.09730  Biso   1.000  O
  O55      1.0000 0.74166  0.82560  0.59730  Biso   1.000  O
  O56      1.0000 0.25834  0.32560  0.90270  Biso   1.000  O
  O57      1.0000 0.03490  0.73350  0.26170  Biso   1.000  O
  O58      1.0000 0.96510  0.23350  0.23830  Biso   1.000  O
  O59      1.0000 0.96510  0.26650  0.73830  Biso   1.000  O
  O60      1.0000 0.03490  0.76650  0.76170  Biso   1.000  O
  O61      1.0000 0.20289  0.61230  0.08540  Biso   1.000  O
  O62      1.0000 0.79711  0.11230  0.41460  Biso   1.000  O
  O63      1.0000 0.79711  0.38770  0.91460  Biso   1.000  O
  O64      1.0000 0.20289  0.88770  0.58540  Biso   1.000  O
  O65      1.0000 0.19007  0.49570  0.45770  Biso   1.000  O
  O66      1.0000 0.80993  0.99570  0.04230  Biso   1.000  O
  O67      1.0000 0.80993  0.50430  0.54230  Biso   1.000  O
  O68      1.0000 0.19007  0.00430  0.95770  Biso   1.000  O
  O69      1.0000 0.11012  0.58290  0.33939  Biso   1.000  O
  O70      1.0000 0.88988  0.08290  0.16061  Biso   1.000  O
  O71      1.0000 0.88988  0.41710  0.66061  Biso   1.000  O
  O72      1.0000 0.11012  0.91710  0.83939  Biso   1.000  O
  O73      1.0000 0.32240  0.52180  0.54230  Biso   1.000  O
  O74      1.0000 0.67760  0.02180  0.95770  Biso   1.000  O
  O75      1.0000 0.67760  0.47820  0.45770  Biso   1.000  O
  O76      1.0000 0.32240  0.97820  0.04230  Biso   1.000  O
  O77      1.0000 0.50529  0.59390  0.36990  Biso   1.000  O
  O78      1.0000 0.49471  0.09390  0.13010  Biso   1.000  O
  O79      1.0000 0.49471  0.40610  0.63010  Biso   1.000  O
  O80      1.0000 0.50529  0.90610  0.86990  Biso   1.000  O
  O81      1.0000 0.42148  0.40400  0.15712  Biso   1.000  O
  O82      1.0000 0.57852  0.90400  0.34288  Biso   1.000  O
  O83      1.0000 0.57852  0.59600  0.84288  Biso   1.000  O
  O84      1.0000 0.42148  0.09600  0.65712  Biso   1.000  O
  O85      1.0000 0.30280  0.82840  0.39120  Biso   1.000  O
  O86      1.0000 0.69720  0.32840  0.10880  Biso   1.000  O
  O87      1.0000 0.69720  0.17160  0.60880  Biso   1.000  O
  O88      1.0000 0.30280  0.67160  0.89120  Biso   1.000  O
  O89      1.0000 0.37602  0.51110  0.40240  Biso   1.000  O
  O90      1.0000 0.62398  0.01110  0.09760  Biso   1.000  O
  O91      1.0000 0.62398  0.48890  0.59760  Biso   1.000  O
  O92      1.0000 0.37602  0.98890  0.90240  Biso   1.000  O
  O93      1.0000 0.10884  0.46510  0.07500  Biso   1.000  O
  O94      1.0000 0.89116  0.96510  0.42500  Biso   1.000  O
  O95      1.0000 0.89116  0.53490  0.92500  Biso   1.000  O
  O96      1.0000 0.10884  0.03490  0.57500  Biso   1.000  O
  O97      1.0000 0.23239  0.60570  0.24847  Biso   1.000  O
  O98      1.0000 0.76761  0.10570  0.25153  Biso   1.000  O
  O99      1.0000 0.76761  0.39430  0.75153  Biso   1.000  O
  O100     1.0000 0.23239  0.89430  0.74847  Biso   1.000  O
  O101     1.0000 0.04838  0.44950  0.43000  Biso   1.000  O
  O102     1.0000 0.95162  0.94950  0.07000  Biso   1.000  O
  O103     1.0000 0.95162  0.55050  0.57000  Biso   1.000  O
  O104     1.0000 0.04838  0.05050  0.93000  Biso   1.000  O
  O105     1.0000 0.21367  0.33980  0.06438  Biso   1.000  O
  O106     1.0000 0.78633  0.83980  0.43562  Biso   1.000  O
  O107     1.0000 0.78633  0.66020  0.93562  Biso   1.000  O
  O108     1.0000 0.21367  0.16020  0.56438  Biso   1.000  O
  O109     1.0000 0.20771  0.44340  0.18695  Biso   1.000  O
  O110     1.0000 0.79229  0.94340  0.31305  Biso   1.000  O
  O111     1.0000 0.79229  0.55660  0.81305  Biso   1.000  O
  O112     1.0000 0.20771  0.05660  0.68695  Biso   1.000  O
  O113     1.0000 0.21158  0.15530  0.12530  Biso   1.000  O
  O114     1.0000 0.78842  0.65530  0.37470  Biso   1.000  O
  O115     1.0000 0.78842  0.84470  0.87470  Biso   1.000  O
  O116     1.0000 0.21158  0.34470  0.62530  Biso   1.000  O
  O117     1.0000 0.44408  0.55800  0.06157  Biso   1.000  O
  O118     1.0000 0.55592  0.05800  0.43843  Biso   1.000  O
  O119     1.0000 0.55592  0.44200  0.93843  Biso   1.000  O
  O120     1.0000 0.44408  0.94200  0.56157  Biso   1.000  O
  O121     1.0000 0.21568  0.25440  0.26519  Biso   1.000  O
  O122     1.0000 0.78432  0.75440  0.23481  Biso   1.000  O
  O123     1.0000 0.78432  0.74560  0.73481  Biso   1.000  O
  O124     1.0000 0.21568  0.24560  0.76519  Biso   1.000  O
  O125     1.0000 0.28008  0.78190  0.23581  Biso   1.000  O
  O126     1.0000 0.71992  0.28190  0.26419  Biso   1.000  O
  O127     1.0000 0.71992  0.21810  0.76419  Biso   1.000  O
  O128     1.0000 0.28008  0.71810  0.73581  Biso   1.000  O
  O129     1.0000 0.11542  0.30200  0.15889  Biso   1.000  O
  O130     1.0000 0.88458  0.80200  0.34111  Biso   1.000  O
  O131     1.0000 0.88458  0.69800  0.84111  Biso   1.000  O
  O132     1.0000 0.11542  0.19800  0.65889  Biso   1.000  O
  O133     1.0000 0.30730  0.48600  0.07406  Biso   1.000  O
  O134     1.0000 0.69270  0.98600  0.42594  Biso   1.000  O
  O135     1.0000 0.69270  0.51400  0.92594  Biso   1.000  O
  O136     1.0000 0.30730  0.01400  0.57406  Biso   1.000  O
  O137     1.0000 0.44874  0.57990  0.21993  Biso   1.000  O
  O138     1.0000 0.55126  0.07990  0.28007  Biso   1.000  O
  O139     1.0000 0.55126  0.42010  0.78007  Biso   1.000  O
  O140     1.0000 0.44874  0.92010  0.71993  Biso   1.000  O
  O141     1.0000 0.33132  0.48610  0.24104  Biso   1.000  O
  O142     1.0000 0.66868  0.98610  0.25896  Biso   1.000  O
  O143     1.0000 0.66868  0.51390  0.75896  Biso   1.000  O
  O144     1.0000 0.33132  0.01390  0.74104  Biso   1.000  O
  O145     1.0000 0.23542  0.45450  0.32692  Biso   1.000  O
  O146     1.0000 0.76458  0.95450  0.17308  Biso   1.000  O
  O147     1.0000 0.76458  0.54550  0.67308  Biso   1.000  O
  O148     1.0000 0.23542  0.04550  0.82692  Biso   1.000  O
  O149     1.0000 0.17834  0.74700  0.32349  Biso   1.000  O
  O150     1.0000 0.82166  0.24700  0.17651  Biso   1.000  O
  O151     1.0000 0.82166  0.25300  0.67651  Biso   1.000  O
  O152     1.0000 0.17834  0.75300  0.82349  Biso   1.000  O
  O153     1.0000 0.34190  0.29790  0.32430  Biso   1.000  O
  O154     1.0000 0.65810  0.79790  0.17570  Biso   1.000  O
  O155     1.0000 0.65810  0.70210  0.67570  Biso   1.000  O
  O156     1.0000 0.34190  0.20210  0.82430  Biso   1.000  O
  O157     1.0000 0.15142  0.73720  0.17557  Biso   1.000  O
  O158     1.0000 0.84858  0.23720  0.32443  Biso   1.000  O
  O159     1.0000 0.84858  0.26280  0.82443  Biso   1.000  O
  O160     1.0000 0.15142  0.76280  0.67557  Biso   1.000  O
  Cu9      1.0000 0.96460  0.65929  0.37096  Biso   1.000  Cu
  Cu10     1.0000 0.03540  0.15929  0.12904  Biso   1.000  Cu
  Cu11     1.0000 0.03540  0.34071  0.62904  Biso   1.000  Cu
  Cu12     1.0000 0.96460  0.84071  0.87096  Biso   1.000  Cu
  Cu13     1.0000 0.93886  0.86172  0.65413  Biso   1.000  Cu
  Cu14     1.0000 0.06114  0.36172  0.84587  Biso   1.000  Cu
  Cu15     1.0000 0.06114  0.13828  0.34587  Biso   1.000  Cu
  Cu16     1.0000 0.93886  0.63828  0.15413  Biso   1.000  Cu
  N33      1.0000 0.91770  0.56190  0.30710  Biso   1.000  N
  N34      1.0000 0.08230  0.06190  0.19290  Biso   1.000  N
  N35      1.0000 0.08230  0.43810  0.69290  Biso   1.000  N
  N36      1.0000 0.91770  0.93810  0.80710  Biso   1.000  N
  N37      1.0000 0.89820  0.56610  0.22960  Biso   1.000  N
  N38      1.0000 0.10180  0.06610  0.27040  Biso   1.000  N
  N39      1.0000 0.10180  0.43390  0.77040  Biso   1.000  N
  N40      1.0000 0.89820  0.93390  0.72960  Biso   1.000  N
  N41      1.0000 0.84190  0.44390  0.27600  Biso   1.000  N
  N42      1.0000 0.15810  0.94390  0.22400  Biso   1.000  N
  N43      1.0000 0.15810  0.55610  0.72400  Biso   1.000  N
  N44      1.0000 0.84190  0.05610  0.77600  Biso   1.000  N
  N45      1.0000 0.88670  0.45570  0.40430  Biso   1.000  N
  N46      1.0000 0.11330  0.95570  0.09570  Biso   1.000  N
  N47      1.0000 0.11330  0.54430  0.59570  Biso   1.000  N
  N48      1.0000 0.88670  0.04430  0.90430  Biso   1.000  N
  H25      1.0000 0.91350  0.48500  0.43920  Biso   1.000  H
  H26      1.0000 0.08650  0.98500  0.06080  Biso   1.000  H
  H27      1.0000 0.08650  0.51500  0.56080  Biso   1.000  H
  H28      1.0000 0.91350  0.01500  0.93920  Biso   1.000  H
  H29      1.0000 0.86200  0.40590  0.41530  Biso   1.000  H
  H30      1.0000 0.13800  0.90590  0.08470  Biso   1.000  H
  H31      1.0000 0.13800  0.59410  0.58470  Biso   1.000  H
  H32      1.0000 0.86200  0.09410  0.91530  Biso   1.000  H
  N49      1.0000 0.97440  0.81090  0.56680  Biso   1.000  N
  N50      1.0000 0.02560  0.31090  0.93320  Biso   1.000  N
  N51      1.0000 0.02560  0.18910  0.43320  Biso   1.000  N
  N52      1.0000 0.97440  0.68910  0.06680  Biso   1.000  N
  N53      1.0000 0.04500  0.81810  0.55390  Biso   1.000  N
  N54      1.0000 0.95500  0.31810  0.94610  Biso   1.000  N
  N55      1.0000 0.95500  0.18190  0.44610  Biso   1.000  N
  N56      1.0000 0.04500  0.68190  0.05390  Biso   1.000  N
  N57      1.0000 0.99360  0.72950  0.46080  Biso   1.000  N
  N58      1.0000 0.00640  0.22950  0.03920  Biso   1.000  N
  N59      1.0000 0.00640  0.27050  0.53920  Biso   1.000  N
  N60      1.0000 0.99360  0.77050  0.96080  Biso   1.000  N
  N61      1.0000 0.11910  0.75630  0.46590  Biso   1.000  N
  N62      1.0000 0.88090  0.25630  0.03410  Biso   1.000  N
  N63      1.0000 0.88090  0.24370  0.53410  Biso   1.000  N
  N64      1.0000 0.11910  0.74370  0.96590  Biso   1.000  N
  H33      1.0000 0.15630  0.78260  0.48940  Biso   1.000  H
  H34      1.0000 0.84370  0.28260  0.01060  Biso   1.000  H
  H35      1.0000 0.84370  0.21740  0.51060  Biso   1.000  H
  H36      1.0000 0.15630  0.71740  0.98940  Biso   1.000  H
  H37      1.0000 0.12290  0.72280  0.42560  Biso   1.000  H
  H38      1.0000 0.87710  0.22280  0.07440  Biso   1.000  H
  H39      1.0000 0.87710  0.27720  0.57440  Biso   1.000  H
  H40      1.0000 0.12290  0.77720  0.92560  Biso   1.000  H
  C17      1.0000 0.88370  0.48770  0.33300  Biso   1.000  C
  C18      1.0000 0.11630  0.98770  0.16700  Biso   1.000  C
  C19      1.0000 0.11630  0.51230  0.66700  Biso   1.000  C
  C20      1.0000 0.88370  0.01230  0.83300  Biso   1.000  C
  C21      1.0000 0.85460  0.49550  0.21330  Biso   1.000  C
  C22      1.0000 0.14540  0.99550  0.28670  Biso   1.000  C
  C23      1.0000 0.14540  0.50450  0.78670  Biso   1.000  C
  C24      1.0000 0.85460  0.00450  0.71330  Biso   1.000  C
  H41      1.0000 0.83420  0.48130  0.16470  Biso   1.000  H
  H42      1.0000 0.16580  0.98130  0.33530  Biso   1.000  H
  H43      1.0000 0.16580  0.51870  0.83530  Biso   1.000  H
  H44      1.0000 0.83420  0.01870  0.66470  Biso   1.000  H
  C25      1.0000 0.94600  0.75880  0.50930  Biso   1.000  C
  C26      1.0000 0.05400  0.25880  0.99070  Biso   1.000  C
  C27      1.0000 0.05400  0.24120  0.49070  Biso   1.000  C
  C28      1.0000 0.94600  0.74120  0.00930  Biso   1.000  C
  H45      1.0000 0.89770  0.74340  0.50250  Biso   1.000  H
  H46      1.0000 0.10230  0.24340  0.99750  Biso   1.000  H
  H47      1.0000 0.10230  0.25660  0.49750  Biso   1.000  H
  H48      1.0000 0.89770  0.75660  0.00250  Biso   1.000  H
  C29      1.0000 0.05650  0.76720  0.49150  Biso   1.000  C
  C30      1.0000 0.94350  0.26720  0.00850  Biso   1.000  C
  C31      1.0000 0.94350  0.23280  0.50850  Biso   1.000  C
  C32      1.0000 0.05650  0.73280  0.99150  Biso   1.000  C
