data_image0
_cell_length_a       14.549
_cell_length_b       7.5683
_cell_length_c       14.342
_cell_angle_alpha    90
_cell_angle_beta     104.771
_cell_angle_gamma    90

_symmetry_space_group_name_H-M    "P 1"
_symmetry_int_tables_number       1

loop_
  _symmetry_equiv_pos_as_xyz
  'x, y, z'

loop_
  _atom_site_label
  _atom_site_occupancy
  _atom_site_fract_x
  _atom_site_fract_y
  _atom_site_fract_z
  _atom_site_thermal_displace_type
  _atom_site_B_iso_or_equiv
  _atom_site_type_symbol
  Cu1      1.0000 0.89032  0.16823  0.99747  Biso   1.000  Cu
  Cu2      1.0000 0.10968  0.66823  0.50253  Biso   1.000  Cu
  Cu3      1.0000 0.10968  0.83177  0.00253  Biso   1.000  Cu
  Cu4      1.0000 0.89032  0.33177  0.49747  Biso   1.000  Cu
  Cl1      1.0000 0.91218  0.09303  0.15223  Biso   1.000  Cl
  Cl2      1.0000 0.08782  0.59303  0.34777  Biso   1.000  Cl
  Cl3      1.0000 0.08782  0.90697  0.84777  Biso   1.000  Cl
  Cl4      1.0000 0.91218  0.40697  0.65223  Biso   1.000  Cl
  F1       1.0000 0.39165  0.47620  0.04801  Biso   1.000  F
  F2       1.0000 0.60835  0.97620  0.45199  Biso   1.000  F
  F3       1.0000 0.60835  0.52380  0.95199  Biso   1.000  F
  F4       1.0000 0.39165  0.02380  0.54801  Biso   1.000  F
  F5       1.0000 0.50665  0.93480  0.18366  Biso   1.000  F
  F6       1.0000 0.49335  0.43480  0.31634  Biso   1.000  F
  F7       1.0000 0.49335  0.06520  0.81634  Biso   1.000  F
  F8       1.0000 0.50665  0.56520  0.68366  Biso   1.000  F
  N1       1.0000 0.13944  0.38790  0.95124  Biso   1.000  N
  N2       1.0000 0.86056  0.88790  0.54876  Biso   1.000  N
  N3       1.0000 0.86056  0.61210  0.04876  Biso   1.000  N
  N4       1.0000 0.13944  0.11210  0.45124  Biso   1.000  N
  N5       1.0000 0.16407  0.37460  0.04952  Biso   1.000  N
  N6       1.0000 0.83593  0.87460  0.45048  Biso   1.000  N
  N7       1.0000 0.83593  0.62540  0.95048  Biso   1.000  N
  N8       1.0000 0.16407  0.12540  0.54952  Biso   1.000  N
  N9       1.0000 0.01412  0.28330  0.98825  Biso   1.000  N
  N10      1.0000 0.98588  0.78330  0.51175  Biso   1.000  N
  N11      1.0000 0.98588  0.71670  0.01175  Biso   1.000  N
  N12      1.0000 0.01412  0.21670  0.48825  Biso   1.000  N
  N13      1.0000 0.29934  0.53670  0.75240  Biso   1.000  N
  N14      1.0000 0.70066  0.03670  0.74760  Biso   1.000  N
  N15      1.0000 0.70066  0.46330  0.24760  Biso   1.000  N
  N16      1.0000 0.29934  0.96330  0.25240  Biso   1.000  N
  N17      1.0000 0.30197  0.71380  0.76982  Biso   1.000  N
  N18      1.0000 0.69803  0.21380  0.73018  Biso   1.000  N
  N19      1.0000 0.69803  0.28620  0.23018  Biso   1.000  N
  N20      1.0000 0.30197  0.78620  0.26982  Biso   1.000  N
  N21      1.0000 0.20929  0.65200  0.62249  Biso   1.000  N
  N22      1.0000 0.79071  0.15200  0.87751  Biso   1.000  N
  N23      1.0000 0.79071  0.34800  0.37751  Biso   1.000  N
  N24      1.0000 0.20929  0.84800  0.12249  Biso   1.000  N
  O1       1.0000 0.21863  0.20900  0.80265  Biso   1.000  O
  O2       1.0000 0.78137  0.70900  0.69735  Biso   1.000  O
  O3       1.0000 0.78137  0.79100  0.19735  Biso   1.000  O
  O4       1.0000 0.21863  0.29100  0.30265  Biso   1.000  O
  H1       1.0000 0.17730  0.15980  0.82280  Biso   1.000  H
  H2       1.0000 0.82270  0.65980  0.67720  Biso   1.000  H
  H3       1.0000 0.82270  0.84020  0.17720  Biso   1.000  H
  H4       1.0000 0.17730  0.34020  0.32280  Biso   1.000  H
  C1       1.0000 0.08641  0.31130  0.06726  Biso   1.000  C
  C2       1.0000 0.91359  0.81130  0.43274  Biso   1.000  C
  C3       1.0000 0.91359  0.68870  0.93274  Biso   1.000  C
  C4       1.0000 0.08641  0.18870  0.56726  Biso   1.000  C
  H5       1.0000 0.08140  0.28740  0.12940  Biso   1.000  H
  H6       1.0000 0.91860  0.78740  0.37060  Biso   1.000  H
  H7       1.0000 0.91860  0.71260  0.87060  Biso   1.000  H
  H8       1.0000 0.08140  0.21260  0.62940  Biso   1.000  H
  C5       1.0000 0.05043  0.33360  0.91706  Biso   1.000  C
  C6       1.0000 0.94957  0.83360  0.58294  Biso   1.000  C
  C7       1.0000 0.94957  0.66640  0.08294  Biso   1.000  C
  C8       1.0000 0.05043  0.16640  0.41706  Biso   1.000  C
  H9       1.0000 0.01820  0.33120  0.85210  Biso   1.000  H
  H10      1.0000 0.98180  0.83120  0.64790  Biso   1.000  H
  H11      1.0000 0.98180  0.66880  0.14790  Biso   1.000  H
  H12      1.0000 0.01820  0.16880  0.35210  Biso   1.000  H
  C9       1.0000 0.24670  0.77620  0.68940  Biso   1.000  C
  C10      1.0000 0.75330  0.27620  0.81060  Biso   1.000  C
  C11      1.0000 0.75330  0.22380  0.31060  Biso   1.000  C
  C12      1.0000 0.24670  0.72380  0.18940  Biso   1.000  C
  H13      1.0000 0.23420  0.89620  0.67930  Biso   1.000  H
  H14      1.0000 0.76580  0.39620  0.82070  Biso   1.000  H
  H15      1.0000 0.76580  0.10380  0.32070  Biso   1.000  H
  H16      1.0000 0.23420  0.60380  0.17930  Biso   1.000  H
  C13      1.0000 0.24482  0.50330  0.66538  Biso   1.000  C
  C14      1.0000 0.75518  0.00330  0.83462  Biso   1.000  C
  C15      1.0000 0.75518  0.49670  0.33462  Biso   1.000  C
  C16      1.0000 0.24482  0.99670  0.16538  Biso   1.000  C
  H17      1.0000 0.23310  0.39140  0.63820  Biso   1.000  H
  H18      1.0000 0.76690  0.89140  0.86180  Biso   1.000  H
  H19      1.0000 0.76690  0.60860  0.36180  Biso   1.000  H
  H20      1.0000 0.23310  0.10860  0.13820  Biso   1.000  H
  C17      1.0000 0.20639  0.46050  0.90142  Biso   1.000  C
  C18      1.0000 0.79361  0.96050  0.59858  Biso   1.000  C
  C19      1.0000 0.79361  0.53950  0.09858  Biso   1.000  C
  C20      1.0000 0.20639  0.03950  0.40142  Biso   1.000  C
  H21      1.0000 0.24480  0.54970  0.94210  Biso   1.000  H
  H22      1.0000 0.75520  0.04970  0.55790  Biso   1.000  H
  H23      1.0000 0.75520  0.45030  0.05790  Biso   1.000  H
  H24      1.0000 0.24480  0.95030  0.44210  Biso   1.000  H
  H25      1.0000 0.17110  0.51820  0.84280  Biso   1.000  H
  H26      1.0000 0.82890  0.01820  0.65720  Biso   1.000  H
  H27      1.0000 0.82890  0.48180  0.15720  Biso   1.000  H
  H28      1.0000 0.17110  0.98180  0.34280  Biso   1.000  H
  C21      1.0000 0.27258  0.32170  0.87520  Biso   1.000  C
  C22      1.0000 0.72742  0.82170  0.62480  Biso   1.000  C
  C23      1.0000 0.72742  0.67830  0.12480  Biso   1.000  C
  C24      1.0000 0.27258  0.17830  0.37520  Biso   1.000  C
  C25      1.0000 0.34429  0.41370  0.82837  Biso   1.000  C
  C26      1.0000 0.65571  0.91370  0.67163  Biso   1.000  C
  C27      1.0000 0.65571  0.58630  0.17163  Biso   1.000  C
  C28      1.0000 0.34429  0.08630  0.32837  Biso   1.000  C
  H29      1.0000 0.39050  0.47700  0.87770  Biso   1.000  H
  H30      1.0000 0.60950  0.97700  0.62230  Biso   1.000  H
  H31      1.0000 0.60950  0.52300  0.12230  Biso   1.000  H
  H32      1.0000 0.39050  0.02300  0.37770  Biso   1.000  H
  H33      1.0000 0.37810  0.32450  0.80160  Biso   1.000  H
  H34      1.0000 0.62190  0.82450  0.69840  Biso   1.000  H
  H35      1.0000 0.62190  0.67550  0.19840  Biso   1.000  H
  H36      1.0000 0.37810  0.17550  0.30160  Biso   1.000  H
  C29      1.0000 0.33231  0.21670  0.96120  Biso   1.000  C
  C30      1.0000 0.66769  0.71670  0.53880  Biso   1.000  C
  C31      1.0000 0.66769  0.78330  0.03880  Biso   1.000  C
  C32      1.0000 0.33231  0.28330  0.46120  Biso   1.000  C
  C33      1.0000 0.39009  0.29670  0.04174  Biso   1.000  C
  C34      1.0000 0.60991  0.79670  0.45826  Biso   1.000  C
  C35      1.0000 0.60991  0.70330  0.95826  Biso   1.000  C
  C36      1.0000 0.39009  0.20330  0.54174  Biso   1.000  C
  C37      1.0000 0.44900  0.20660  0.11680  Biso   1.000  C
  C38      1.0000 0.55100  0.70660  0.38320  Biso   1.000  C
  C39      1.0000 0.55100  0.79340  0.88320  Biso   1.000  C
  C40      1.0000 0.44900  0.29340  0.61680  Biso   1.000  C
  H37      1.0000 0.48690  0.26520  0.16980  Biso   1.000  H
  H38      1.0000 0.51310  0.76520  0.33020  Biso   1.000  H
  H39      1.0000 0.51310  0.73480  0.83020  Biso   1.000  H
  H40      1.0000 0.48690  0.23480  0.66980  Biso   1.000  H
  C41      1.0000 0.44902  0.02660  0.10950  Biso   1.000  C
  C42      1.0000 0.55098  0.52660  0.39050  Biso   1.000  C
  C43      1.0000 0.55098  0.97340  0.89050  Biso   1.000  C
  C44      1.0000 0.44902  0.47340  0.60950  Biso   1.000  C
  C45      1.0000 0.39503  0.93690  0.03270  Biso   1.000  C
  C46      1.0000 0.60497  0.43690  0.46730  Biso   1.000  C
  C47      1.0000 0.60497  0.06310  0.96730  Biso   1.000  C
  C48      1.0000 0.39503  0.56310  0.53270  Biso   1.000  C
  H41      1.0000 0.39690  0.81420  0.03020  Biso   1.000  H
  H42      1.0000 0.60310  0.31420  0.46980  Biso   1.000  H
  H43      1.0000 0.60310  0.18580  0.96980  Biso   1.000  H
  H44      1.0000 0.39690  0.68580  0.53020  Biso   1.000  H
  C49      1.0000 0.33719  0.03310  0.95843  Biso   1.000  C
  C50      1.0000 0.66281  0.53310  0.54157  Biso   1.000  C
  C51      1.0000 0.66281  0.96690  0.04157  Biso   1.000  C
  C52      1.0000 0.33719  0.46690  0.45843  Biso   1.000  C
  H45      1.0000 0.30060  0.97340  0.90510  Biso   1.000  H
  H46      1.0000 0.69940  0.47340  0.59490  Biso   1.000  H
  H47      1.0000 0.69940  0.02660  0.09490  Biso   1.000  H
  H48      1.0000 0.30060  0.52660  0.40510  Biso   1.000  H
