data_image0
_cell_length_a       16.622
_cell_length_b       16.622
_cell_length_c       17.733
_cell_angle_alpha    90
_cell_angle_beta     90
_cell_angle_gamma    90

_symmetry_space_group_name_H-M    "P 1"
_symmetry_int_tables_number       1

loop_
  _symmetry_equiv_pos_as_xyz
  'x, y, z'

loop_
  _atom_site_label
  _atom_site_occupancy
  _atom_site_fract_x
  _atom_site_fract_y
  _atom_site_fract_z
  _atom_site_thermal_displace_type
  _atom_site_B_iso_or_equiv
  _atom_site_type_symbol
  Cu1      1.0000 0.78783  0.76025  0.07883  Biso   1.000  Cu
  Cu2      1.0000 0.21217  0.23975  0.57883  Biso   1.000  Cu
  Cu3      1.0000 0.73975  0.28783  0.82883  Biso   1.000  Cu
  Cu4      1.0000 0.26025  0.71217  0.32883  Biso   1.000  Cu
  Cu5      1.0000 0.71217  0.26025  0.67117  Biso   1.000  Cu
  Cu6      1.0000 0.28783  0.73975  0.17117  Biso   1.000  Cu
  Cu7      1.0000 0.76025  0.78783  0.92117  Biso   1.000  Cu
  Cu8      1.0000 0.23975  0.21217  0.42117  Biso   1.000  Cu
  Cu9      1.0000 0.26132  0.23582  0.07551  Biso   1.000  Cu
  Cu10     1.0000 0.73868  0.76418  0.57551  Biso   1.000  Cu
  Cu11     1.0000 0.26418  0.76132  0.82551  Biso   1.000  Cu
  Cu12     1.0000 0.73582  0.23868  0.32551  Biso   1.000  Cu
  Cu13     1.0000 0.23868  0.73582  0.67449  Biso   1.000  Cu
  Cu14     1.0000 0.76132  0.26418  0.17449  Biso   1.000  Cu
  Cu15     1.0000 0.23582  0.26132  0.92449  Biso   1.000  Cu
  Cu16     1.0000 0.76418  0.73868  0.42449  Biso   1.000  Cu
  Br1      1.0000 0.86162  0.86162  0.00000  Biso   1.000  Br
  Br2      1.0000 0.13838  0.13838  0.50000  Biso   1.000  Br
  Br3      1.0000 0.63838  0.36162  0.75000  Biso   1.000  Br
  Br4      1.0000 0.36162  0.63838  0.25000  Biso   1.000  Br
  Br5      1.0000 0.68707  0.68707  0.00000  Biso   1.000  Br
  Br6      1.0000 0.31293  0.31293  0.50000  Biso   1.000  Br
  Br7      1.0000 0.81293  0.18707  0.75000  Biso   1.000  Br
  Br8      1.0000 0.18707  0.81293  0.25000  Biso   1.000  Br
  Br9      1.0000 0.15291  0.32926  0.02261  Biso   1.000  Br
  Br10     1.0000 0.84709  0.67074  0.52261  Biso   1.000  Br
  Br11     1.0000 0.17074  0.65291  0.77261  Biso   1.000  Br
  Br12     1.0000 0.82926  0.34709  0.27261  Biso   1.000  Br
  Br13     1.0000 0.34709  0.82926  0.72739  Biso   1.000  Br
  Br14     1.0000 0.65291  0.17074  0.22739  Biso   1.000  Br
  Br15     1.0000 0.32926  0.15291  0.97739  Biso   1.000  Br
  Br16     1.0000 0.67074  0.84709  0.47739  Biso   1.000  Br
  N1       1.0000 0.86810  0.68270  0.12400  Biso   1.000  N
  N2       1.0000 0.13190  0.31730  0.62400  Biso   1.000  N
  N3       1.0000 0.81730  0.36810  0.87400  Biso   1.000  N
  N4       1.0000 0.18270  0.63190  0.37400  Biso   1.000  N
  N5       1.0000 0.63190  0.18270  0.62600  Biso   1.000  N
  N6       1.0000 0.36810  0.81730  0.12600  Biso   1.000  N
  N7       1.0000 0.68270  0.86810  0.87600  Biso   1.000  N
  N8       1.0000 0.31730  0.13190  0.37600  Biso   1.000  N
  N9       1.0000 0.17590  0.28290  0.34720  Biso   1.000  N
  N10      1.0000 0.82410  0.71710  0.84720  Biso   1.000  N
  N11      1.0000 0.21710  0.67590  0.09720  Biso   1.000  N
  N12      1.0000 0.78290  0.32410  0.59720  Biso   1.000  N
  N13      1.0000 0.32410  0.78290  0.40280  Biso   1.000  N
  N14      1.0000 0.67590  0.21710  0.90280  Biso   1.000  N
  N15      1.0000 0.28290  0.17590  0.65280  Biso   1.000  N
  N16      1.0000 0.71710  0.82410  0.15280  Biso   1.000  N
  N17      1.0000 0.34870  0.30230  0.12470  Biso   1.000  N
  N18      1.0000 0.65130  0.69770  0.62470  Biso   1.000  N
  N19      1.0000 0.19770  0.84870  0.87470  Biso   1.000  N
  N20      1.0000 0.80230  0.15130  0.37470  Biso   1.000  N
  N21      1.0000 0.15130  0.80230  0.62530  Biso   1.000  N
  N22      1.0000 0.84870  0.19770  0.12530  Biso   1.000  N
  N23      1.0000 0.30230  0.34870  0.87530  Biso   1.000  N
  N24      1.0000 0.69770  0.65130  0.37530  Biso   1.000  N
  N25      1.0000 0.19710  0.16110  0.14290  Biso   1.000  N
  N26      1.0000 0.80290  0.83890  0.64290  Biso   1.000  N
  N27      1.0000 0.33890  0.69710  0.89290  Biso   1.000  N
  N28      1.0000 0.66110  0.30290  0.39290  Biso   1.000  N
  N29      1.0000 0.30290  0.66110  0.60710  Biso   1.000  N
  N30      1.0000 0.69710  0.33890  0.10710  Biso   1.000  N
  N31      1.0000 0.16110  0.19710  0.85710  Biso   1.000  N
  N32      1.0000 0.83890  0.80290  0.35710  Biso   1.000  N
  C1       1.0000 0.84310  0.61280  0.15020  Biso   1.000  C
  C2       1.0000 0.15690  0.38720  0.65020  Biso   1.000  C
  C3       1.0000 0.88720  0.34310  0.90020  Biso   1.000  C
  C4       1.0000 0.11280  0.65690  0.40020  Biso   1.000  C
  C5       1.0000 0.65690  0.11280  0.59980  Biso   1.000  C
  C6       1.0000 0.34310  0.88720  0.09980  Biso   1.000  C
  C7       1.0000 0.61280  0.84310  0.84980  Biso   1.000  C
  C8       1.0000 0.38720  0.15690  0.34980  Biso   1.000  C
  H1       1.0000 0.78980  0.59810  0.14190  Biso   1.000  H
  H2       1.0000 0.21020  0.40190  0.64190  Biso   1.000  H
  H3       1.0000 0.90190  0.28980  0.89190  Biso   1.000  H
  H4       1.0000 0.09810  0.71020  0.39190  Biso   1.000  H
  H5       1.0000 0.71020  0.09810  0.60810  Biso   1.000  H
  H6       1.0000 0.28980  0.90190  0.10810  Biso   1.000  H
  H7       1.0000 0.59810  0.78980  0.85810  Biso   1.000  H
  H8       1.0000 0.40190  0.21020  0.35810  Biso   1.000  H
  C9       1.0000 0.89220  0.56010  0.18930  Biso   1.000  C
  C10      1.0000 0.10780  0.43990  0.68930  Biso   1.000  C
  C11      1.0000 0.93990  0.39220  0.93930  Biso   1.000  C
  C12      1.0000 0.06010  0.60780  0.43930  Biso   1.000  C
  C13      1.0000 0.60780  0.06010  0.56070  Biso   1.000  C
  C14      1.0000 0.39220  0.93990  0.06070  Biso   1.000  C
  C15      1.0000 0.56010  0.89220  0.81070  Biso   1.000  C
  C16      1.0000 0.43990  0.10780  0.31070  Biso   1.000  C
  H9       1.0000 0.87140  0.51180  0.20700  Biso   1.000  H
  H10      1.0000 0.12860  0.48820  0.70700  Biso   1.000  H
  H11      1.0000 0.98820  0.37140  0.95700  Biso   1.000  H
  H12      1.0000 0.01180  0.62860  0.45700  Biso   1.000  H
  H13      1.0000 0.62860  0.01180  0.54300  Biso   1.000  H
  H14      1.0000 0.37140  0.98820  0.04300  Biso   1.000  H
  H15      1.0000 0.51180  0.87140  0.79300  Biso   1.000  H
  H16      1.0000 0.48820  0.12860  0.29300  Biso   1.000  H
  C17      1.0000 0.97050  0.57860  0.20200  Biso   1.000  C
  C18      1.0000 0.02950  0.42140  0.70200  Biso   1.000  C
  C19      1.0000 0.92140  0.47050  0.95200  Biso   1.000  C
  C20      1.0000 0.07860  0.52950  0.45200  Biso   1.000  C
  C21      1.0000 0.52950  0.07860  0.54800  Biso   1.000  C
  C22      1.0000 0.47050  0.92140  0.04800  Biso   1.000  C
  C23      1.0000 0.57860  0.97050  0.79800  Biso   1.000  C
  C24      1.0000 0.42140  0.02950  0.29800  Biso   1.000  C
  C25      1.0000 0.99780  0.65060  0.17430  Biso   1.000  C
  C26      1.0000 0.00220  0.34940  0.67430  Biso   1.000  C
  C27      1.0000 0.84940  0.49780  0.92430  Biso   1.000  C
  C28      1.0000 0.15060  0.50220  0.42430  Biso   1.000  C
  C29      1.0000 0.50220  0.15060  0.57570  Biso   1.000  C
  C30      1.0000 0.49780  0.84940  0.07570  Biso   1.000  C
  C31      1.0000 0.65060  0.99780  0.82570  Biso   1.000  C
  C32      1.0000 0.34940  0.00220  0.32570  Biso   1.000  C
  H17      1.0000 0.05120  0.66600  0.18050  Biso   1.000  H
  H18      1.0000 0.94880  0.33400  0.68050  Biso   1.000  H
  H19      1.0000 0.83400  0.55120  0.93050  Biso   1.000  H
  H20      1.0000 0.16600  0.44880  0.43050  Biso   1.000  H
  H21      1.0000 0.44880  0.16600  0.56950  Biso   1.000  H
  H22      1.0000 0.55120  0.83400  0.06950  Biso   1.000  H
  H23      1.0000 0.66600  0.05120  0.81950  Biso   1.000  H
  H24      1.0000 0.33400  0.94880  0.31950  Biso   1.000  H
  C33      1.0000 0.94350  0.70000  0.13670  Biso   1.000  C
  C34      1.0000 0.05650  0.30000  0.63670  Biso   1.000  C
  C35      1.0000 0.80000  0.44350  0.88670  Biso   1.000  C
  C36      1.0000 0.20000  0.55650  0.38670  Biso   1.000  C
  C37      1.0000 0.55650  0.20000  0.61330  Biso   1.000  C
  C38      1.0000 0.44350  0.80000  0.11330  Biso   1.000  C
  C39      1.0000 0.70000  0.94350  0.86330  Biso   1.000  C
  C40      1.0000 0.30000  0.05650  0.36330  Biso   1.000  C
  H25      1.0000 0.96230  0.74930  0.11930  Biso   1.000  H
  H26      1.0000 0.03770  0.25070  0.61930  Biso   1.000  H
  H27      1.0000 0.75070  0.46230  0.86930  Biso   1.000  H
  H28      1.0000 0.24930  0.53770  0.36930  Biso   1.000  H
  H29      1.0000 0.53770  0.24930  0.63070  Biso   1.000  H
  H30      1.0000 0.46230  0.75070  0.13070  Biso   1.000  H
  H31      1.0000 0.74930  0.96230  0.88070  Biso   1.000  H
  H32      1.0000 0.25070  0.03770  0.38070  Biso   1.000  H
  C41      1.0000 0.02630  0.52120  0.24450  Biso   1.000  C
  C42      1.0000 0.97370  0.47880  0.74450  Biso   1.000  C
  C43      1.0000 0.97880  0.52630  0.99450  Biso   1.000  C
  C44      1.0000 0.02120  0.47370  0.49450  Biso   1.000  C
  C45      1.0000 0.47370  0.02120  0.50550  Biso   1.000  C
  C46      1.0000 0.52630  0.97880  0.00550  Biso   1.000  C
  C47      1.0000 0.52120  0.02630  0.75550  Biso   1.000  C
  C48      1.0000 0.47880  0.97370  0.25550  Biso   1.000  C
  H33      1.0000 0.07760  0.54780  0.25250  Biso   1.000  H
  H34      1.0000 0.92240  0.45220  0.75250  Biso   1.000  H
  H35      1.0000 0.95220  0.57760  0.00250  Biso   1.000  H
  H36      1.0000 0.04780  0.42240  0.50250  Biso   1.000  H
  H37      1.0000 0.42240  0.04780  0.49750  Biso   1.000  H
  H38      1.0000 0.57760  0.95220  0.99750  Biso   1.000  H
  H39      1.0000 0.54780  0.07760  0.74750  Biso   1.000  H
  H40      1.0000 0.45220  0.92240  0.24750  Biso   1.000  H
  H41      1.0000 0.00320  0.51020  0.29370  Biso   1.000  H
  H42      1.0000 0.99680  0.48980  0.79370  Biso   1.000  H
  H43      1.0000 0.98980  0.50320  0.04370  Biso   1.000  H
  H44      1.0000 0.01020  0.49680  0.54370  Biso   1.000  H
  H45      1.0000 0.49680  0.01020  0.45630  Biso   1.000  H
  H46      1.0000 0.50320  0.98980  0.95630  Biso   1.000  H
  H47      1.0000 0.51020  0.00320  0.70630  Biso   1.000  H
  H48      1.0000 0.48980  0.99680  0.20630  Biso   1.000  H
  C49      1.0000 0.04110  0.44330  0.20540  Biso   1.000  C
  C50      1.0000 0.95890  0.55670  0.70540  Biso   1.000  C
  C51      1.0000 0.05670  0.54110  0.95540  Biso   1.000  C
  C52      1.0000 0.94330  0.45890  0.45540  Biso   1.000  C
  C53      1.0000 0.45890  0.94330  0.54460  Biso   1.000  C
  C54      1.0000 0.54110  0.05670  0.04460  Biso   1.000  C
  C55      1.0000 0.44330  0.04110  0.79460  Biso   1.000  C
  C56      1.0000 0.55670  0.95890  0.29460  Biso   1.000  C
  H49      1.0000 0.07000  0.45340  0.15890  Biso   1.000  H
  H50      1.0000 0.93000  0.54660  0.65890  Biso   1.000  H
  H51      1.0000 0.04660  0.57000  0.90890  Biso   1.000  H
  H52      1.0000 0.95340  0.43000  0.40890  Biso   1.000  H
  H53      1.0000 0.43000  0.95340  0.59110  Biso   1.000  H
  H54      1.0000 0.57000  0.04660  0.09110  Biso   1.000  H
  H55      1.0000 0.45340  0.07000  0.84110  Biso   1.000  H
  H56      1.0000 0.54660  0.93000  0.34110  Biso   1.000  H
  H57      1.0000 0.98990  0.41900  0.19250  Biso   1.000  H
  H58      1.0000 0.01010  0.58100  0.69250  Biso   1.000  H
  H59      1.0000 0.08100  0.48990  0.94250  Biso   1.000  H
  H60      1.0000 0.91900  0.51010  0.44250  Biso   1.000  H
  H61      1.0000 0.51010  0.91900  0.55750  Biso   1.000  H
  H62      1.0000 0.48990  0.08100  0.05750  Biso   1.000  H
  H63      1.0000 0.41900  0.98990  0.80750  Biso   1.000  H
  H64      1.0000 0.58100  0.01010  0.30750  Biso   1.000  H
  C57      1.0000 0.08900  0.38510  0.25350  Biso   1.000  C
  C58      1.0000 0.91100  0.61490  0.75350  Biso   1.000  C
  C59      1.0000 0.11490  0.58900  0.00350  Biso   1.000  C
  C60      1.0000 0.88510  0.41100  0.50350  Biso   1.000  C
  C61      1.0000 0.41100  0.88510  0.49650  Biso   1.000  C
  C62      1.0000 0.58900  0.11490  0.99650  Biso   1.000  C
  C63      1.0000 0.38510  0.08900  0.74650  Biso   1.000  C
  C64      1.0000 0.61490  0.91100  0.24650  Biso   1.000  C
  C65      1.0000 0.05210  0.33330  0.30220  Biso   1.000  C
  C66      1.0000 0.94790  0.66670  0.80220  Biso   1.000  C
  C67      1.0000 0.16670  0.55210  0.05220  Biso   1.000  C
  C68      1.0000 0.83330  0.44790  0.55220  Biso   1.000  C
  C69      1.0000 0.44790  0.83330  0.44780  Biso   1.000  C
  C70      1.0000 0.55210  0.16670  0.94780  Biso   1.000  C
  C71      1.0000 0.33330  0.05210  0.69780  Biso   1.000  C
  C72      1.0000 0.66670  0.94790  0.19780  Biso   1.000  C
  H65      1.0000 0.99620  0.33140  0.30470  Biso   1.000  H
  H66      1.0000 0.00380  0.66860  0.80470  Biso   1.000  H
  H67      1.0000 0.16860  0.49620  0.05470  Biso   1.000  H
  H68      1.0000 0.83140  0.50380  0.55470  Biso   1.000  H
  H69      1.0000 0.50380  0.83140  0.44530  Biso   1.000  H
  H70      1.0000 0.49620  0.16860  0.94530  Biso   1.000  H
  H71      1.0000 0.33140  0.99620  0.69530  Biso   1.000  H
  H72      1.0000 0.66860  0.00380  0.19530  Biso   1.000  H
  C73      1.0000 0.09780  0.28340  0.34790  Biso   1.000  C
  C74      1.0000 0.90220  0.71660  0.84790  Biso   1.000  C
  C75      1.0000 0.21660  0.59780  0.09790  Biso   1.000  C
  C76      1.0000 0.78340  0.40220  0.59790  Biso   1.000  C
  C77      1.0000 0.40220  0.78340  0.40210  Biso   1.000  C
  C78      1.0000 0.59780  0.21660  0.90210  Biso   1.000  C
  C79      1.0000 0.28340  0.09780  0.65210  Biso   1.000  C
  C80      1.0000 0.71660  0.90220  0.15210  Biso   1.000  C
  H73      1.0000 0.07120  0.24870  0.38050  Biso   1.000  H
  H74      1.0000 0.92880  0.75130  0.88050  Biso   1.000  H
  H75      1.0000 0.25130  0.57120  0.13050  Biso   1.000  H
  H76      1.0000 0.74870  0.42880  0.63050  Biso   1.000  H
  H77      1.0000 0.42880  0.74870  0.36950  Biso   1.000  H
  H78      1.0000 0.57120  0.25130  0.86950  Biso   1.000  H
  H79      1.0000 0.24870  0.07120  0.61950  Biso   1.000  H
  H80      1.0000 0.75130  0.92880  0.11950  Biso   1.000  H
  C81      1.0000 0.21210  0.33370  0.30000  Biso   1.000  C
  C82      1.0000 0.78790  0.66630  0.80000  Biso   1.000  C
  C83      1.0000 0.16630  0.71210  0.05000  Biso   1.000  C
  C84      1.0000 0.83370  0.28790  0.55000  Biso   1.000  C
  C85      1.0000 0.28790  0.83370  0.45000  Biso   1.000  C
  C86      1.0000 0.71210  0.16630  0.95000  Biso   1.000  C
  C87      1.0000 0.33370  0.21210  0.70000  Biso   1.000  C
  C88      1.0000 0.66630  0.78790  0.20000  Biso   1.000  C
  H81      1.0000 0.26800  0.33480  0.29840  Biso   1.000  H
  H82      1.0000 0.73200  0.66520  0.79840  Biso   1.000  H
  H83      1.0000 0.16520  0.76800  0.04840  Biso   1.000  H
  H84      1.0000 0.83480  0.23200  0.54840  Biso   1.000  H
  H85      1.0000 0.23200  0.83480  0.45160  Biso   1.000  H
  H86      1.0000 0.76800  0.16520  0.95160  Biso   1.000  H
  H87      1.0000 0.33480  0.26800  0.70160  Biso   1.000  H
  H88      1.0000 0.66520  0.73200  0.20160  Biso   1.000  H
  C89      1.0000 0.17030  0.38380  0.25410  Biso   1.000  C
  C90      1.0000 0.82970  0.61620  0.75410  Biso   1.000  C
  C91      1.0000 0.11620  0.67030  0.00410  Biso   1.000  C
  C92      1.0000 0.88380  0.32970  0.50410  Biso   1.000  C
  C93      1.0000 0.32970  0.88380  0.49590  Biso   1.000  C
  C94      1.0000 0.67030  0.11620  0.99590  Biso   1.000  C
  C95      1.0000 0.38380  0.17030  0.74590  Biso   1.000  C
  C96      1.0000 0.61620  0.82970  0.24590  Biso   1.000  C
  H89      1.0000 0.19840  0.41820  0.22210  Biso   1.000  H
  H90      1.0000 0.80160  0.58180  0.72210  Biso   1.000  H
  H91      1.0000 0.08180  0.69840  0.97210  Biso   1.000  H
  H92      1.0000 0.91820  0.30160  0.47210  Biso   1.000  H
  H93      1.0000 0.30160  0.91820  0.52790  Biso   1.000  H
  H94      1.0000 0.69840  0.08180  0.02790  Biso   1.000  H
  H95      1.0000 0.41820  0.19840  0.77790  Biso   1.000  H
  H96      1.0000 0.58180  0.80160  0.27790  Biso   1.000  H
  C97      1.0000 0.41010  0.26810  0.16190  Biso   1.000  C
  C98      1.0000 0.58990  0.73190  0.66190  Biso   1.000  C
  C99      1.0000 0.23190  0.91010  0.91190  Biso   1.000  C
  C100     1.0000 0.76810  0.08990  0.41190  Biso   1.000  C
  C101     1.0000 0.08990  0.76810  0.58810  Biso   1.000  C
  C102     1.0000 0.91010  0.23190  0.08810  Biso   1.000  C
  C103     1.0000 0.26810  0.41010  0.83810  Biso   1.000  C
  C104     1.0000 0.73190  0.58990  0.33810  Biso   1.000  C
  H97      1.0000 0.41860  0.21310  0.15640  Biso   1.000  H
  H98      1.0000 0.58140  0.78690  0.65640  Biso   1.000  H
  H99      1.0000 0.28690  0.91860  0.90640  Biso   1.000  H
  H100     1.0000 0.71310  0.08140  0.40640  Biso   1.000  H
  H101     1.0000 0.08140  0.71310  0.59360  Biso   1.000  H
  H102     1.0000 0.91860  0.28690  0.09360  Biso   1.000  H
  H103     1.0000 0.21310  0.41860  0.84360  Biso   1.000  H
  H104     1.0000 0.78690  0.58140  0.34360  Biso   1.000  H
  C105     1.0000 0.46020  0.31050  0.20720  Biso   1.000  C
  C106     1.0000 0.53980  0.68950  0.70720  Biso   1.000  C
  C107     1.0000 0.18950  0.96020  0.95720  Biso   1.000  C
  C108     1.0000 0.81050  0.03980  0.45720  Biso   1.000  C
  C109     1.0000 0.03980  0.81050  0.54280  Biso   1.000  C
  C110     1.0000 0.96020  0.18950  0.04280  Biso   1.000  C
  C111     1.0000 0.31050  0.46020  0.79280  Biso   1.000  C
  C112     1.0000 0.68950  0.53980  0.29280  Biso   1.000  C
  H105     1.0000 0.50180  0.28350  0.23160  Biso   1.000  H
  H106     1.0000 0.49820  0.71650  0.73160  Biso   1.000  H
  H107     1.0000 0.21650  0.00180  0.98160  Biso   1.000  H
  H108     1.0000 0.78350  0.99820  0.48160  Biso   1.000  H
  H109     1.0000 0.99820  0.78350  0.51840  Biso   1.000  H
  H110     1.0000 0.00180  0.21650  0.01840  Biso   1.000  H
  H111     1.0000 0.28350  0.50180  0.76840  Biso   1.000  H
  H112     1.0000 0.71650  0.49820  0.26840  Biso   1.000  H
  C113     1.0000 0.45210  0.39090  0.21830  Biso   1.000  C
  C114     1.0000 0.54790  0.60910  0.71830  Biso   1.000  C
  C115     1.0000 0.10910  0.95210  0.96830  Biso   1.000  C
  C116     1.0000 0.89090  0.04790  0.46830  Biso   1.000  C
  C117     1.0000 0.04790  0.89090  0.53170  Biso   1.000  C
  C118     1.0000 0.95210  0.10910  0.03170  Biso   1.000  C
  C119     1.0000 0.39090  0.45210  0.78170  Biso   1.000  C
  C120     1.0000 0.60910  0.54790  0.28170  Biso   1.000  C
  C121     1.0000 0.39070  0.42670  0.17840  Biso   1.000  C
  C122     1.0000 0.60930  0.57330  0.67840  Biso   1.000  C
  C123     1.0000 0.07330  0.89070  0.92840  Biso   1.000  C
  C124     1.0000 0.92670  0.10930  0.42840  Biso   1.000  C
  C125     1.0000 0.10930  0.92670  0.57160  Biso   1.000  C
  C126     1.0000 0.89070  0.07330  0.07160  Biso   1.000  C
  C127     1.0000 0.42670  0.39070  0.82160  Biso   1.000  C
  C128     1.0000 0.57330  0.60930  0.32160  Biso   1.000  C
  H113     1.0000 0.38290  0.48200  0.18170  Biso   1.000  H
  H114     1.0000 0.61710  0.51800  0.68170  Biso   1.000  H
  H115     1.0000 0.01800  0.88290  0.93170  Biso   1.000  H
  H116     1.0000 0.98200  0.11710  0.43170  Biso   1.000  H
  H117     1.0000 0.11710  0.98200  0.56830  Biso   1.000  H
  H118     1.0000 0.88290  0.01800  0.06830  Biso   1.000  H
  H119     1.0000 0.48200  0.38290  0.81830  Biso   1.000  H
  H120     1.0000 0.51800  0.61710  0.31830  Biso   1.000  H
  C129     1.0000 0.34150  0.38130  0.13400  Biso   1.000  C
  C130     1.0000 0.65850  0.61870  0.63400  Biso   1.000  C
  C131     1.0000 0.11870  0.84150  0.88400  Biso   1.000  C
  C132     1.0000 0.88130  0.15850  0.38400  Biso   1.000  C
  C133     1.0000 0.15850  0.88130  0.61600  Biso   1.000  C
  C134     1.0000 0.84150  0.11870  0.11600  Biso   1.000  C
  C135     1.0000 0.38130  0.34150  0.86600  Biso   1.000  C
  C136     1.0000 0.61870  0.65850  0.36600  Biso   1.000  C
  H121     1.0000 0.30010  0.40740  0.10850  Biso   1.000  H
  H122     1.0000 0.69990  0.59260  0.60850  Biso   1.000  H
  H123     1.0000 0.09260  0.80010  0.85850  Biso   1.000  H
  H124     1.0000 0.90740  0.19990  0.35850  Biso   1.000  H
  H125     1.0000 0.19990  0.90740  0.64150  Biso   1.000  H
  H126     1.0000 0.80010  0.09260  0.14150  Biso   1.000  H
  H127     1.0000 0.40740  0.30010  0.89150  Biso   1.000  H
  H128     1.0000 0.59260  0.69990  0.39150  Biso   1.000  H
  C137     1.0000 0.50550  0.43930  0.26920  Biso   1.000  C
  C138     1.0000 0.49450  0.56070  0.76920  Biso   1.000  C
  C139     1.0000 0.06070  0.00550  0.01920  Biso   1.000  C
  C140     1.0000 0.93930  0.99450  0.51920  Biso   1.000  C
  C141     1.0000 0.99450  0.93930  0.48080  Biso   1.000  C
  C142     1.0000 0.00550  0.06070  0.98080  Biso   1.000  C
  C143     1.0000 0.43930  0.50550  0.73080  Biso   1.000  C
  C144     1.0000 0.56070  0.49450  0.23080  Biso   1.000  C
  H129     1.0000 0.47190  0.47030  0.30320  Biso   1.000  H
  H130     1.0000 0.52810  0.52970  0.80320  Biso   1.000  H
  H131     1.0000 0.02970  0.97190  0.05320  Biso   1.000  H
  H132     1.0000 0.97030  0.02810  0.55320  Biso   1.000  H
  H133     1.0000 0.02810  0.97030  0.44680  Biso   1.000  H
  H134     1.0000 0.97190  0.02970  0.94680  Biso   1.000  H
  H135     1.0000 0.47030  0.47190  0.69680  Biso   1.000  H
  H136     1.0000 0.52970  0.52810  0.19680  Biso   1.000  H
  H137     1.0000 0.53700  0.40250  0.29980  Biso   1.000  H
  H138     1.0000 0.46300  0.59750  0.79980  Biso   1.000  H
  H139     1.0000 0.09750  0.03700  0.04980  Biso   1.000  H
  H140     1.0000 0.90250  0.96300  0.54980  Biso   1.000  H
  H141     1.0000 0.96300  0.90250  0.45020  Biso   1.000  H
  H142     1.0000 0.03700  0.09750  0.95020  Biso   1.000  H
  H143     1.0000 0.40250  0.53700  0.70020  Biso   1.000  H
  H144     1.0000 0.59750  0.46300  0.20020  Biso   1.000  H
  C145     1.0000 0.12560  0.18190  0.16830  Biso   1.000  C
  C146     1.0000 0.87440  0.81810  0.66830  Biso   1.000  C
  C147     1.0000 0.31810  0.62560  0.91830  Biso   1.000  C
  C148     1.0000 0.68190  0.37440  0.41830  Biso   1.000  C
  C149     1.0000 0.37440  0.68190  0.58170  Biso   1.000  C
  C150     1.0000 0.62560  0.31810  0.08170  Biso   1.000  C
  C151     1.0000 0.18190  0.12560  0.83170  Biso   1.000  C
  C152     1.0000 0.81810  0.87440  0.33170  Biso   1.000  C
  H145     1.0000 0.10660  0.23330  0.15770  Biso   1.000  H
  H146     1.0000 0.89340  0.76670  0.65770  Biso   1.000  H
  H147     1.0000 0.26670  0.60660  0.90770  Biso   1.000  H
  H148     1.0000 0.73330  0.39340  0.40770  Biso   1.000  H
  H149     1.0000 0.39340  0.73330  0.59230  Biso   1.000  H
  H150     1.0000 0.60660  0.26670  0.09230  Biso   1.000  H
  H151     1.0000 0.23330  0.10660  0.84230  Biso   1.000  H
  H152     1.0000 0.76670  0.89340  0.34230  Biso   1.000  H
  C153     1.0000 0.07670  0.12990  0.21070  Biso   1.000  C
  C154     1.0000 0.92330  0.87010  0.71070  Biso   1.000  C
  C155     1.0000 0.37010  0.57670  0.96070  Biso   1.000  C
  C156     1.0000 0.62990  0.42330  0.46070  Biso   1.000  C
  C157     1.0000 0.42330  0.62990  0.53930  Biso   1.000  C
  C158     1.0000 0.57670  0.37010  0.03930  Biso   1.000  C
  C159     1.0000 0.12990  0.07670  0.78930  Biso   1.000  C
  C160     1.0000 0.87010  0.92330  0.28930  Biso   1.000  C
  H153     1.0000 0.02520  0.14550  0.22500  Biso   1.000  H
  H154     1.0000 0.97480  0.85450  0.72500  Biso   1.000  H
  H155     1.0000 0.35450  0.52520  0.97500  Biso   1.000  H
  H156     1.0000 0.64550  0.47480  0.47500  Biso   1.000  H
  H157     1.0000 0.47480  0.64550  0.52500  Biso   1.000  H
  H158     1.0000 0.52520  0.35450  0.02500  Biso   1.000  H
  H159     1.0000 0.14550  0.02520  0.77500  Biso   1.000  H
  H160     1.0000 0.85450  0.97480  0.27500  Biso   1.000  H
  C161     1.0000 0.10570  0.05620  0.23070  Biso   1.000  C
  C162     1.0000 0.89430  0.94380  0.73070  Biso   1.000  C
  C163     1.0000 0.44380  0.60570  0.98070  Biso   1.000  C
  C164     1.0000 0.55620  0.39430  0.48070  Biso   1.000  C
  C165     1.0000 0.39430  0.55620  0.51930  Biso   1.000  C
  C166     1.0000 0.60570  0.44380  0.01930  Biso   1.000  C
  C167     1.0000 0.05620  0.10570  0.76930  Biso   1.000  C
  C168     1.0000 0.94380  0.89430  0.26930  Biso   1.000  C
  C169     1.0000 0.18020  0.03570  0.20490  Biso   1.000  C
  C170     1.0000 0.81980  0.96430  0.70490  Biso   1.000  C
  C171     1.0000 0.46430  0.68020  0.95490  Biso   1.000  C
  C172     1.0000 0.53570  0.31980  0.45490  Biso   1.000  C
  C173     1.0000 0.31980  0.53570  0.54510  Biso   1.000  C
  C174     1.0000 0.68020  0.46430  0.04510  Biso   1.000  C
  C175     1.0000 0.03570  0.18020  0.79510  Biso   1.000  C
  C176     1.0000 0.96430  0.81980  0.29510  Biso   1.000  C
  H161     1.0000 0.20150  0.98540  0.21620  Biso   1.000  H
  H162     1.0000 0.79850  0.01460  0.71620  Biso   1.000  H
  H163     1.0000 0.51460  0.70150  0.96620  Biso   1.000  H
  H164     1.0000 0.48540  0.29850  0.46620  Biso   1.000  H
  H165     1.0000 0.29850  0.48540  0.53380  Biso   1.000  H
  H166     1.0000 0.70150  0.51460  0.03380  Biso   1.000  H
  H167     1.0000 0.98540  0.20150  0.78380  Biso   1.000  H
  H168     1.0000 0.01460  0.79850  0.28380  Biso   1.000  H
  C177     1.0000 0.22360  0.08880  0.16270  Biso   1.000  C
  C178     1.0000 0.77640  0.91120  0.66270  Biso   1.000  C
  C179     1.0000 0.41120  0.72360  0.91270  Biso   1.000  C
  C180     1.0000 0.58880  0.27640  0.41270  Biso   1.000  C
  C181     1.0000 0.27640  0.58880  0.58730  Biso   1.000  C
  C182     1.0000 0.72360  0.41120  0.08730  Biso   1.000  C
  C183     1.0000 0.08880  0.22360  0.83730  Biso   1.000  C
  C184     1.0000 0.91120  0.77640  0.33730  Biso   1.000  C
  H169     1.0000 0.27470  0.07350  0.14690  Biso   1.000  H
  H170     1.0000 0.72530  0.92650  0.64690  Biso   1.000  H
  H171     1.0000 0.42650  0.77470  0.89690  Biso   1.000  H
  H172     1.0000 0.57350  0.22530  0.39690  Biso   1.000  H
  H173     1.0000 0.22530  0.57350  0.60310  Biso   1.000  H
  H174     1.0000 0.77470  0.42650  0.10310  Biso   1.000  H
  H175     1.0000 0.07350  0.27470  0.85310  Biso   1.000  H
  H176     1.0000 0.92650  0.72530  0.35310  Biso   1.000  H
  C185     1.0000 0.05310  0.99930  0.27490  Biso   1.000  C
  C186     1.0000 0.94690  0.00070  0.77490  Biso   1.000  C
  C187     1.0000 0.50070  0.55310  0.02490  Biso   1.000  C
  C188     1.0000 0.49930  0.44690  0.52490  Biso   1.000  C
  C189     1.0000 0.44690  0.49930  0.47510  Biso   1.000  C
  C190     1.0000 0.55310  0.50070  0.97510  Biso   1.000  C
  C191     1.0000 0.99930  0.05310  0.72510  Biso   1.000  C
  C192     1.0000 0.00070  0.94690  0.22510  Biso   1.000  C
  H177     1.0000 0.01900  0.03030  0.30850  Biso   1.000  H
  H178     1.0000 0.98100  0.96970  0.80850  Biso   1.000  H
  H179     1.0000 0.46970  0.51900  0.05850  Biso   1.000  H
  H180     1.0000 0.53030  0.48100  0.55850  Biso   1.000  H
  H181     1.0000 0.48100  0.53030  0.44150  Biso   1.000  H
  H182     1.0000 0.51900  0.46970  0.94150  Biso   1.000  H
  H183     1.0000 0.03030  0.01900  0.69150  Biso   1.000  H
  H184     1.0000 0.96970  0.98100  0.19150  Biso   1.000  H
  H185     1.0000 0.08700  0.96510  0.30580  Biso   1.000  H
  H186     1.0000 0.91300  0.03490  0.80580  Biso   1.000  H
  H187     1.0000 0.53490  0.58700  0.05580  Biso   1.000  H
  H188     1.0000 0.46510  0.41300  0.55580  Biso   1.000  H
  H189     1.0000 0.41300  0.46510  0.44420  Biso   1.000  H
  H190     1.0000 0.58700  0.53490  0.94420  Biso   1.000  H
  H191     1.0000 0.96510  0.08700  0.69420  Biso   1.000  H
  H192     1.0000 0.03490  0.91300  0.19420  Biso   1.000  H
