data_image0
_cell_length_a       13.543
_cell_length_b       6.9515
_cell_length_c       30.757
_cell_angle_alpha    90
_cell_angle_beta     101.314
_cell_angle_gamma    90

_symmetry_space_group_name_H-M    "P 1"
_symmetry_int_tables_number       1

loop_
  _symmetry_equiv_pos_as_xyz
  'x, y, z'

loop_
  _atom_site_label
  _atom_site_occupancy
  _atom_site_fract_x
  _atom_site_fract_y
  _atom_site_fract_z
  _atom_site_thermal_displace_type
  _atom_site_B_iso_or_equiv
  _atom_site_type_symbol
  Cu1      1.0000 0.87471  0.05370  0.14539  Biso   1.000  Cu
  Cu2      1.0000 0.62529  0.55370  0.35461  Biso   1.000  Cu
  Cu3      1.0000 0.12529  0.94630  0.85461  Biso   1.000  Cu
  Cu4      1.0000 0.37471  0.44630  0.64539  Biso   1.000  Cu
  Cu5      1.0000 0.87515  0.35720  0.10624  Biso   1.000  Cu
  Cu6      1.0000 0.62485  0.85720  0.39376  Biso   1.000  Cu
  Cu7      1.0000 0.12485  0.64280  0.89376  Biso   1.000  Cu
  Cu8      1.0000 0.37515  0.14280  0.60624  Biso   1.000  Cu
  Cu9      1.0000 0.23178  0.18986  0.16191  Biso   1.000  Cu
  Cu10     1.0000 0.26822  0.68986  0.33809  Biso   1.000  Cu
  Cu11     1.0000 0.76822  0.81014  0.83809  Biso   1.000  Cu
  Cu12     1.0000 0.73178  0.31014  0.66191  Biso   1.000  Cu
  Cu13     1.0000 0.01824  0.29184  0.58677  Biso   1.000  Cu
  Cu14     1.0000 0.48176  0.79184  0.91323  Biso   1.000  Cu
  Cu15     1.0000 0.98176  0.70816  0.41323  Biso   1.000  Cu
  Cu16     1.0000 0.51824  0.20816  0.08677  Biso   1.000  Cu
  N1       1.0000 0.88270  0.10390  0.21282  Biso   1.000  N
  N2       1.0000 0.61730  0.60390  0.28718  Biso   1.000  N
  N3       1.0000 0.11730  0.89610  0.78718  Biso   1.000  N
  N4       1.0000 0.38270  0.39610  0.71282  Biso   1.000  N
  N5       1.0000 0.99860  0.26000  0.51977  Biso   1.000  N
  N6       1.0000 0.50140  0.76000  0.98023  Biso   1.000  N
  N7       1.0000 0.00140  0.74000  0.48023  Biso   1.000  N
  N8       1.0000 0.49860  0.24000  0.01977  Biso   1.000  N
  N9       1.0000 0.86830  0.34010  0.03829  Biso   1.000  N
  N10      1.0000 0.63170  0.84010  0.46171  Biso   1.000  N
  N11      1.0000 0.13170  0.65990  0.96171  Biso   1.000  N
  N12      1.0000 0.36830  0.15990  0.53829  Biso   1.000  N
  N13      1.0000 0.75150  0.31020  0.72943  Biso   1.000  N
  N14      1.0000 0.74850  0.81020  0.77057  Biso   1.000  N
  N15      1.0000 0.24850  0.68980  0.27057  Biso   1.000  N
  N16      1.0000 0.25150  0.18980  0.22943  Biso   1.000  N
  N17      1.0000 0.08160  0.19500  0.13849  Biso   1.000  N
  N18      1.0000 0.41840  0.69500  0.36151  Biso   1.000  N
  N19      1.0000 0.91840  0.80500  0.86151  Biso   1.000  N
  N20      1.0000 0.58160  0.30500  0.63849  Biso   1.000  N
  N21      1.0000 0.66710  0.20760  0.10940  Biso   1.000  N
  N22      1.0000 0.83290  0.70760  0.39060  Biso   1.000  N
  N23      1.0000 0.33290  0.79240  0.89060  Biso   1.000  N
  N24      1.0000 0.16710  0.29240  0.60940  Biso   1.000  N
  N25      1.0000 0.39740  0.19220  0.11680  Biso   1.000  N
  N26      1.0000 0.10260  0.69220  0.38320  Biso   1.000  N
  N27      1.0000 0.60260  0.80780  0.88320  Biso   1.000  N
  N28      1.0000 0.89740  0.30780  0.61680  Biso   1.000  N
  N29      1.0000 0.87380  0.62580  0.12276  Biso   1.000  N
  N30      1.0000 0.62620  0.12580  0.37724  Biso   1.000  N
  N31      1.0000 0.12620  0.37420  0.87724  Biso   1.000  N
  N32      1.0000 0.37380  0.87420  0.62276  Biso   1.000  N
  C1       1.0000 0.88520  0.96080  0.24172  Biso   1.000  C
  C2       1.0000 0.61480  0.46080  0.25828  Biso   1.000  C
  C3       1.0000 0.11480  0.03920  0.75828  Biso   1.000  C
  C4       1.0000 0.38520  0.53920  0.74172  Biso   1.000  C
  H1       1.0000 0.88690  0.83550  0.23130  Biso   1.000  H
  H2       1.0000 0.61310  0.33550  0.26870  Biso   1.000  H
  H3       1.0000 0.11310  0.16450  0.76870  Biso   1.000  H
  H4       1.0000 0.38690  0.66450  0.73130  Biso   1.000  H
  C5       1.0000 0.88530  0.98730  0.28600  Biso   1.000  C
  C6       1.0000 0.61470  0.48730  0.21400  Biso   1.000  C
  C7       1.0000 0.11470  0.01270  0.71400  Biso   1.000  C
  C8       1.0000 0.38530  0.51270  0.78600  Biso   1.000  C
  H5       1.0000 0.89120  0.88230  0.30510  Biso   1.000  H
  H6       1.0000 0.60880  0.38230  0.19490  Biso   1.000  H
  H7       1.0000 0.10880  0.11770  0.69490  Biso   1.000  H
  H8       1.0000 0.39120  0.61770  0.80510  Biso   1.000  H
  C9       1.0000 0.87670  0.16880  0.30179  Biso   1.000  C
  C10      1.0000 0.62330  0.66880  0.19821  Biso   1.000  C
  C11      1.0000 0.12330  0.83120  0.69821  Biso   1.000  C
  C12      1.0000 0.37670  0.33120  0.80179  Biso   1.000  C
  C13      1.0000 0.87710  0.31580  0.27242  Biso   1.000  C
  C14      1.0000 0.62290  0.81580  0.22758  Biso   1.000  C
  C15      1.0000 0.12290  0.68420  0.72758  Biso   1.000  C
  C16      1.0000 0.37710  0.18420  0.77242  Biso   1.000  C
  H9       1.0000 0.87440  0.44240  0.28190  Biso   1.000  H
  H10      1.0000 0.62560  0.94240  0.21810  Biso   1.000  H
  H11      1.0000 0.12560  0.55760  0.71810  Biso   1.000  H
  H12      1.0000 0.37440  0.05760  0.78190  Biso   1.000  H
  C17      1.0000 0.88140  0.27820  0.22897  Biso   1.000  C
  C18      1.0000 0.61860  0.77820  0.27103  Biso   1.000  C
  C19      1.0000 0.11860  0.72180  0.77103  Biso   1.000  C
  C20      1.0000 0.38140  0.22180  0.72897  Biso   1.000  C
  H13      1.0000 0.88350  0.38180  0.21000  Biso   1.000  H
  H14      1.0000 0.61650  0.88180  0.29000  Biso   1.000  H
  H15      1.0000 0.11650  0.61820  0.79000  Biso   1.000  H
  H16      1.0000 0.38350  0.11820  0.71000  Biso   1.000  H
  C21      1.0000 0.87260  0.20680  0.34945  Biso   1.000  C
  C22      1.0000 0.62740  0.70680  0.15055  Biso   1.000  C
  C23      1.0000 0.12740  0.79320  0.65055  Biso   1.000  C
  C24      1.0000 0.37260  0.29320  0.84945  Biso   1.000  C
  H17      1.0000 0.83090  0.11030  0.35980  Biso   1.000  H
  H18      1.0000 0.66910  0.61030  0.14020  Biso   1.000  H
  H19      1.0000 0.16910  0.88970  0.64020  Biso   1.000  H
  H20      1.0000 0.33090  0.38970  0.85980  Biso   1.000  H
  H21      1.0000 0.84240  0.33170  0.35200  Biso   1.000  H
  H22      1.0000 0.65760  0.83170  0.14800  Biso   1.000  H
  H23      1.0000 0.15760  0.66830  0.64800  Biso   1.000  H
  H24      1.0000 0.34240  0.16830  0.85200  Biso   1.000  H
  C25      1.0000 0.97710  0.20220  0.37802  Biso   1.000  C
  C26      1.0000 0.52290  0.70220  0.12198  Biso   1.000  C
  C27      1.0000 0.02290  0.79780  0.62198  Biso   1.000  C
  C28      1.0000 0.47710  0.29780  0.87802  Biso   1.000  C
  H25      1.0000 0.01680  0.30420  0.36840  Biso   1.000  H
  H26      1.0000 0.48320  0.80420  0.13160  Biso   1.000  H
  H27      1.0000 0.98320  0.69580  0.63160  Biso   1.000  H
  H28      1.0000 0.51680  0.19580  0.86840  Biso   1.000  H
  H29      1.0000 0.00860  0.08090  0.37320  Biso   1.000  H
  H30      1.0000 0.49140  0.58090  0.12680  Biso   1.000  H
  H31      1.0000 0.99140  0.91910  0.62680  Biso   1.000  H
  H32      1.0000 0.50860  0.41910  0.87320  Biso   1.000  H
  C29      1.0000 0.98040  0.22530  0.42751  Biso   1.000  C
  C30      1.0000 0.51960  0.72530  0.07249  Biso   1.000  C
  C31      1.0000 0.01960  0.77470  0.57249  Biso   1.000  C
  C32      1.0000 0.48040  0.27470  0.92751  Biso   1.000  C
  C33      1.0000 0.07130  0.22620  0.45555  Biso   1.000  C
  C34      1.0000 0.42870  0.72620  0.04445  Biso   1.000  C
  C35      1.0000 0.92870  0.77380  0.54445  Biso   1.000  C
  C36      1.0000 0.57130  0.27380  0.95555  Biso   1.000  C
  H33      1.0000 0.12970  0.21490  0.44410  Biso   1.000  H
  H34      1.0000 0.37030  0.71490  0.05590  Biso   1.000  H
  H35      1.0000 0.87030  0.78510  0.55590  Biso   1.000  H
  H36      1.0000 0.62970  0.28510  0.94410  Biso   1.000  H
  C37      1.0000 0.07810  0.24350  0.50028  Biso   1.000  C
  C38      1.0000 0.42190  0.74350  0.99972  Biso   1.000  C
  C39      1.0000 0.92190  0.75650  0.49972  Biso   1.000  C
  C40      1.0000 0.57810  0.25650  0.00028  Biso   1.000  C
  H37      1.0000 0.14190  0.24380  0.51830  Biso   1.000  H
  H38      1.0000 0.35810  0.74380  0.98170  Biso   1.000  H
  H39      1.0000 0.85810  0.75620  0.48170  Biso   1.000  H
  H40      1.0000 0.64190  0.25620  0.01830  Biso   1.000  H
  C41      1.0000 0.89750  0.24300  0.44620  Biso   1.000  C
  C42      1.0000 0.60250  0.74300  0.05380  Biso   1.000  C
  C43      1.0000 0.10250  0.75700  0.55380  Biso   1.000  C
  C44      1.0000 0.39750  0.25700  0.94620  Biso   1.000  C
  H41      1.0000 0.83350  0.24310  0.42840  Biso   1.000  H
  H42      1.0000 0.66650  0.74310  0.07160  Biso   1.000  H
  H43      1.0000 0.16650  0.75690  0.57160  Biso   1.000  H
  H44      1.0000 0.33350  0.25690  0.92840  Biso   1.000  H
  C45      1.0000 0.90890  0.26120  0.49273  Biso   1.000  C
  C46      1.0000 0.59110  0.76120  0.00727  Biso   1.000  C
  C47      1.0000 0.09110  0.73880  0.50727  Biso   1.000  C
  C48      1.0000 0.40890  0.23880  0.99273  Biso   1.000  C
  H45      1.0000 0.85160  0.27460  0.50490  Biso   1.000  H
  H46      1.0000 0.64840  0.77460  0.99510  Biso   1.000  H
  H47      1.0000 0.14840  0.72540  0.49510  Biso   1.000  H
  H48      1.0000 0.35160  0.22540  0.00490  Biso   1.000  H
  C49      1.0000 0.87480  0.17420  0.01862  Biso   1.000  C
  C50      1.0000 0.62520  0.67420  0.48138  Biso   1.000  C
  C51      1.0000 0.12520  0.82580  0.98138  Biso   1.000  C
  C52      1.0000 0.37480  0.32580  0.51862  Biso   1.000  C
  H49      1.0000 0.87640  0.06250  0.03540  Biso   1.000  H
  H50      1.0000 0.62360  0.56250  0.46460  Biso   1.000  H
  H51      1.0000 0.12360  0.93750  0.96460  Biso   1.000  H
  H52      1.0000 0.37640  0.43750  0.53540  Biso   1.000  H
  C53      1.0000 0.87920  0.15730  0.97450  Biso   1.000  C
  C54      1.0000 0.62080  0.65730  0.52550  Biso   1.000  C
  C55      1.0000 0.12080  0.84270  0.02550  Biso   1.000  C
  C56      1.0000 0.37920  0.34270  0.47450  Biso   1.000  C
  H53      1.0000 0.88450  0.03620  0.96230  Biso   1.000  H
  H54      1.0000 0.61550  0.53620  0.53770  Biso   1.000  H
  H55      1.0000 0.11550  0.96380  0.03770  Biso   1.000  H
  H56      1.0000 0.38450  0.46380  0.46230  Biso   1.000  H
  C57      1.0000 0.87580  0.31720  0.94849  Biso   1.000  C
  C58      1.0000 0.62420  0.81720  0.55151  Biso   1.000  C
  C59      1.0000 0.12420  0.68280  0.05151  Biso   1.000  C
  C60      1.0000 0.37580  0.18280  0.44849  Biso   1.000  C
  C61      1.0000 0.86190  0.49030  0.96830  Biso   1.000  C
  C62      1.0000 0.63810  0.99030  0.53170  Biso   1.000  C
  C63      1.0000 0.13810  0.50970  0.03170  Biso   1.000  C
  C64      1.0000 0.36190  0.00970  0.46830  Biso   1.000  C
  H57      1.0000 0.85360  0.60290  0.95170  Biso   1.000  H
  H58      1.0000 0.64640  0.10290  0.54830  Biso   1.000  H
  H59      1.0000 0.14640  0.39710  0.04830  Biso   1.000  H
  H60      1.0000 0.35360  0.89710  0.45170  Biso   1.000  H
  C65      1.0000 0.86060  0.49500  0.01308  Biso   1.000  C
  C66      1.0000 0.63940  0.99500  0.48692  Biso   1.000  C
  C67      1.0000 0.13940  0.50500  0.98692  Biso   1.000  C
  C68      1.0000 0.36060  0.00500  0.51308  Biso   1.000  C
  H61      1.0000 0.85400  0.61370  0.02620  Biso   1.000  H
  H62      1.0000 0.64600  0.11370  0.47380  Biso   1.000  H
  H63      1.0000 0.14600  0.38630  0.97380  Biso   1.000  H
  H64      1.0000 0.35400  0.88630  0.52620  Biso   1.000  H
  C69      1.0000 0.88020  0.30360  0.89991  Biso   1.000  C
  C70      1.0000 0.61980  0.80360  0.60009  Biso   1.000  C
  C71      1.0000 0.11980  0.69640  0.10009  Biso   1.000  C
  C72      1.0000 0.38020  0.19640  0.39991  Biso   1.000  C
  H65      1.0000 0.91340  0.18490  0.89440  Biso   1.000  H
  H66      1.0000 0.58660  0.68490  0.60560  Biso   1.000  H
  H67      1.0000 0.08660  0.81510  0.10560  Biso   1.000  H
  H68      1.0000 0.41340  0.31510  0.39440  Biso   1.000  H
  H69      1.0000 0.91930  0.41010  0.89190  Biso   1.000  H
  H70      1.0000 0.58070  0.91010  0.60810  Biso   1.000  H
  H71      1.0000 0.08070  0.58990  0.10810  Biso   1.000  H
  H72      1.0000 0.41930  0.08990  0.39190  Biso   1.000  H
  C73      1.0000 0.77400  0.30850  0.87140  Biso   1.000  C
  C74      1.0000 0.72600  0.80850  0.62860  Biso   1.000  C
  C75      1.0000 0.22600  0.69150  0.12860  Biso   1.000  C
  C76      1.0000 0.27400  0.19150  0.37140  Biso   1.000  C
  H73      1.0000 0.73700  0.19760  0.87880  Biso   1.000  H
  H74      1.0000 0.76300  0.69760  0.62120  Biso   1.000  H
  H75      1.0000 0.26300  0.80240  0.12120  Biso   1.000  H
  H76      1.0000 0.23700  0.30240  0.37880  Biso   1.000  H
  H77      1.0000 0.73990  0.42270  0.87900  Biso   1.000  H
  H78      1.0000 0.76010  0.92270  0.62100  Biso   1.000  H
  H79      1.0000 0.26010  0.57730  0.12100  Biso   1.000  H
  H80      1.0000 0.23990  0.07730  0.37900  Biso   1.000  H
  C77      1.0000 0.77040  0.30860  0.82171  Biso   1.000  C
  C78      1.0000 0.72960  0.80860  0.67829  Biso   1.000  C
  C79      1.0000 0.22960  0.69140  0.17829  Biso   1.000  C
  C80      1.0000 0.27040  0.19140  0.32171  Biso   1.000  C
  C81      1.0000 0.67990  0.31230  0.79405  Biso   1.000  C
  C82      1.0000 0.82010  0.81230  0.70595  Biso   1.000  C
  C83      1.0000 0.32010  0.68770  0.20595  Biso   1.000  C
  C84      1.0000 0.17990  0.18770  0.29405  Biso   1.000  C
  H81      1.0000 0.62160  0.31450  0.80580  Biso   1.000  H
  H82      1.0000 0.87840  0.81450  0.69420  Biso   1.000  H
  H83      1.0000 0.37840  0.68550  0.19420  Biso   1.000  H
  H84      1.0000 0.12160  0.18550  0.30580  Biso   1.000  H
  C85      1.0000 0.67240  0.31300  0.74890  Biso   1.000  C
  C86      1.0000 0.82760  0.81300  0.75110  Biso   1.000  C
  C87      1.0000 0.32760  0.68700  0.25110  Biso   1.000  C
  C88      1.0000 0.17240  0.18700  0.24890  Biso   1.000  C
  H85      1.0000 0.60850  0.31550  0.73100  Biso   1.000  H
  H86      1.0000 0.89150  0.81550  0.76900  Biso   1.000  H
  H87      1.0000 0.39150  0.68450  0.26900  Biso   1.000  H
  H88      1.0000 0.10850  0.18450  0.23100  Biso   1.000  H
  C89      1.0000 0.85380  0.30990  0.80275  Biso   1.000  C
  C90      1.0000 0.64620  0.80990  0.69725  Biso   1.000  C
  C91      1.0000 0.14620  0.69010  0.19725  Biso   1.000  C
  C92      1.0000 0.35380  0.19010  0.30275  Biso   1.000  C
  H89      1.0000 0.91800  0.31090  0.82040  Biso   1.000  H
  H90      1.0000 0.58200  0.81090  0.67960  Biso   1.000  H
  H91      1.0000 0.08200  0.68910  0.17960  Biso   1.000  H
  H92      1.0000 0.41800  0.18910  0.32040  Biso   1.000  H
  C93      1.0000 0.84090  0.30990  0.75632  Biso   1.000  C
  C94      1.0000 0.65910  0.80990  0.74368  Biso   1.000  C
  C95      1.0000 0.15910  0.69010  0.24368  Biso   1.000  C
  C96      1.0000 0.34090  0.19010  0.25632  Biso   1.000  C
  H93      1.0000 0.89810  0.30960  0.74380  Biso   1.000  H
  H94      1.0000 0.60190  0.80960  0.75620  Biso   1.000  H
  H95      1.0000 0.10190  0.69040  0.25620  Biso   1.000  H
  H96      1.0000 0.39810  0.19040  0.24380  Biso   1.000  H
  C97      1.0000 0.00890  0.20420  0.13289  Biso   1.000  C
  C98      1.0000 0.49110  0.70420  0.36711  Biso   1.000  C
  C99      1.0000 0.99110  0.79580  0.86711  Biso   1.000  C
  C100     1.0000 0.50890  0.29580  0.63289  Biso   1.000  C
  C101     1.0000 0.74210  0.20540  0.11564  Biso   1.000  C
  C102     1.0000 0.75790  0.70540  0.38436  Biso   1.000  C
  C103     1.0000 0.25790  0.79460  0.88436  Biso   1.000  C
  C104     1.0000 0.24210  0.29460  0.61564  Biso   1.000  C
  C105     1.0000 0.34750  0.18980  0.13290  Biso   1.000  C
  C106     1.0000 0.15250  0.68980  0.36710  Biso   1.000  C
  C107     1.0000 0.65250  0.81020  0.86710  Biso   1.000  C
  C108     1.0000 0.84750  0.31020  0.63290  Biso   1.000  C
  C109     1.0000 0.87610  0.78480  0.13180  Biso   1.000  C
  C110     1.0000 0.62390  0.28480  0.36820  Biso   1.000  C
  C111     1.0000 0.12390  0.21520  0.86820  Biso   1.000  C
  C112     1.0000 0.37610  0.71520  0.63180  Biso   1.000  C
