data_image0
_cell_length_a       15.7611
_cell_length_b       13.149
_cell_length_c       8.4107
_cell_angle_alpha    90
_cell_angle_beta     94.423
_cell_angle_gamma    90

_symmetry_space_group_name_H-M    "P 1"
_symmetry_int_tables_number       1

loop_
  _symmetry_equiv_pos_as_xyz
  'x, y, z'

loop_
  _atom_site_label
  _atom_site_occupancy
  _atom_site_fract_x
  _atom_site_fract_y
  _atom_site_fract_z
  _atom_site_thermal_displace_type
  _atom_site_B_iso_or_equiv
  _atom_site_type_symbol
  I1       1.0000 0.39958  0.50000  0.18195  Biso   1.000  I
  I2       1.0000 0.89958  0.00000  0.18195  Biso   1.000  I
  I3       1.0000 0.60042  0.50000  0.81805  Biso   1.000  I
  I4       1.0000 0.10042  0.00000  0.81805  Biso   1.000  I
  Cu1      1.0000 0.43651  0.50000  0.88367  Biso   1.000  Cu
  Cu2      1.0000 0.93651  0.00000  0.88367  Biso   1.000  Cu
  Cu3      1.0000 0.56349  0.50000  0.11633  Biso   1.000  Cu
  Cu4      1.0000 0.06349  0.00000  0.11633  Biso   1.000  Cu
  N1       1.0000 0.38650  0.37080  0.77870  Biso   1.000  N
  N2       1.0000 0.88650  0.87080  0.77870  Biso   1.000  N
  N3       1.0000 0.61350  0.37080  0.22130  Biso   1.000  N
  N4       1.0000 0.11350  0.87080  0.22130  Biso   1.000  N
  N5       1.0000 0.61350  0.62920  0.22130  Biso   1.000  N
  N6       1.0000 0.11350  0.12920  0.22130  Biso   1.000  N
  N7       1.0000 0.38650  0.62920  0.77870  Biso   1.000  N
  N8       1.0000 0.88650  0.12920  0.77870  Biso   1.000  N
  C1       1.0000 0.42160  0.32980  0.65390  Biso   1.000  C
  C2       1.0000 0.92160  0.82980  0.65390  Biso   1.000  C
  C3       1.0000 0.57840  0.32980  0.34610  Biso   1.000  C
  C4       1.0000 0.07840  0.82980  0.34610  Biso   1.000  C
  C5       1.0000 0.57840  0.67020  0.34610  Biso   1.000  C
  C6       1.0000 0.07840  0.17020  0.34610  Biso   1.000  C
  C7       1.0000 0.42160  0.67020  0.65390  Biso   1.000  C
  C8       1.0000 0.92160  0.17020  0.65390  Biso   1.000  C
  H1       1.0000 0.46960  0.36260  0.61520  Biso   1.000  H
  H2       1.0000 0.96960  0.86260  0.61520  Biso   1.000  H
  H3       1.0000 0.53040  0.36260  0.38480  Biso   1.000  H
  H4       1.0000 0.03040  0.86260  0.38480  Biso   1.000  H
  H5       1.0000 0.53040  0.63740  0.38480  Biso   1.000  H
  H6       1.0000 0.03040  0.13740  0.38480  Biso   1.000  H
  H7       1.0000 0.46960  0.63740  0.61520  Biso   1.000  H
  H8       1.0000 0.96960  0.13740  0.61520  Biso   1.000  H
  C9       1.0000 0.39160  0.24220  0.57820  Biso   1.000  C
  C10      1.0000 0.89160  0.74220  0.57820  Biso   1.000  C
  C11      1.0000 0.60840  0.24220  0.42180  Biso   1.000  C
  C12      1.0000 0.10840  0.74220  0.42180  Biso   1.000  C
  C13      1.0000 0.60840  0.75780  0.42180  Biso   1.000  C
  C14      1.0000 0.10840  0.25780  0.42180  Biso   1.000  C
  C15      1.0000 0.39160  0.75780  0.57820  Biso   1.000  C
  C16      1.0000 0.89160  0.25780  0.57820  Biso   1.000  C
  H9       1.0000 0.41860  0.21660  0.48940  Biso   1.000  H
  H10      1.0000 0.91860  0.71660  0.48940  Biso   1.000  H
  H11      1.0000 0.58140  0.21660  0.51060  Biso   1.000  H
  H12      1.0000 0.08140  0.71660  0.51060  Biso   1.000  H
  H13      1.0000 0.58140  0.78340  0.51060  Biso   1.000  H
  H14      1.0000 0.08140  0.28340  0.51060  Biso   1.000  H
  H15      1.0000 0.41860  0.78340  0.48940  Biso   1.000  H
  H16      1.0000 0.91860  0.28340  0.48940  Biso   1.000  H
  C17      1.0000 0.32220  0.19170  0.63180  Biso   1.000  C
  C18      1.0000 0.82220  0.69170  0.63180  Biso   1.000  C
  C19      1.0000 0.67780  0.19170  0.36820  Biso   1.000  C
  C20      1.0000 0.17780  0.69170  0.36820  Biso   1.000  C
  C21      1.0000 0.67780  0.80830  0.36820  Biso   1.000  C
  C22      1.0000 0.17780  0.30830  0.36820  Biso   1.000  C
  C23      1.0000 0.32220  0.80830  0.63180  Biso   1.000  C
  C24      1.0000 0.82220  0.30830  0.63180  Biso   1.000  C
  C25      1.0000 0.28530  0.23490  0.75970  Biso   1.000  C
  C26      1.0000 0.78530  0.73490  0.75970  Biso   1.000  C
  C27      1.0000 0.71470  0.23490  0.24030  Biso   1.000  C
  C28      1.0000 0.21470  0.73490  0.24030  Biso   1.000  C
  C29      1.0000 0.71470  0.76510  0.24030  Biso   1.000  C
  C30      1.0000 0.21470  0.26510  0.24030  Biso   1.000  C
  C31      1.0000 0.28530  0.76510  0.75970  Biso   1.000  C
  C32      1.0000 0.78530  0.26510  0.75970  Biso   1.000  C
  H17      1.0000 0.23710  0.20360  0.80010  Biso   1.000  H
  H18      1.0000 0.73710  0.70360  0.80010  Biso   1.000  H
  H19      1.0000 0.76290  0.20360  0.19990  Biso   1.000  H
  H20      1.0000 0.26290  0.70360  0.19990  Biso   1.000  H
  H21      1.0000 0.76290  0.79640  0.19990  Biso   1.000  H
  H22      1.0000 0.26290  0.29640  0.19990  Biso   1.000  H
  H23      1.0000 0.23710  0.79640  0.80010  Biso   1.000  H
  H24      1.0000 0.73710  0.29640  0.80010  Biso   1.000  H
  C33      1.0000 0.31800  0.32290  0.82880  Biso   1.000  C
  C34      1.0000 0.81800  0.82290  0.82880  Biso   1.000  C
  C35      1.0000 0.68200  0.32290  0.17120  Biso   1.000  C
  C36      1.0000 0.18200  0.82290  0.17120  Biso   1.000  C
  C37      1.0000 0.68200  0.67710  0.17120  Biso   1.000  C
  C38      1.0000 0.18200  0.17710  0.17120  Biso   1.000  C
  C39      1.0000 0.31800  0.67710  0.82880  Biso   1.000  C
  C40      1.0000 0.81800  0.17710  0.82880  Biso   1.000  C
  H25      1.0000 0.29090  0.35100  0.91590  Biso   1.000  H
  H26      1.0000 0.79090  0.85100  0.91590  Biso   1.000  H
  H27      1.0000 0.70910  0.35100  0.08410  Biso   1.000  H
  H28      1.0000 0.20910  0.85100  0.08410  Biso   1.000  H
  H29      1.0000 0.70910  0.64900  0.08410  Biso   1.000  H
  H30      1.0000 0.20910  0.14900  0.08410  Biso   1.000  H
  H31      1.0000 0.29090  0.64900  0.91590  Biso   1.000  H
  H32      1.0000 0.79090  0.14900  0.91590  Biso   1.000  H
  C41      1.0000 0.28950  0.09490  0.55370  Biso   1.000  C
  C42      1.0000 0.78950  0.59490  0.55370  Biso   1.000  C
  C43      1.0000 0.71050  0.09490  0.44630  Biso   1.000  C
  C44      1.0000 0.21050  0.59490  0.44630  Biso   1.000  C
  C45      1.0000 0.71050  0.90510  0.44630  Biso   1.000  C
  C46      1.0000 0.21050  0.40510  0.44630  Biso   1.000  C
  C47      1.0000 0.28950  0.90510  0.55370  Biso   1.000  C
  C48      1.0000 0.78950  0.40510  0.55370  Biso   1.000  C
  H33      1.0000 0.30330  0.09470  0.44090  Biso   1.000  H
  H34      1.0000 0.80330  0.59470  0.44090  Biso   1.000  H
  H35      1.0000 0.69670  0.09470  0.55910  Biso   1.000  H
  H36      1.0000 0.19670  0.59470  0.55910  Biso   1.000  H
  H37      1.0000 0.69670  0.90530  0.55910  Biso   1.000  H
  H38      1.0000 0.19670  0.40530  0.55910  Biso   1.000  H
  H39      1.0000 0.30330  0.90530  0.44090  Biso   1.000  H
  H40      1.0000 0.80330  0.40530  0.44090  Biso   1.000  H
  H41      1.0000 0.22680  0.09280  0.55520  Biso   1.000  H
  H42      1.0000 0.72680  0.59280  0.55520  Biso   1.000  H
  H43      1.0000 0.77320  0.09280  0.44480  Biso   1.000  H
  H44      1.0000 0.27320  0.59280  0.44480  Biso   1.000  H
  H45      1.0000 0.77320  0.90720  0.44480  Biso   1.000  H
  H46      1.0000 0.27320  0.40720  0.44480  Biso   1.000  H
  H47      1.0000 0.22680  0.90720  0.55520  Biso   1.000  H
  H48      1.0000 0.72680  0.40720  0.55520  Biso   1.000  H
  C49      1.0000 0.32740  0.00000  0.63650  Biso   1.000  C
  C50      1.0000 0.82740  0.50000  0.63650  Biso   1.000  C
  C51      1.0000 0.67260  0.00000  0.36350  Biso   1.000  C
  C52      1.0000 0.17260  0.50000  0.36350  Biso   1.000  C
  H49      1.0000 0.39000  0.00000  0.63200  Biso   1.000  H
  H50      1.0000 0.89000  0.50000  0.63200  Biso   1.000  H
  H51      1.0000 0.61000  0.00000  0.36800  Biso   1.000  H
  H52      1.0000 0.11000  0.50000  0.36800  Biso   1.000  H
  H53      1.0000 0.31480  0.00000  0.75000  Biso   1.000  H
  H54      1.0000 0.81480  0.50000  0.75000  Biso   1.000  H
  H55      1.0000 0.68520  0.00000  0.25000  Biso   1.000  H
  H56      1.0000 0.18520  0.50000  0.25000  Biso   1.000  H
  C53      1.0000 0.46710  0.00000  0.05190  Biso   1.000  C
  C54      1.0000 0.96710  0.50000  0.05190  Biso   1.000  C
  C55      1.0000 0.53290  0.00000  0.94810  Biso   1.000  C
  C56      1.0000 0.03290  0.50000  0.94810  Biso   1.000  C
  C57      1.0000 0.42750  0.09070  0.11280  Biso   1.000  C
  C58      1.0000 0.92750  0.59070  0.11280  Biso   1.000  C
  C59      1.0000 0.57250  0.09070  0.88720  Biso   1.000  C
  C60      1.0000 0.07250  0.59070  0.88720  Biso   1.000  C
  C61      1.0000 0.57250  0.90930  0.88720  Biso   1.000  C
  C62      1.0000 0.07250  0.40930  0.88720  Biso   1.000  C
  C63      1.0000 0.42750  0.90930  0.11280  Biso   1.000  C
  C64      1.0000 0.92750  0.40930  0.11280  Biso   1.000  C
  H57      1.0000 0.38240  0.09430  0.18120  Biso   1.000  H
  H58      1.0000 0.88240  0.59430  0.18120  Biso   1.000  H
  H59      1.0000 0.61760  0.09430  0.81880  Biso   1.000  H
  H60      1.0000 0.11760  0.59430  0.81880  Biso   1.000  H
  H61      1.0000 0.61760  0.90570  0.81880  Biso   1.000  H
  H62      1.0000 0.11760  0.40570  0.81880  Biso   1.000  H
  H63      1.0000 0.38240  0.90570  0.18120  Biso   1.000  H
  H64      1.0000 0.88240  0.40570  0.18120  Biso   1.000  H
  C65      1.0000 0.47370  0.17590  0.04380  Biso   1.000  C
  C66      1.0000 0.97370  0.67590  0.04380  Biso   1.000  C
  C67      1.0000 0.52630  0.17590  0.95620  Biso   1.000  C
  C68      1.0000 0.02630  0.67590  0.95620  Biso   1.000  C
  C69      1.0000 0.52630  0.82410  0.95620  Biso   1.000  C
  C70      1.0000 0.02630  0.32410  0.95620  Biso   1.000  C
  C71      1.0000 0.47370  0.82410  0.04380  Biso   1.000  C
  C72      1.0000 0.97370  0.32410  0.04380  Biso   1.000  C
  H65      1.0000 0.45720  0.24150  0.07730  Biso   1.000  H
  H66      1.0000 0.95720  0.74150  0.07730  Biso   1.000  H
  H67      1.0000 0.54280  0.24150  0.92270  Biso   1.000  H
  H68      1.0000 0.04280  0.74150  0.92270  Biso   1.000  H
  H69      1.0000 0.54280  0.75850  0.92270  Biso   1.000  H
  H70      1.0000 0.04280  0.25850  0.92270  Biso   1.000  H
  H71      1.0000 0.45720  0.75850  0.07730  Biso   1.000  H
  H72      1.0000 0.95720  0.25850  0.07730  Biso   1.000  H
