data_image0
_cell_length_a       12.2098
_cell_length_b       12.2098
_cell_length_c       35.803
_cell_angle_alpha    90
_cell_angle_beta     90
_cell_angle_gamma    90

_symmetry_space_group_name_H-M    "P 1"
_symmetry_int_tables_number       1

loop_
  _symmetry_equiv_pos_as_xyz
  'x, y, z'

loop_
  _atom_site_label
  _atom_site_occupancy
  _atom_site_fract_x
  _atom_site_fract_y
  _atom_site_fract_z
  _atom_site_thermal_displace_type
  _atom_site_B_iso_or_equiv
  _atom_site_type_symbol
  Cu1      1.0000 0.41612  0.90360  0.97433  Biso   1.000  Cu
  Cu2      1.0000 0.58388  0.09640  0.47433  Biso   1.000  Cu
  Cu3      1.0000 0.59640  0.91612  0.72433  Biso   1.000  Cu
  Cu4      1.0000 0.40360  0.08388  0.22433  Biso   1.000  Cu
  Cu5      1.0000 0.08388  0.40360  0.77567  Biso   1.000  Cu
  Cu6      1.0000 0.91612  0.59640  0.27567  Biso   1.000  Cu
  Cu7      1.0000 0.90360  0.41612  0.02567  Biso   1.000  Cu
  Cu8      1.0000 0.09640  0.58388  0.52567  Biso   1.000  Cu
  Cu9      1.0000 0.48193  0.92674  0.90359  Biso   1.000  Cu
  Cu10     1.0000 0.51807  0.07326  0.40359  Biso   1.000  Cu
  Cu11     1.0000 0.57326  0.98193  0.65359  Biso   1.000  Cu
  Cu12     1.0000 0.42674  0.01807  0.15359  Biso   1.000  Cu
  Cu13     1.0000 0.01807  0.42674  0.84641  Biso   1.000  Cu
  Cu14     1.0000 0.98193  0.57326  0.34641  Biso   1.000  Cu
  Cu15     1.0000 0.92674  0.48193  0.09641  Biso   1.000  Cu
  Cu16     1.0000 0.07326  0.51807  0.59641  Biso   1.000  Cu
  Br1      1.0000 0.28285  0.93308  0.92098  Biso   1.000  Br
  Br2      1.0000 0.71715  0.06692  0.42098  Biso   1.000  Br
  Br3      1.0000 0.56692  0.78285  0.67098  Biso   1.000  Br
  Br4      1.0000 0.43308  0.21715  0.17098  Biso   1.000  Br
  Br5      1.0000 0.21715  0.43308  0.82902  Biso   1.000  Br
  Br6      1.0000 0.78285  0.56692  0.32902  Biso   1.000  Br
  Br7      1.0000 0.93308  0.28285  0.07902  Biso   1.000  Br
  Br8      1.0000 0.06692  0.71715  0.57902  Biso   1.000  Br
  Br9      1.0000 0.60917  0.92891  0.95899  Biso   1.000  Br
  Br10     1.0000 0.39083  0.07109  0.45899  Biso   1.000  Br
  Br11     1.0000 0.57109  0.10917  0.70899  Biso   1.000  Br
  Br12     1.0000 0.42891  0.89083  0.20899  Biso   1.000  Br
  Br13     1.0000 0.89083  0.42891  0.79101  Biso   1.000  Br
  Br14     1.0000 0.10917  0.57109  0.29101  Biso   1.000  Br
  Br15     1.0000 0.92891  0.60917  0.04101  Biso   1.000  Br
  Br16     1.0000 0.07109  0.39083  0.54101  Biso   1.000  Br
  N1       1.0000 0.36800  0.01670  0.01325  Biso   1.000  N
  N2       1.0000 0.63200  0.98330  0.51325  Biso   1.000  N
  N3       1.0000 0.48330  0.86800  0.76325  Biso   1.000  N
  N4       1.0000 0.51670  0.13200  0.26325  Biso   1.000  N
  N5       1.0000 0.13200  0.51670  0.73675  Biso   1.000  N
  N6       1.0000 0.86800  0.48330  0.23675  Biso   1.000  N
  N7       1.0000 0.01670  0.36800  0.98675  Biso   1.000  N
  N8       1.0000 0.98330  0.63200  0.48675  Biso   1.000  N
  N9       1.0000 0.38000  0.75500  0.99550  Biso   1.000  N
  N10      1.0000 0.62000  0.24500  0.49550  Biso   1.000  N
  N11      1.0000 0.74500  0.88000  0.74550  Biso   1.000  N
  N12      1.0000 0.25500  0.12000  0.24550  Biso   1.000  N
  N13      1.0000 0.12000  0.25500  0.75450  Biso   1.000  N
  N14      1.0000 0.88000  0.74500  0.25450  Biso   1.000  N
  N15      1.0000 0.75500  0.38000  0.00450  Biso   1.000  N
  N16      1.0000 0.24500  0.62000  0.50450  Biso   1.000  N
  N17      1.0000 0.51490  0.77790  0.88053  Biso   1.000  N
  N18      1.0000 0.48510  0.22210  0.38053  Biso   1.000  N
  N19      1.0000 0.72210  0.01490  0.63053  Biso   1.000  N
  N20      1.0000 0.27790  0.98510  0.13053  Biso   1.000  N
  N21      1.0000 0.98510  0.27790  0.86947  Biso   1.000  N
  N22      1.0000 0.01490  0.72210  0.36947  Biso   1.000  N
  N23      1.0000 0.77790  0.51490  0.11947  Biso   1.000  N
  N24      1.0000 0.22210  0.48510  0.61947  Biso   1.000  N
  N25      1.0000 0.51370  0.05390  0.86953  Biso   1.000  N
  N26      1.0000 0.48630  0.94610  0.36953  Biso   1.000  N
  N27      1.0000 0.44610  0.01370  0.61953  Biso   1.000  N
  N28      1.0000 0.55390  0.98630  0.11953  Biso   1.000  N
  N29      1.0000 0.98630  0.55390  0.88047  Biso   1.000  N
  N30      1.0000 0.01370  0.44610  0.38047  Biso   1.000  N
  N31      1.0000 0.05390  0.51370  0.13047  Biso   1.000  N
  N32      1.0000 0.94610  0.48630  0.63047  Biso   1.000  N
  C1       1.0000 0.43960  0.08020  0.03110  Biso   1.000  C
  C2       1.0000 0.56040  0.91980  0.53110  Biso   1.000  C
  C3       1.0000 0.41980  0.93960  0.78110  Biso   1.000  C
  C4       1.0000 0.58020  0.06040  0.28110  Biso   1.000  C
  C5       1.0000 0.06040  0.58020  0.71890  Biso   1.000  C
  C6       1.0000 0.93960  0.41980  0.21890  Biso   1.000  C
  C7       1.0000 0.08020  0.43960  0.96890  Biso   1.000  C
  C8       1.0000 0.91980  0.56040  0.46890  Biso   1.000  C
  H1       1.0000 0.51550  0.06500  0.02850  Biso   1.000  H
  H2       1.0000 0.48450  0.93500  0.52850  Biso   1.000  H
  H3       1.0000 0.43500  0.01550  0.77850  Biso   1.000  H
  H4       1.0000 0.56500  0.98450  0.27850  Biso   1.000  H
  H5       1.0000 0.98450  0.56500  0.72150  Biso   1.000  H
  H6       1.0000 0.01550  0.43500  0.22150  Biso   1.000  H
  H7       1.0000 0.06500  0.51550  0.97150  Biso   1.000  H
  H8       1.0000 0.93500  0.48450  0.47150  Biso   1.000  H
  C9       1.0000 0.40890  0.16490  0.05280  Biso   1.000  C
  C10      1.0000 0.59110  0.83510  0.55280  Biso   1.000  C
  C11      1.0000 0.33510  0.90890  0.80280  Biso   1.000  C
  C12      1.0000 0.66490  0.09110  0.30280  Biso   1.000  C
  C13      1.0000 0.09110  0.66490  0.69720  Biso   1.000  C
  C14      1.0000 0.90890  0.33510  0.19720  Biso   1.000  C
  C15      1.0000 0.16490  0.40890  0.94720  Biso   1.000  C
  C16      1.0000 0.83510  0.59110  0.44720  Biso   1.000  C
  H9       1.0000 0.46390  0.20660  0.06500  Biso   1.000  H
  H10      1.0000 0.53610  0.79340  0.56500  Biso   1.000  H
  H11      1.0000 0.29340  0.96390  0.81500  Biso   1.000  H
  H12      1.0000 0.70660  0.03610  0.31500  Biso   1.000  H
  H13      1.0000 0.03610  0.70660  0.68500  Biso   1.000  H
  H14      1.0000 0.96390  0.29340  0.18500  Biso   1.000  H
  H15      1.0000 0.20660  0.46390  0.93500  Biso   1.000  H
  H16      1.0000 0.79340  0.53610  0.43500  Biso   1.000  H
  C17      1.0000 0.30120  0.19340  0.05790  Biso   1.000  C
  C18      1.0000 0.69880  0.80660  0.55790  Biso   1.000  C
  C19      1.0000 0.30660  0.80120  0.80790  Biso   1.000  C
  C20      1.0000 0.69340  0.19880  0.30790  Biso   1.000  C
  C21      1.0000 0.19880  0.69340  0.69210  Biso   1.000  C
  C22      1.0000 0.80120  0.30660  0.19210  Biso   1.000  C
  C23      1.0000 0.19340  0.30120  0.94210  Biso   1.000  C
  C24      1.0000 0.80660  0.69880  0.44210  Biso   1.000  C
  C25      1.0000 0.22820  0.12300  0.04050  Biso   1.000  C
  C26      1.0000 0.77180  0.87700  0.54050  Biso   1.000  C
  C27      1.0000 0.37700  0.72820  0.79050  Biso   1.000  C
  C28      1.0000 0.62300  0.27180  0.29050  Biso   1.000  C
  C29      1.0000 0.27180  0.62300  0.70950  Biso   1.000  C
  C30      1.0000 0.72820  0.37700  0.20950  Biso   1.000  C
  C31      1.0000 0.12300  0.22820  0.95950  Biso   1.000  C
  C32      1.0000 0.87700  0.77180  0.45950  Biso   1.000  C
  H17      1.0000 0.15180  0.13290  0.04430  Biso   1.000  H
  H18      1.0000 0.84820  0.86710  0.54430  Biso   1.000  H
  H19      1.0000 0.36710  0.65180  0.79430  Biso   1.000  H
  H20      1.0000 0.63290  0.34820  0.29430  Biso   1.000  H
  H21      1.0000 0.34820  0.63290  0.70570  Biso   1.000  H
  H22      1.0000 0.65180  0.36710  0.20570  Biso   1.000  H
  H23      1.0000 0.13290  0.15180  0.95570  Biso   1.000  H
  H24      1.0000 0.86710  0.84820  0.45570  Biso   1.000  H
  C33      1.0000 0.26320  0.04060  0.01840  Biso   1.000  C
  C34      1.0000 0.73680  0.95940  0.51840  Biso   1.000  C
  C35      1.0000 0.45940  0.76320  0.76840  Biso   1.000  C
  C36      1.0000 0.54060  0.23680  0.26840  Biso   1.000  C
  C37      1.0000 0.23680  0.54060  0.73160  Biso   1.000  C
  C38      1.0000 0.76320  0.45940  0.23160  Biso   1.000  C
  C39      1.0000 0.04060  0.26320  0.98160  Biso   1.000  C
  C40      1.0000 0.95940  0.73680  0.48160  Biso   1.000  C
  H25      1.0000 0.20990  0.99750  0.00580  Biso   1.000  H
  H26      1.0000 0.79010  0.00250  0.50580  Biso   1.000  H
  H27      1.0000 0.50250  0.70990  0.75580  Biso   1.000  H
  H28      1.0000 0.49750  0.29010  0.25580  Biso   1.000  H
  H29      1.0000 0.29010  0.49750  0.74420  Biso   1.000  H
  H30      1.0000 0.70990  0.50250  0.24420  Biso   1.000  H
  H31      1.0000 0.99750  0.20990  0.99420  Biso   1.000  H
  H32      1.0000 0.00250  0.79010  0.49420  Biso   1.000  H
  C41      1.0000 0.27080  0.29210  0.07940  Biso   1.000  C
  C42      1.0000 0.72920  0.70790  0.57940  Biso   1.000  C
  C43      1.0000 0.20790  0.77080  0.82940  Biso   1.000  C
  C44      1.0000 0.79210  0.22920  0.32940  Biso   1.000  C
  C45      1.0000 0.22920  0.79210  0.67060  Biso   1.000  C
  C46      1.0000 0.77080  0.20790  0.17060  Biso   1.000  C
  C47      1.0000 0.29210  0.27080  0.92060  Biso   1.000  C
  C48      1.0000 0.70790  0.72920  0.42060  Biso   1.000  C
  H33      1.0000 0.31410  0.29650  0.10280  Biso   1.000  H
  H34      1.0000 0.68590  0.70350  0.60280  Biso   1.000  H
  H35      1.0000 0.20350  0.81410  0.85280  Biso   1.000  H
  H36      1.0000 0.79650  0.18590  0.35280  Biso   1.000  H
  H37      1.0000 0.18590  0.79650  0.64720  Biso   1.000  H
  H38      1.0000 0.81410  0.20350  0.14720  Biso   1.000  H
  H39      1.0000 0.29650  0.31410  0.89720  Biso   1.000  H
  H40      1.0000 0.70350  0.68590  0.39720  Biso   1.000  H
  H41      1.0000 0.19200  0.29040  0.08600  Biso   1.000  H
  H42      1.0000 0.80800  0.70960  0.58600  Biso   1.000  H
  H43      1.0000 0.20960  0.69200  0.83600  Biso   1.000  H
  H44      1.0000 0.79040  0.30800  0.33600  Biso   1.000  H
  H45      1.0000 0.30800  0.79040  0.66400  Biso   1.000  H
  H46      1.0000 0.69200  0.20960  0.16400  Biso   1.000  H
  H47      1.0000 0.29040  0.19200  0.91400  Biso   1.000  H
  H48      1.0000 0.70960  0.80800  0.41400  Biso   1.000  H
  C49      1.0000 0.28040  0.49270  0.06760  Biso   1.000  C
  C50      1.0000 0.71960  0.50730  0.56760  Biso   1.000  C
  C51      1.0000 0.00730  0.78040  0.81760  Biso   1.000  C
  C52      1.0000 0.99270  0.21960  0.31760  Biso   1.000  C
  C53      1.0000 0.21960  0.99270  0.68240  Biso   1.000  C
  C54      1.0000 0.78040  0.00730  0.18240  Biso   1.000  C
  C55      1.0000 0.49270  0.28040  0.93240  Biso   1.000  C
  C56      1.0000 0.50730  0.71960  0.43240  Biso   1.000  C
  H49      1.0000 0.32910  0.50450  0.08930  Biso   1.000  H
  H50      1.0000 0.67090  0.49550  0.58930  Biso   1.000  H
  H51      1.0000 0.99550  0.82910  0.83930  Biso   1.000  H
  H52      1.0000 0.00450  0.17090  0.33930  Biso   1.000  H
  H53      1.0000 0.17090  0.00450  0.66070  Biso   1.000  H
  H54      1.0000 0.82910  0.99550  0.16070  Biso   1.000  H
  H55      1.0000 0.50450  0.32910  0.91070  Biso   1.000  H
  H56      1.0000 0.49550  0.67090  0.41070  Biso   1.000  H
  H57      1.0000 0.20350  0.50050  0.07600  Biso   1.000  H
  H58      1.0000 0.79650  0.49950  0.57600  Biso   1.000  H
  H59      1.0000 0.99950  0.70350  0.82600  Biso   1.000  H
  H60      1.0000 0.00050  0.29650  0.32600  Biso   1.000  H
  H61      1.0000 0.29650  0.00050  0.67400  Biso   1.000  H
  H62      1.0000 0.70350  0.99950  0.17400  Biso   1.000  H
  H63      1.0000 0.50050  0.20350  0.92400  Biso   1.000  H
  H64      1.0000 0.49950  0.79650  0.42400  Biso   1.000  H
  C57      1.0000 0.29670  0.39410  0.05320  Biso   1.000  C
  C58      1.0000 0.70330  0.60590  0.55320  Biso   1.000  C
  C59      1.0000 0.10590  0.79670  0.80320  Biso   1.000  C
  C60      1.0000 0.89410  0.20330  0.30320  Biso   1.000  C
  C61      1.0000 0.20330  0.89410  0.69680  Biso   1.000  C
  C62      1.0000 0.79670  0.10590  0.19680  Biso   1.000  C
  C63      1.0000 0.39410  0.29670  0.94680  Biso   1.000  C
  C64      1.0000 0.60590  0.70330  0.44680  Biso   1.000  C
  H65      1.0000 0.37420  0.38920  0.04530  Biso   1.000  H
  H66      1.0000 0.62580  0.61080  0.54530  Biso   1.000  H
  H67      1.0000 0.11080  0.87420  0.79530  Biso   1.000  H
  H68      1.0000 0.88920  0.12580  0.29530  Biso   1.000  H
  H69      1.0000 0.12580  0.88920  0.70470  Biso   1.000  H
  H70      1.0000 0.87420  0.11080  0.20470  Biso   1.000  H
  H71      1.0000 0.38920  0.37420  0.95470  Biso   1.000  H
  H72      1.0000 0.61080  0.62580  0.45470  Biso   1.000  H
  H73      1.0000 0.25110  0.38750  0.03040  Biso   1.000  H
  H74      1.0000 0.74890  0.61250  0.53040  Biso   1.000  H
  H75      1.0000 0.11250  0.75110  0.78040  Biso   1.000  H
  H76      1.0000 0.88750  0.24890  0.28040  Biso   1.000  H
  H77      1.0000 0.24890  0.88750  0.71960  Biso   1.000  H
  H78      1.0000 0.75110  0.11250  0.21960  Biso   1.000  H
  H79      1.0000 0.38750  0.25110  0.96960  Biso   1.000  H
  H80      1.0000 0.61250  0.74890  0.46960  Biso   1.000  H
  C65      1.0000 0.30700  0.57800  0.03580  Biso   1.000  C
  C66      1.0000 0.69300  0.42200  0.53580  Biso   1.000  C
  C67      1.0000 0.92200  0.80700  0.78580  Biso   1.000  C
  C68      1.0000 0.07800  0.19300  0.28580  Biso   1.000  C
  C69      1.0000 0.19300  0.07800  0.71420  Biso   1.000  C
  C70      1.0000 0.80700  0.92200  0.21420  Biso   1.000  C
  C71      1.0000 0.57800  0.30700  0.96420  Biso   1.000  C
  C72      1.0000 0.42200  0.69300  0.46420  Biso   1.000  C
  C73      1.0000 0.42100  0.61100  0.03420  Biso   1.000  C
  C74      1.0000 0.57900  0.38900  0.53420  Biso   1.000  C
  C75      1.0000 0.88900  0.92100  0.78420  Biso   1.000  C
  C76      1.0000 0.11100  0.07900  0.28420  Biso   1.000  C
  C77      1.0000 0.07900  0.11100  0.71580  Biso   1.000  C
  C78      1.0000 0.92100  0.88900  0.21580  Biso   1.000  C
  C79      1.0000 0.61100  0.42100  0.96580  Biso   1.000  C
  C80      1.0000 0.38900  0.57900  0.46580  Biso   1.000  C
  H81      1.0000 0.47410  0.57210  0.04850  Biso   1.000  H
  H82      1.0000 0.52590  0.42790  0.54850  Biso   1.000  H
  H83      1.0000 0.92790  0.97410  0.79850  Biso   1.000  H
  H84      1.0000 0.07210  0.02590  0.29850  Biso   1.000  H
  H85      1.0000 0.02590  0.07210  0.70150  Biso   1.000  H
  H86      1.0000 0.97410  0.92790  0.20150  Biso   1.000  H
  H87      1.0000 0.57210  0.47410  0.95150  Biso   1.000  H
  H88      1.0000 0.42790  0.52590  0.45150  Biso   1.000  H
  C81      1.0000 0.45260  0.69660  0.01200  Biso   1.000  C
  C82      1.0000 0.54740  0.30340  0.51200  Biso   1.000  C
  C83      1.0000 0.80340  0.95260  0.76200  Biso   1.000  C
  C84      1.0000 0.19660  0.04740  0.26200  Biso   1.000  C
  C85      1.0000 0.04740  0.19660  0.73800  Biso   1.000  C
  C86      1.0000 0.95260  0.80340  0.23800  Biso   1.000  C
  C87      1.0000 0.69660  0.45260  0.98800  Biso   1.000  C
  C88      1.0000 0.30340  0.54740  0.48800  Biso   1.000  C
  H89      1.0000 0.52810  0.71280  0.00880  Biso   1.000  H
  H90      1.0000 0.47190  0.28720  0.50880  Biso   1.000  H
  H91      1.0000 0.78720  0.02810  0.75880  Biso   1.000  H
  H92      1.0000 0.21280  0.97190  0.25880  Biso   1.000  H
  H93      1.0000 0.97190  0.21280  0.74120  Biso   1.000  H
  H94      1.0000 0.02810  0.78720  0.24120  Biso   1.000  H
  H95      1.0000 0.71280  0.52810  0.99120  Biso   1.000  H
  H96      1.0000 0.28720  0.47190  0.49120  Biso   1.000  H
  C89      1.0000 0.27520  0.72860  0.99990  Biso   1.000  C
  C90      1.0000 0.72480  0.27140  0.49990  Biso   1.000  C
  C91      1.0000 0.77140  0.77520  0.74990  Biso   1.000  C
  C92      1.0000 0.22860  0.22480  0.24990  Biso   1.000  C
  C93      1.0000 0.22480  0.22860  0.75010  Biso   1.000  C
  C94      1.0000 0.77520  0.77140  0.25010  Biso   1.000  C
  C95      1.0000 0.72860  0.27520  0.00010  Biso   1.000  C
  C96      1.0000 0.27140  0.72480  0.50010  Biso   1.000  C
  H97      1.0000 0.22300  0.77420  0.98790  Biso   1.000  H
  H98      1.0000 0.77700  0.22580  0.48790  Biso   1.000  H
  H99      1.0000 0.72580  0.72300  0.73790  Biso   1.000  H
  H100     1.0000 0.27420  0.27700  0.23790  Biso   1.000  H
  H101     1.0000 0.27700  0.27420  0.76210  Biso   1.000  H
  H102     1.0000 0.72300  0.72580  0.26210  Biso   1.000  H
  H103     1.0000 0.77420  0.22300  0.01210  Biso   1.000  H
  H104     1.0000 0.22580  0.77700  0.51210  Biso   1.000  H
  C97      1.0000 0.23580  0.64400  0.01970  Biso   1.000  C
  C98      1.0000 0.76420  0.35600  0.51970  Biso   1.000  C
  C99      1.0000 0.85600  0.73580  0.76970  Biso   1.000  C
  C100     1.0000 0.14400  0.26420  0.26970  Biso   1.000  C
  C101     1.0000 0.26420  0.14400  0.73030  Biso   1.000  C
  C102     1.0000 0.73580  0.85600  0.23030  Biso   1.000  C
  C103     1.0000 0.64400  0.23580  0.98030  Biso   1.000  C
  C104     1.0000 0.35600  0.76420  0.48030  Biso   1.000  C
  H105     1.0000 0.15920  0.63190  0.02190  Biso   1.000  H
  H106     1.0000 0.84080  0.36810  0.52190  Biso   1.000  H
  H107     1.0000 0.86810  0.65920  0.77190  Biso   1.000  H
  H108     1.0000 0.13190  0.34080  0.27190  Biso   1.000  H
  H109     1.0000 0.34080  0.13190  0.72810  Biso   1.000  H
  H110     1.0000 0.65920  0.86810  0.22810  Biso   1.000  H
  H111     1.0000 0.63190  0.15920  0.97810  Biso   1.000  H
  H112     1.0000 0.36810  0.84080  0.47810  Biso   1.000  H
  C105     1.0000 0.60030  0.76310  0.85950  Biso   1.000  C
  C106     1.0000 0.39970  0.23690  0.35950  Biso   1.000  C
  C107     1.0000 0.73690  0.10030  0.60950  Biso   1.000  C
  C108     1.0000 0.26310  0.89970  0.10950  Biso   1.000  C
  C109     1.0000 0.89970  0.26310  0.89050  Biso   1.000  C
  C110     1.0000 0.10030  0.73690  0.39050  Biso   1.000  C
  C111     1.0000 0.76310  0.60030  0.14050  Biso   1.000  C
  C112     1.0000 0.23690  0.39970  0.64050  Biso   1.000  C
  H113     1.0000 0.64420  0.82500  0.85350  Biso   1.000  H
  H114     1.0000 0.35580  0.17500  0.35350  Biso   1.000  H
  H115     1.0000 0.67500  0.14420  0.60350  Biso   1.000  H
  H116     1.0000 0.32500  0.85580  0.10350  Biso   1.000  H
  H117     1.0000 0.85580  0.32500  0.89650  Biso   1.000  H
  H118     1.0000 0.14420  0.67500  0.39650  Biso   1.000  H
  H119     1.0000 0.82500  0.64420  0.14650  Biso   1.000  H
  H120     1.0000 0.17500  0.35580  0.64650  Biso   1.000  H
  C113     1.0000 0.63130  0.66170  0.84510  Biso   1.000  C
  C114     1.0000 0.36870  0.33830  0.34510  Biso   1.000  C
  C115     1.0000 0.83830  0.13130  0.59510  Biso   1.000  C
  C116     1.0000 0.16170  0.86870  0.09510  Biso   1.000  C
  C117     1.0000 0.86870  0.16170  0.90490  Biso   1.000  C
  C118     1.0000 0.13130  0.83830  0.40490  Biso   1.000  C
  C119     1.0000 0.66170  0.63130  0.15490  Biso   1.000  C
  C120     1.0000 0.33830  0.36870  0.65490  Biso   1.000  C
  H121     1.0000 0.69230  0.65630  0.82870  Biso   1.000  H
  H122     1.0000 0.30770  0.34370  0.32870  Biso   1.000  H
  H123     1.0000 0.84370  0.19230  0.57870  Biso   1.000  H
  H124     1.0000 0.15630  0.80770  0.07870  Biso   1.000  H
  H125     1.0000 0.80770  0.15630  0.92130  Biso   1.000  H
  H126     1.0000 0.19230  0.84370  0.42130  Biso   1.000  H
  H127     1.0000 0.65630  0.69230  0.17130  Biso   1.000  H
  H128     1.0000 0.34370  0.30770  0.67130  Biso   1.000  H
  C121     1.0000 0.57330  0.56930  0.85460  Biso   1.000  C
  C122     1.0000 0.42670  0.43070  0.35460  Biso   1.000  C
  C123     1.0000 0.93070  0.07330  0.60460  Biso   1.000  C
  C124     1.0000 0.06930  0.92670  0.10460  Biso   1.000  C
  C125     1.0000 0.92670  0.06930  0.89540  Biso   1.000  C
  C126     1.0000 0.07330  0.93070  0.39540  Biso   1.000  C
  C127     1.0000 0.56930  0.57330  0.14540  Biso   1.000  C
  C128     1.0000 0.43070  0.42670  0.64540  Biso   1.000  C
  C129     1.0000 0.48080  0.58470  0.87650  Biso   1.000  C
  C130     1.0000 0.51920  0.41530  0.37650  Biso   1.000  C
  C131     1.0000 0.91530  0.98080  0.62650  Biso   1.000  C
  C132     1.0000 0.08470  0.01920  0.12650  Biso   1.000  C
  C133     1.0000 0.01920  0.08470  0.87350  Biso   1.000  C
  C134     1.0000 0.98080  0.91530  0.37350  Biso   1.000  C
  C135     1.0000 0.58470  0.48080  0.12350  Biso   1.000  C
  C136     1.0000 0.41530  0.51920  0.62350  Biso   1.000  C
  H129     1.0000 0.43590  0.52420  0.88300  Biso   1.000  H
  H130     1.0000 0.56410  0.47580  0.38300  Biso   1.000  H
  H131     1.0000 0.97580  0.93590  0.63300  Biso   1.000  H
  H132     1.0000 0.02420  0.06410  0.13300  Biso   1.000  H
  H133     1.0000 0.06410  0.02420  0.86700  Biso   1.000  H
  H134     1.0000 0.93590  0.97580  0.36700  Biso   1.000  H
  H135     1.0000 0.52420  0.43590  0.11700  Biso   1.000  H
  H136     1.0000 0.47580  0.56410  0.61700  Biso   1.000  H
  C137     1.0000 0.45420  0.68970  0.88890  Biso   1.000  C
  C138     1.0000 0.54580  0.31030  0.38890  Biso   1.000  C
  C139     1.0000 0.81030  0.95420  0.63890  Biso   1.000  C
  C140     1.0000 0.18970  0.04580  0.13890  Biso   1.000  C
  C141     1.0000 0.04580  0.18970  0.86110  Biso   1.000  C
  C142     1.0000 0.95420  0.81030  0.36110  Biso   1.000  C
  C143     1.0000 0.68970  0.45420  0.11110  Biso   1.000  C
  C144     1.0000 0.31030  0.54580  0.61110  Biso   1.000  C
  H137     1.0000 0.39060  0.69910  0.90380  Biso   1.000  H
  H138     1.0000 0.60940  0.30090  0.40380  Biso   1.000  H
  H139     1.0000 0.80090  0.89060  0.65380  Biso   1.000  H
  H140     1.0000 0.19910  0.10940  0.15380  Biso   1.000  H
  H141     1.0000 0.10940  0.19910  0.84620  Biso   1.000  H
  H142     1.0000 0.89060  0.80090  0.34620  Biso   1.000  H
  H143     1.0000 0.69910  0.39060  0.09620  Biso   1.000  H
  H144     1.0000 0.30090  0.60940  0.59620  Biso   1.000  H
  C145     1.0000 0.60360  0.45900  0.84060  Biso   1.000  C
  C146     1.0000 0.39640  0.54100  0.34060  Biso   1.000  C
  C147     1.0000 0.04100  0.10360  0.59060  Biso   1.000  C
  C148     1.0000 0.95900  0.89640  0.09060  Biso   1.000  C
  C149     1.0000 0.89640  0.95900  0.90940  Biso   1.000  C
  C150     1.0000 0.10360  0.04100  0.40940  Biso   1.000  C
  C151     1.0000 0.45900  0.60360  0.15940  Biso   1.000  C
  C152     1.0000 0.54100  0.39640  0.65940  Biso   1.000  C
  H145     1.0000 0.58810  0.40410  0.86020  Biso   1.000  H
  H146     1.0000 0.41190  0.59590  0.36020  Biso   1.000  H
  H147     1.0000 0.09590  0.08810  0.61020  Biso   1.000  H
  H148     1.0000 0.90410  0.91190  0.11020  Biso   1.000  H
  H149     1.0000 0.91190  0.90410  0.88980  Biso   1.000  H
  H150     1.0000 0.08810  0.09590  0.38980  Biso   1.000  H
  H151     1.0000 0.40410  0.58810  0.13980  Biso   1.000  H
  H152     1.0000 0.59590  0.41190  0.63980  Biso   1.000  H
  H153     1.0000 0.68330  0.45730  0.83550  Biso   1.000  H
  H154     1.0000 0.31670  0.54270  0.33550  Biso   1.000  H
  H155     1.0000 0.04270  0.18330  0.58550  Biso   1.000  H
  H156     1.0000 0.95730  0.81670  0.08550  Biso   1.000  H
  H157     1.0000 0.81670  0.95730  0.91450  Biso   1.000  H
  H158     1.0000 0.18330  0.04270  0.41450  Biso   1.000  H
  H159     1.0000 0.45730  0.68330  0.16450  Biso   1.000  H
  H160     1.0000 0.54270  0.31670  0.66450  Biso   1.000  H
  C153     1.0000 0.54230  0.42770  0.80530  Biso   1.000  C
  C154     1.0000 0.45770  0.57230  0.30530  Biso   1.000  C
  C155     1.0000 0.07230  0.04230  0.55530  Biso   1.000  C
  C156     1.0000 0.92770  0.95770  0.05530  Biso   1.000  C
  C157     1.0000 0.95770  0.92770  0.94470  Biso   1.000  C
  C158     1.0000 0.04230  0.07230  0.44470  Biso   1.000  C
  C159     1.0000 0.42770  0.54230  0.19470  Biso   1.000  C
  C160     1.0000 0.57230  0.45770  0.69470  Biso   1.000  C
  H161     1.0000 0.55620  0.48340  0.78580  Biso   1.000  H
  H162     1.0000 0.44380  0.51660  0.28580  Biso   1.000  H
  H163     1.0000 0.01660  0.05620  0.53580  Biso   1.000  H
  H164     1.0000 0.98340  0.94380  0.03580  Biso   1.000  H
  H165     1.0000 0.94380  0.98340  0.96420  Biso   1.000  H
  H166     1.0000 0.05620  0.01660  0.46420  Biso   1.000  H
  H167     1.0000 0.48340  0.55620  0.21420  Biso   1.000  H
  H168     1.0000 0.51660  0.44380  0.71420  Biso   1.000  H
  H169     1.0000 0.46270  0.42700  0.81060  Biso   1.000  H
  H170     1.0000 0.53730  0.57300  0.31060  Biso   1.000  H
  H171     1.0000 0.07300  0.96270  0.56060  Biso   1.000  H
  H172     1.0000 0.92700  0.03730  0.06060  Biso   1.000  H
  H173     1.0000 0.03730  0.92700  0.93940  Biso   1.000  H
  H174     1.0000 0.96270  0.07300  0.43940  Biso   1.000  H
  H175     1.0000 0.42700  0.46270  0.18940  Biso   1.000  H
  H176     1.0000 0.57300  0.53730  0.68940  Biso   1.000  H
  C161     1.0000 0.57770  0.31370  0.79070  Biso   1.000  C
  C162     1.0000 0.42230  0.68630  0.29070  Biso   1.000  C
  C163     1.0000 0.18630  0.07770  0.54070  Biso   1.000  C
  C164     1.0000 0.81370  0.92230  0.04070  Biso   1.000  C
  C165     1.0000 0.92230  0.81370  0.95930  Biso   1.000  C
  C166     1.0000 0.07770  0.18630  0.45930  Biso   1.000  C
  C167     1.0000 0.31370  0.57770  0.20930  Biso   1.000  C
  C168     1.0000 0.68630  0.42230  0.70930  Biso   1.000  C
  H177     1.0000 0.53860  0.29820  0.76700  Biso   1.000  H
  H178     1.0000 0.46140  0.70180  0.26700  Biso   1.000  H
  H179     1.0000 0.20180  0.03860  0.51700  Biso   1.000  H
  H180     1.0000 0.79820  0.96140  0.01700  Biso   1.000  H
  H181     1.0000 0.96140  0.79820  0.98300  Biso   1.000  H
  H182     1.0000 0.03860  0.20180  0.48300  Biso   1.000  H
  H183     1.0000 0.29820  0.53860  0.23300  Biso   1.000  H
  H184     1.0000 0.70180  0.46140  0.73300  Biso   1.000  H
  H185     1.0000 0.65720  0.31480  0.78520  Biso   1.000  H
  H186     1.0000 0.34280  0.68520  0.28520  Biso   1.000  H
  H187     1.0000 0.18520  0.15720  0.53520  Biso   1.000  H
  H188     1.0000 0.81480  0.84280  0.03520  Biso   1.000  H
  H189     1.0000 0.84280  0.81480  0.96480  Biso   1.000  H
  H190     1.0000 0.15720  0.18520  0.46480  Biso   1.000  H
  H191     1.0000 0.31480  0.65720  0.21480  Biso   1.000  H
  H192     1.0000 0.68520  0.34280  0.71480  Biso   1.000  H
  C169     1.0000 0.55370  0.22240  0.81860  Biso   1.000  C
  C170     1.0000 0.44630  0.77760  0.31860  Biso   1.000  C
  C171     1.0000 0.27760  0.05370  0.56860  Biso   1.000  C
  C172     1.0000 0.72240  0.94630  0.06860  Biso   1.000  C
  C173     1.0000 0.94630  0.72240  0.93140  Biso   1.000  C
  C174     1.0000 0.05370  0.27760  0.43140  Biso   1.000  C
  C175     1.0000 0.22240  0.55370  0.18140  Biso   1.000  C
  C176     1.0000 0.77760  0.44630  0.68140  Biso   1.000  C
  C177     1.0000 0.63790  0.16280  0.83350  Biso   1.000  C
  C178     1.0000 0.36210  0.83720  0.33350  Biso   1.000  C
  C179     1.0000 0.33720  0.13790  0.58350  Biso   1.000  C
  C180     1.0000 0.66280  0.86210  0.08350  Biso   1.000  C
  C181     1.0000 0.86210  0.66280  0.91650  Biso   1.000  C
  C182     1.0000 0.13790  0.33720  0.41650  Biso   1.000  C
  C183     1.0000 0.16280  0.63790  0.16650  Biso   1.000  C
  C184     1.0000 0.83720  0.36210  0.66650  Biso   1.000  C
  H193     1.0000 0.71170  0.17900  0.82720  Biso   1.000  H
  H194     1.0000 0.28830  0.82100  0.32720  Biso   1.000  H
  H195     1.0000 0.32100  0.21170  0.57720  Biso   1.000  H
  H196     1.0000 0.67900  0.78830  0.07720  Biso   1.000  H
  H197     1.0000 0.78830  0.67900  0.92280  Biso   1.000  H
  H198     1.0000 0.21170  0.32100  0.42280  Biso   1.000  H
  H199     1.0000 0.17900  0.71170  0.17280  Biso   1.000  H
  H200     1.0000 0.82100  0.28830  0.67280  Biso   1.000  H
  C185     1.0000 0.61430  0.08080  0.85740  Biso   1.000  C
  C186     1.0000 0.38570  0.91920  0.35740  Biso   1.000  C
  C187     1.0000 0.41920  0.11430  0.60740  Biso   1.000  C
  C188     1.0000 0.58080  0.88570  0.10740  Biso   1.000  C
  C189     1.0000 0.88570  0.58080  0.89260  Biso   1.000  C
  C190     1.0000 0.11430  0.41920  0.39260  Biso   1.000  C
  C191     1.0000 0.08080  0.61430  0.14260  Biso   1.000  C
  C192     1.0000 0.91920  0.38570  0.64260  Biso   1.000  C
  H201     1.0000 0.67390  0.03830  0.86640  Biso   1.000  H
  H202     1.0000 0.32610  0.96170  0.36640  Biso   1.000  H
  H203     1.0000 0.46170  0.17390  0.61640  Biso   1.000  H
  H204     1.0000 0.53830  0.82610  0.11640  Biso   1.000  H
  H205     1.0000 0.82610  0.53830  0.88360  Biso   1.000  H
  H206     1.0000 0.17390  0.46170  0.38360  Biso   1.000  H
  H207     1.0000 0.03830  0.67390  0.13360  Biso   1.000  H
  H208     1.0000 0.96170  0.32610  0.63360  Biso   1.000  H
  C193     1.0000 0.43230  0.11380  0.85500  Biso   1.000  C
  C194     1.0000 0.56770  0.88620  0.35500  Biso   1.000  C
  C195     1.0000 0.38620  0.93230  0.60500  Biso   1.000  C
  C196     1.0000 0.61380  0.06770  0.10500  Biso   1.000  C
  C197     1.0000 0.06770  0.61380  0.89500  Biso   1.000  C
  C198     1.0000 0.93230  0.38620  0.39500  Biso   1.000  C
  C199     1.0000 0.11380  0.43230  0.14500  Biso   1.000  C
  C200     1.0000 0.88620  0.56770  0.64500  Biso   1.000  C
  H209     1.0000 0.35910  0.09780  0.86220  Biso   1.000  H
  H210     1.0000 0.64090  0.90220  0.36220  Biso   1.000  H
  H211     1.0000 0.40220  0.85910  0.61220  Biso   1.000  H
  H212     1.0000 0.59780  0.14090  0.11220  Biso   1.000  H
  H213     1.0000 0.14090  0.59780  0.88780  Biso   1.000  H
  H214     1.0000 0.85910  0.40220  0.38780  Biso   1.000  H
  H215     1.0000 0.09780  0.35910  0.13780  Biso   1.000  H
  H216     1.0000 0.90220  0.64090  0.63780  Biso   1.000  H
  C201     1.0000 0.45070  0.19790  0.83010  Biso   1.000  C
  C202     1.0000 0.54930  0.80210  0.33010  Biso   1.000  C
  C203     1.0000 0.30210  0.95070  0.58010  Biso   1.000  C
  C204     1.0000 0.69790  0.04930  0.08010  Biso   1.000  C
  C205     1.0000 0.04930  0.69790  0.91990  Biso   1.000  C
  C206     1.0000 0.95070  0.30210  0.41990  Biso   1.000  C
  C207     1.0000 0.19790  0.45070  0.16990  Biso   1.000  C
  C208     1.0000 0.80210  0.54930  0.66990  Biso   1.000  C
  H217     1.0000 0.39050  0.23910  0.82080  Biso   1.000  H
  H218     1.0000 0.60950  0.76090  0.32080  Biso   1.000  H
  H219     1.0000 0.26090  0.89050  0.57080  Biso   1.000  H
  H220     1.0000 0.73910  0.10950  0.07080  Biso   1.000  H
  H221     1.0000 0.10950  0.73910  0.92920  Biso   1.000  H
  H222     1.0000 0.89050  0.26090  0.42920  Biso   1.000  H
  H223     1.0000 0.23910  0.39050  0.17920  Biso   1.000  H
  H224     1.0000 0.76090  0.60950  0.67920  Biso   1.000  H
