data_image0
_cell_length_a       16.072
_cell_length_b       13.1
_cell_length_c       8.4752
_cell_angle_alpha    90
_cell_angle_beta     94.335
_cell_angle_gamma    90

_symmetry_space_group_name_H-M    "P 1"
_symmetry_int_tables_number       1

loop_
  _symmetry_equiv_pos_as_xyz
  'x, y, z'

loop_
  _atom_site_label
  _atom_site_occupancy
  _atom_site_fract_x
  _atom_site_fract_y
  _atom_site_fract_z
  _atom_site_thermal_displace_type
  _atom_site_B_iso_or_equiv
  _atom_site_type_symbol
  I1       1.0000 0.59934  0.50000  0.81783  Biso   1.000  I
  I2       1.0000 0.09934  0.00000  0.81783  Biso   1.000  I
  I3       1.0000 0.40066  0.50000  0.18217  Biso   1.000  I
  I4       1.0000 0.90066  0.00000  0.18217  Biso   1.000  I
  Cu1      1.0000 0.56237  0.50000  0.11470  Biso   1.000  Cu
  Cu2      1.0000 0.06237  0.00000  0.11470  Biso   1.000  Cu
  Cu3      1.0000 0.43763  0.50000  0.88530  Biso   1.000  Cu
  Cu4      1.0000 0.93763  0.00000  0.88530  Biso   1.000  Cu
  N1       1.0000 0.61090  0.62980  0.22020  Biso   1.000  N
  N2       1.0000 0.11090  0.12980  0.22020  Biso   1.000  N
  N3       1.0000 0.38910  0.62980  0.77980  Biso   1.000  N
  N4       1.0000 0.88910  0.12980  0.77980  Biso   1.000  N
  N5       1.0000 0.38910  0.37020  0.77980  Biso   1.000  N
  N6       1.0000 0.88910  0.87020  0.77980  Biso   1.000  N
  N7       1.0000 0.61090  0.37020  0.22020  Biso   1.000  N
  N8       1.0000 0.11090  0.87020  0.22020  Biso   1.000  N
  C1       1.0000 0.67510  0.68090  0.16790  Biso   1.000  C
  C2       1.0000 0.17510  0.18090  0.16790  Biso   1.000  C
  C3       1.0000 0.32490  0.68090  0.83210  Biso   1.000  C
  C4       1.0000 0.82490  0.18090  0.83210  Biso   1.000  C
  C5       1.0000 0.32490  0.31910  0.83210  Biso   1.000  C
  C6       1.0000 0.82490  0.81910  0.83210  Biso   1.000  C
  C7       1.0000 0.67510  0.31910  0.16790  Biso   1.000  C
  C8       1.0000 0.17510  0.81910  0.16790  Biso   1.000  C
  H1       1.0000 0.69900  0.65620  0.07890  Biso   1.000  H
  H2       1.0000 0.19900  0.15620  0.07890  Biso   1.000  H
  H3       1.0000 0.30100  0.65620  0.92110  Biso   1.000  H
  H4       1.0000 0.80100  0.15620  0.92110  Biso   1.000  H
  H5       1.0000 0.30100  0.34380  0.92110  Biso   1.000  H
  H6       1.0000 0.80100  0.84380  0.92110  Biso   1.000  H
  H7       1.0000 0.69900  0.34380  0.07890  Biso   1.000  H
  H8       1.0000 0.19900  0.84380  0.07890  Biso   1.000  H
  C9       1.0000 0.70820  0.76870  0.23880  Biso   1.000  C
  C10      1.0000 0.20820  0.26870  0.23880  Biso   1.000  C
  C11      1.0000 0.29180  0.76870  0.76120  Biso   1.000  C
  C12      1.0000 0.79180  0.26870  0.76120  Biso   1.000  C
  C13      1.0000 0.29180  0.23130  0.76120  Biso   1.000  C
  C14      1.0000 0.79180  0.73130  0.76120  Biso   1.000  C
  C15      1.0000 0.70820  0.23130  0.23880  Biso   1.000  C
  C16      1.0000 0.20820  0.73130  0.23880  Biso   1.000  C
  H9       1.0000 0.75330  0.80090  0.19740  Biso   1.000  H
  H10      1.0000 0.25330  0.30090  0.19740  Biso   1.000  H
  H11      1.0000 0.24670  0.80090  0.80260  Biso   1.000  H
  H12      1.0000 0.74670  0.30090  0.80260  Biso   1.000  H
  H13      1.0000 0.24670  0.19910  0.80260  Biso   1.000  H
  H14      1.0000 0.74670  0.69910  0.80260  Biso   1.000  H
  H15      1.0000 0.75330  0.19910  0.19740  Biso   1.000  H
  H16      1.0000 0.25330  0.69910  0.19740  Biso   1.000  H
  C17      1.0000 0.67510  0.80810  0.36850  Biso   1.000  C
  C18      1.0000 0.17510  0.30810  0.36850  Biso   1.000  C
  C19      1.0000 0.32490  0.80810  0.63150  Biso   1.000  C
  C20      1.0000 0.82490  0.30810  0.63150  Biso   1.000  C
  C21      1.0000 0.32490  0.19190  0.63150  Biso   1.000  C
  C22      1.0000 0.82490  0.69190  0.63150  Biso   1.000  C
  C23      1.0000 0.67510  0.19190  0.36850  Biso   1.000  C
  C24      1.0000 0.17510  0.69190  0.36850  Biso   1.000  C
  C25      1.0000 0.61070  0.75400  0.42570  Biso   1.000  C
  C26      1.0000 0.11070  0.25400  0.42570  Biso   1.000  C
  C27      1.0000 0.38930  0.75400  0.57430  Biso   1.000  C
  C28      1.0000 0.88930  0.25400  0.57430  Biso   1.000  C
  C29      1.0000 0.38930  0.24600  0.57430  Biso   1.000  C
  C30      1.0000 0.88930  0.74600  0.57430  Biso   1.000  C
  C31      1.0000 0.61070  0.24600  0.42570  Biso   1.000  C
  C32      1.0000 0.11070  0.74600  0.42570  Biso   1.000  C
  H17      1.0000 0.58690  0.77620  0.51630  Biso   1.000  H
  H18      1.0000 0.08690  0.27620  0.51630  Biso   1.000  H
  H19      1.0000 0.41310  0.77620  0.48370  Biso   1.000  H
  H20      1.0000 0.91310  0.27620  0.48370  Biso   1.000  H
  H21      1.0000 0.41310  0.22380  0.48370  Biso   1.000  H
  H22      1.0000 0.91310  0.72380  0.48370  Biso   1.000  H
  H23      1.0000 0.58690  0.22380  0.51630  Biso   1.000  H
  H24      1.0000 0.08690  0.72380  0.51630  Biso   1.000  H
  C33      1.0000 0.58120  0.66640  0.34900  Biso   1.000  C
  C34      1.0000 0.08120  0.16640  0.34900  Biso   1.000  C
  C35      1.0000 0.41880  0.66640  0.65100  Biso   1.000  C
  C36      1.0000 0.91880  0.16640  0.65100  Biso   1.000  C
  C37      1.0000 0.41880  0.33360  0.65100  Biso   1.000  C
  C38      1.0000 0.91880  0.83360  0.65100  Biso   1.000  C
  C39      1.0000 0.58120  0.33360  0.34900  Biso   1.000  C
  C40      1.0000 0.08120  0.83360  0.34900  Biso   1.000  C
  H25      1.0000 0.53760  0.63130  0.39110  Biso   1.000  H
  H26      1.0000 0.03760  0.13130  0.39110  Biso   1.000  H
  H27      1.0000 0.46240  0.63130  0.60890  Biso   1.000  H
  H28      1.0000 0.96240  0.13130  0.60890  Biso   1.000  H
  H29      1.0000 0.46240  0.36870  0.60890  Biso   1.000  H
  H30      1.0000 0.96240  0.86870  0.60890  Biso   1.000  H
  H31      1.0000 0.53760  0.36870  0.39110  Biso   1.000  H
  H32      1.0000 0.03760  0.86870  0.39110  Biso   1.000  H
  C41      1.0000 0.70650  0.90450  0.44680  Biso   1.000  C
  C42      1.0000 0.20650  0.40450  0.44680  Biso   1.000  C
  C43      1.0000 0.29350  0.90450  0.55320  Biso   1.000  C
  C44      1.0000 0.79350  0.40450  0.55320  Biso   1.000  C
  C45      1.0000 0.29350  0.09550  0.55320  Biso   1.000  C
  C46      1.0000 0.79350  0.59550  0.55320  Biso   1.000  C
  C47      1.0000 0.70650  0.09550  0.44680  Biso   1.000  C
  C48      1.0000 0.20650  0.59550  0.44680  Biso   1.000  C
  H33      1.0000 0.76670  0.90680  0.44520  Biso   1.000  H
  H34      1.0000 0.26670  0.40680  0.44520  Biso   1.000  H
  H35      1.0000 0.23330  0.90680  0.55480  Biso   1.000  H
  H36      1.0000 0.73330  0.40680  0.55480  Biso   1.000  H
  H37      1.0000 0.23330  0.09320  0.55480  Biso   1.000  H
  H38      1.0000 0.73330  0.59320  0.55480  Biso   1.000  H
  H39      1.0000 0.76670  0.09320  0.44520  Biso   1.000  H
  H40      1.0000 0.26670  0.59320  0.44520  Biso   1.000  H
  H41      1.0000 0.69330  0.90350  0.55660  Biso   1.000  H
  H42      1.0000 0.19330  0.40350  0.55660  Biso   1.000  H
  H43      1.0000 0.30670  0.90350  0.44340  Biso   1.000  H
  H44      1.0000 0.80670  0.40350  0.44340  Biso   1.000  H
  H45      1.0000 0.30670  0.09650  0.44340  Biso   1.000  H
  H46      1.0000 0.80670  0.59650  0.44340  Biso   1.000  H
  H47      1.0000 0.69330  0.09650  0.55660  Biso   1.000  H
  H48      1.0000 0.19330  0.59650  0.55660  Biso   1.000  H
  C49      1.0000 0.67000  0.00000  0.36910  Biso   1.000  C
  C50      1.0000 0.17000  0.50000  0.36910  Biso   1.000  C
  C51      1.0000 0.33000  0.00000  0.63090  Biso   1.000  C
  C52      1.0000 0.83000  0.50000  0.63090  Biso   1.000  C
  H49      1.0000 0.68090  0.00000  0.25810  Biso   1.000  H
  H50      1.0000 0.18090  0.50000  0.25810  Biso   1.000  H
  H51      1.0000 0.31910  0.00000  0.74190  Biso   1.000  H
  H52      1.0000 0.81910  0.50000  0.74190  Biso   1.000  H
  H53      1.0000 0.61000  0.00000  0.37560  Biso   1.000  H
  H54      1.0000 0.11000  0.50000  0.37560  Biso   1.000  H
  H55      1.0000 0.39000  0.00000  0.62440  Biso   1.000  H
  H56      1.0000 0.89000  0.50000  0.62440  Biso   1.000  H
  C53      1.0000 0.50000  0.05370  0.00000  Biso   1.000  C
  C54      1.0000 0.00000  0.55370  0.00000  Biso   1.000  C
  C55      1.0000 0.50000  0.94630  0.00000  Biso   1.000  C
  C56      1.0000 0.00000  0.44630  0.00000  Biso   1.000  C
  C57      1.0000 0.43940  0.00000  0.07300  Biso   1.000  C
  C58      1.0000 0.93940  0.50000  0.07300  Biso   1.000  C
  C59      1.0000 0.56060  0.00000  0.92700  Biso   1.000  C
  C60      1.0000 0.06060  0.50000  0.92700  Biso   1.000  C
  C61      1.0000 0.44810  0.10800  0.08700  Biso   1.000  C
  C62      1.0000 0.94810  0.60800  0.08700  Biso   1.000  C
  C63      1.0000 0.55190  0.10800  0.91300  Biso   1.000  C
  C64      1.0000 0.05190  0.60800  0.91300  Biso   1.000  C
  C65      1.0000 0.55190  0.89200  0.91300  Biso   1.000  C
  C66      1.0000 0.05190  0.39200  0.91300  Biso   1.000  C
  C67      1.0000 0.44810  0.89200  0.08700  Biso   1.000  C
  C68      1.0000 0.94810  0.39200  0.08700  Biso   1.000  C
  C69      1.0000 0.50000  0.16800  0.00000  Biso   1.000  C
  C70      1.0000 0.00000  0.66800  0.00000  Biso   1.000  C
  C71      1.0000 0.50000  0.83200  0.00000  Biso   1.000  C
  C72      1.0000 0.00000  0.33200  0.00000  Biso   1.000  C
  C73      1.0000 0.40260  0.94650  0.19100  Biso   1.000  C
  C74      1.0000 0.90260  0.44650  0.19100  Biso   1.000  C
  C75      1.0000 0.59740  0.94650  0.80900  Biso   1.000  C
  C76      1.0000 0.09740  0.44650  0.80900  Biso   1.000  C
  C77      1.0000 0.59740  0.05350  0.80900  Biso   1.000  C
  C78      1.0000 0.09740  0.55350  0.80900  Biso   1.000  C
  C79      1.0000 0.40260  0.05350  0.19100  Biso   1.000  C
  C80      1.0000 0.90260  0.55350  0.19100  Biso   1.000  C
