data_image0
_cell_length_a       8.1449
_cell_length_b       10.6519
_cell_length_c       14.6161
_cell_angle_alpha    90
_cell_angle_beta     90.107
_cell_angle_gamma    90

_symmetry_space_group_name_H-M    "P 1"
_symmetry_int_tables_number       1

loop_
  _symmetry_equiv_pos_as_xyz
  'x, y, z'

loop_
  _atom_site_label
  _atom_site_occupancy
  _atom_site_fract_x
  _atom_site_fract_y
  _atom_site_fract_z
  _atom_site_thermal_displace_type
  _atom_site_B_iso_or_equiv
  _atom_site_type_symbol
  I1       1.0000 0.21695  0.44909  0.08452  Biso   1.000  I
  I2       1.0000 0.78305  0.94909  0.41548  Biso   1.000  I
  I3       1.0000 0.78305  0.55091  0.91548  Biso   1.000  I
  I4       1.0000 0.21695  0.05091  0.58452  Biso   1.000  I
  Cu1      1.0000 0.03398  0.63316  0.00957  Biso   1.000  Cu
  Cu2      1.0000 0.96602  0.13316  0.49043  Biso   1.000  Cu
  Cu3      1.0000 0.96602  0.36684  0.99043  Biso   1.000  Cu
  Cu4      1.0000 0.03398  0.86684  0.50957  Biso   1.000  Cu
  S1       1.0000 0.19460  0.76120  0.91772  Biso   1.000  S
  S2       1.0000 0.80540  0.26120  0.58228  Biso   1.000  S
  S3       1.0000 0.80540  0.23880  0.08228  Biso   1.000  S
  S4       1.0000 0.19460  0.73880  0.41772  Biso   1.000  S
  S5       1.0000 0.01210  0.75130  0.64558  Biso   1.000  S
  S6       1.0000 0.98790  0.25130  0.85442  Biso   1.000  S
  S7       1.0000 0.98790  0.24870  0.35442  Biso   1.000  S
  S8       1.0000 0.01210  0.74870  0.14558  Biso   1.000  S
  O1       1.0000 0.45380  0.54410  0.69220  Biso   1.000  O
  O2       1.0000 0.54620  0.04410  0.80780  Biso   1.000  O
  O3       1.0000 0.54620  0.45590  0.30780  Biso   1.000  O
  O4       1.0000 0.45380  0.95590  0.19220  Biso   1.000  O
  N1       1.0000 0.63310  0.70220  0.66150  Biso   1.000  N
  N2       1.0000 0.36690  0.20220  0.83850  Biso   1.000  N
  N3       1.0000 0.36690  0.29780  0.33850  Biso   1.000  N
  N4       1.0000 0.63310  0.79780  0.16150  Biso   1.000  N
  C1       1.0000 0.36340  0.80050  0.99090  Biso   1.000  C
  C2       1.0000 0.63660  0.30050  0.50910  Biso   1.000  C
  C3       1.0000 0.63660  0.19950  0.00910  Biso   1.000  C
  C4       1.0000 0.36340  0.69950  0.49090  Biso   1.000  C
  H1       1.0000 0.41310  0.72340  0.01480  Biso   1.000  H
  H2       1.0000 0.58690  0.22340  0.48520  Biso   1.000  H
  H3       1.0000 0.58690  0.27660  0.98520  Biso   1.000  H
  H4       1.0000 0.41310  0.77660  0.51480  Biso   1.000  H
  H5       1.0000 0.32400  0.85200  0.04190  Biso   1.000  H
  H6       1.0000 0.67600  0.35200  0.45810  Biso   1.000  H
  H7       1.0000 0.67600  0.14800  0.95810  Biso   1.000  H
  H8       1.0000 0.32400  0.64800  0.54190  Biso   1.000  H
  H9       1.0000 0.44550  0.84770  0.95610  Biso   1.000  H
  H10      1.0000 0.55450  0.34770  0.54390  Biso   1.000  H
  H11      1.0000 0.55450  0.15230  0.04390  Biso   1.000  H
  H12      1.0000 0.44550  0.65230  0.45610  Biso   1.000  H
  C5       1.0000 0.29920  0.66140  0.83560  Biso   1.000  C
  C6       1.0000 0.70080  0.16140  0.66440  Biso   1.000  C
  C7       1.0000 0.70080  0.33860  0.16440  Biso   1.000  C
  C8       1.0000 0.29920  0.83860  0.33560  Biso   1.000  C
  H13      1.0000 0.35860  0.59420  0.86870  Biso   1.000  H
  H14      1.0000 0.64140  0.09420  0.63130  Biso   1.000  H
  H15      1.0000 0.64140  0.40580  0.13130  Biso   1.000  H
  H16      1.0000 0.35860  0.90580  0.36870  Biso   1.000  H
  H17      1.0000 0.21680  0.62110  0.79520  Biso   1.000  H
  H18      1.0000 0.78320  0.12110  0.70480  Biso   1.000  H
  H19      1.0000 0.78320  0.37890  0.20480  Biso   1.000  H
  H20      1.0000 0.21680  0.87890  0.29520  Biso   1.000  H
  C9       1.0000 0.42020  0.73500  0.77730  Biso   1.000  C
  C10      1.0000 0.57980  0.23500  0.72270  Biso   1.000  C
  C11      1.0000 0.57980  0.26500  0.22270  Biso   1.000  C
  C12      1.0000 0.42020  0.76500  0.27730  Biso   1.000  C
  H21      1.0000 0.36150  0.80340  0.74510  Biso   1.000  H
  H22      1.0000 0.63850  0.30340  0.75490  Biso   1.000  H
  H23      1.0000 0.63850  0.19660  0.25490  Biso   1.000  H
  H24      1.0000 0.36150  0.69660  0.24510  Biso   1.000  H
  H25      1.0000 0.50450  0.77350  0.81730  Biso   1.000  H
  H26      1.0000 0.49550  0.27350  0.68270  Biso   1.000  H
  H27      1.0000 0.49550  0.22650  0.18270  Biso   1.000  H
  H28      1.0000 0.50450  0.72650  0.31730  Biso   1.000  H
  C13      1.0000 0.50310  0.65070  0.70770  Biso   1.000  C
  C14      1.0000 0.49690  0.15070  0.79230  Biso   1.000  C
  C15      1.0000 0.49690  0.34930  0.29230  Biso   1.000  C
  C16      1.0000 0.50310  0.84930  0.20770  Biso   1.000  C
  C17      1.0000 0.72640  0.62570  0.59730  Biso   1.000  C
  C18      1.0000 0.27360  0.12570  0.90270  Biso   1.000  C
  C19      1.0000 0.27360  0.37430  0.40270  Biso   1.000  C
  C20      1.0000 0.72640  0.87430  0.09730  Biso   1.000  C
  H29      1.0000 0.72820  0.66750  0.53680  Biso   1.000  H
  H30      1.0000 0.27180  0.16750  0.96320  Biso   1.000  H
  H31      1.0000 0.27180  0.33250  0.46320  Biso   1.000  H
  H32      1.0000 0.72820  0.83250  0.03680  Biso   1.000  H
  H33      1.0000 0.67210  0.54320  0.59000  Biso   1.000  H
  H34      1.0000 0.32790  0.04320  0.91000  Biso   1.000  H
  H35      1.0000 0.32790  0.45680  0.41000  Biso   1.000  H
  H36      1.0000 0.67210  0.95680  0.09000  Biso   1.000  H
  C21      1.0000 0.90000  0.60640  0.63040  Biso   1.000  C
  C22      1.0000 0.10000  0.10640  0.86960  Biso   1.000  C
  C23      1.0000 0.10000  0.39360  0.36960  Biso   1.000  C
  C24      1.0000 0.90000  0.89360  0.13040  Biso   1.000  C
  H37      1.0000 0.95910  0.55320  0.58570  Biso   1.000  H
  H38      1.0000 0.04090  0.05320  0.91430  Biso   1.000  H
  H39      1.0000 0.04090  0.44680  0.41430  Biso   1.000  H
  H40      1.0000 0.95910  0.94680  0.08570  Biso   1.000  H
  H41      1.0000 0.89730  0.56080  0.68940  Biso   1.000  H
  H42      1.0000 0.10270  0.06080  0.81060  Biso   1.000  H
  H43      1.0000 0.10270  0.43920  0.31060  Biso   1.000  H
  H44      1.0000 0.89730  0.93920  0.18940  Biso   1.000  H
  C25      1.0000 0.86200  0.83060  0.71670  Biso   1.000  C
  C26      1.0000 0.13800  0.33060  0.78330  Biso   1.000  C
  C27      1.0000 0.13800  0.16940  0.28330  Biso   1.000  C
  C28      1.0000 0.86200  0.66940  0.21670  Biso   1.000  C
  H45      1.0000 0.85700  0.78850  0.77710  Biso   1.000  H
  H46      1.0000 0.14300  0.28850  0.72290  Biso   1.000  H
  H47      1.0000 0.14300  0.21150  0.22290  Biso   1.000  H
  H48      1.0000 0.85700  0.71150  0.27710  Biso   1.000  H
  H49      1.0000 0.89740  0.91840  0.72680  Biso   1.000  H
  H50      1.0000 0.10260  0.41840  0.77320  Biso   1.000  H
  H51      1.0000 0.10260  0.08160  0.27320  Biso   1.000  H
  H52      1.0000 0.89740  0.58160  0.22680  Biso   1.000  H
  C29      1.0000 0.69240  0.83020  0.67380  Biso   1.000  C
  C30      1.0000 0.30760  0.33020  0.82620  Biso   1.000  C
  C31      1.0000 0.30760  0.16980  0.32620  Biso   1.000  C
  C32      1.0000 0.69240  0.66980  0.17380  Biso   1.000  C
  H53      1.0000 0.61540  0.87710  0.71350  Biso   1.000  H
  H54      1.0000 0.38460  0.37710  0.78650  Biso   1.000  H
  H55      1.0000 0.38460  0.12290  0.28650  Biso   1.000  H
  H56      1.0000 0.61540  0.62290  0.21350  Biso   1.000  H
  H57      1.0000 0.69650  0.87300  0.61370  Biso   1.000  H
  H58      1.0000 0.30350  0.37300  0.88630  Biso   1.000  H
  H59      1.0000 0.30350  0.12700  0.38630  Biso   1.000  H
  H60      1.0000 0.69650  0.62700  0.11370  Biso   1.000  H
