data_image0
_cell_length_a       4.83448
_cell_length_b       14.1398
_cell_length_c       22.1826
_cell_angle_alpha    90
_cell_angle_beta     90
_cell_angle_gamma    90

_symmetry_space_group_name_H-M    "P 1"
_symmetry_int_tables_number       1

loop_
  _symmetry_equiv_pos_as_xyz
  'x, y, z'

loop_
  _atom_site_label
  _atom_site_occupancy
  _atom_site_fract_x
  _atom_site_fract_y
  _atom_site_fract_z
  _atom_site_thermal_displace_type
  _atom_site_B_iso_or_equiv
  _atom_site_type_symbol
  O1       1.0000 0.24830  0.09286  0.50421  Biso   1.000  O
  O2       1.0000 0.74830  0.40714  0.49579  Biso   1.000  O
  O3       1.0000 0.75170  0.09286  0.99579  Biso   1.000  O
  O4       1.0000 0.25170  0.40714  0.00421  Biso   1.000  O
  O5       1.0000 0.75170  0.90714  0.49579  Biso   1.000  O
  O6       1.0000 0.25170  0.59286  0.50421  Biso   1.000  O
  O7       1.0000 0.24830  0.90714  0.00421  Biso   1.000  O
  O8       1.0000 0.74830  0.59286  0.99579  Biso   1.000  O
  C1       1.0000 0.50000  0.85100  0.25000  Biso   1.000  C
  C2       1.0000 0.00000  0.64900  0.75000  Biso   1.000  C
  C3       1.0000 0.50000  0.14900  0.75000  Biso   1.000  C
  C4       1.0000 0.00000  0.35100  0.25000  Biso   1.000  C
  N1       1.0000 0.07630  0.98669  0.33698  Biso   1.000  N
  N2       1.0000 0.57630  0.51331  0.66302  Biso   1.000  N
  N3       1.0000 0.92370  0.98669  0.16302  Biso   1.000  N
  N4       1.0000 0.42370  0.51331  0.83698  Biso   1.000  N
  N5       1.0000 0.92370  0.01331  0.66302  Biso   1.000  N
  N6       1.0000 0.42370  0.48669  0.33698  Biso   1.000  N
  N7       1.0000 0.07630  0.01331  0.83698  Biso   1.000  N
  N8       1.0000 0.57630  0.48669  0.16302  Biso   1.000  N
  N9       1.0000 0.32280  0.98838  0.42842  Biso   1.000  N
  N10      1.0000 0.82280  0.51162  0.57158  Biso   1.000  N
  N11      1.0000 0.67720  0.98838  0.07158  Biso   1.000  N
  N12      1.0000 0.17720  0.51162  0.92842  Biso   1.000  N
  N13      1.0000 0.67720  0.01162  0.57158  Biso   1.000  N
  N14      1.0000 0.17720  0.48838  0.42842  Biso   1.000  N
  N15      1.0000 0.32280  0.01162  0.92842  Biso   1.000  N
  N16      1.0000 0.82280  0.48838  0.07158  Biso   1.000  N
  H1       1.0000 0.45040  0.96127  0.44921  Biso   1.000  H
  H2       1.0000 0.95040  0.53873  0.55079  Biso   1.000  H
  H3       1.0000 0.54960  0.96127  0.05079  Biso   1.000  H
  H4       1.0000 0.04960  0.53873  0.94921  Biso   1.000  H
  H5       1.0000 0.54960  0.03873  0.55079  Biso   1.000  H
  H6       1.0000 0.04960  0.46127  0.44921  Biso   1.000  H
  H7       1.0000 0.45040  0.03873  0.94921  Biso   1.000  H
  H8       1.0000 0.95040  0.46127  0.05079  Biso   1.000  H
  C5       1.0000 0.26330  0.95306  0.37280  Biso   1.000  C
  C6       1.0000 0.76330  0.54694  0.62720  Biso   1.000  C
  C7       1.0000 0.73670  0.95306  0.12720  Biso   1.000  C
  C8       1.0000 0.23670  0.54694  0.87280  Biso   1.000  C
  C9       1.0000 0.73670  0.04694  0.62720  Biso   1.000  C
  C10      1.0000 0.23670  0.45306  0.37280  Biso   1.000  C
  C11      1.0000 0.26330  0.04694  0.87280  Biso   1.000  C
  C12      1.0000 0.76330  0.45306  0.12720  Biso   1.000  C
  H9       1.0000 0.36430  0.90104  0.35961  Biso   1.000  H
  H10      1.0000 0.86430  0.59896  0.64039  Biso   1.000  H
  H11      1.0000 0.63570  0.90104  0.14039  Biso   1.000  H
  H12      1.0000 0.13570  0.59896  0.85961  Biso   1.000  H
  H13      1.0000 0.63570  0.09896  0.64039  Biso   1.000  H
  H14      1.0000 0.13570  0.40104  0.35961  Biso   1.000  H
  H15      1.0000 0.36430  0.09896  0.85961  Biso   1.000  H
  H16      1.0000 0.86430  0.40104  0.14039  Biso   1.000  H
  C13      1.0000 0.19030  0.06477  0.45297  Biso   1.000  C
  C14      1.0000 0.69030  0.43523  0.54703  Biso   1.000  C
  C15      1.0000 0.80970  0.06477  0.04703  Biso   1.000  C
  C16      1.0000 0.30970  0.43523  0.95297  Biso   1.000  C
  C17      1.0000 0.80970  0.93523  0.54703  Biso   1.000  C
  C18      1.0000 0.30970  0.56477  0.45297  Biso   1.000  C
  C19      1.0000 0.19030  0.93523  0.95297  Biso   1.000  C
  C20      1.0000 0.69030  0.56477  0.04703  Biso   1.000  C
  C21      1.0000 0.98350  0.10696  0.41379  Biso   1.000  C
  C22      1.0000 0.48350  0.39304  0.58621  Biso   1.000  C
  C23      1.0000 0.01650  0.10696  0.08621  Biso   1.000  C
  C24      1.0000 0.51650  0.39304  0.91379  Biso   1.000  C
  C25      1.0000 0.01650  0.89304  0.58621  Biso   1.000  C
  C26      1.0000 0.51650  0.60696  0.41379  Biso   1.000  C
  C27      1.0000 0.98350  0.89304  0.91379  Biso   1.000  C
  C28      1.0000 0.48350  0.60696  0.08621  Biso   1.000  C
  C29      1.0000 0.83940  0.18816  0.43152  Biso   1.000  C
  C30      1.0000 0.33940  0.31184  0.56848  Biso   1.000  C
  C31      1.0000 0.16060  0.18816  0.06848  Biso   1.000  C
  C32      1.0000 0.66060  0.31184  0.93152  Biso   1.000  C
  C33      1.0000 0.16060  0.81184  0.56848  Biso   1.000  C
  C34      1.0000 0.66060  0.68816  0.43152  Biso   1.000  C
  C35      1.0000 0.83940  0.81184  0.93152  Biso   1.000  C
  C36      1.0000 0.33940  0.68816  0.06848  Biso   1.000  C
  H17      1.0000 0.87510  0.21592  0.46873  Biso   1.000  H
  H18      1.0000 0.37510  0.28408  0.53127  Biso   1.000  H
  H19      1.0000 0.12490  0.21592  0.03127  Biso   1.000  H
  H20      1.0000 0.62490  0.28408  0.96873  Biso   1.000  H
  H21      1.0000 0.12490  0.78408  0.53127  Biso   1.000  H
  H22      1.0000 0.62490  0.71592  0.46873  Biso   1.000  H
  H23      1.0000 0.87510  0.78408  0.96873  Biso   1.000  H
  H24      1.0000 0.37510  0.71592  0.03127  Biso   1.000  H
  C37      1.0000 0.64500  0.22660  0.39362  Biso   1.000  C
  C38      1.0000 0.14500  0.27340  0.60638  Biso   1.000  C
  C39      1.0000 0.35500  0.22660  0.10638  Biso   1.000  C
  C40      1.0000 0.85500  0.27340  0.89362  Biso   1.000  C
  C41      1.0000 0.35500  0.77340  0.60638  Biso   1.000  C
  C42      1.0000 0.85500  0.72660  0.39362  Biso   1.000  C
  C43      1.0000 0.64500  0.77340  0.89362  Biso   1.000  C
  C44      1.0000 0.14500  0.72660  0.10638  Biso   1.000  C
  H25      1.0000 0.54890  0.28060  0.40525  Biso   1.000  H
  H26      1.0000 0.04890  0.21940  0.59475  Biso   1.000  H
  H27      1.0000 0.45110  0.28060  0.09475  Biso   1.000  H
  H28      1.0000 0.95110  0.21940  0.90525  Biso   1.000  H
  H29      1.0000 0.45110  0.71940  0.59475  Biso   1.000  H
  H30      1.0000 0.95110  0.78060  0.40525  Biso   1.000  H
  H31      1.0000 0.54890  0.71940  0.90525  Biso   1.000  H
  H32      1.0000 0.04890  0.78060  0.09475  Biso   1.000  H
  C45      1.0000 0.59060  0.18520  0.33784  Biso   1.000  C
  C46      1.0000 0.09060  0.31480  0.66216  Biso   1.000  C
  C47      1.0000 0.40940  0.18520  0.16216  Biso   1.000  C
  C48      1.0000 0.90940  0.31480  0.83784  Biso   1.000  C
  C49      1.0000 0.40940  0.81480  0.66216  Biso   1.000  C
  C50      1.0000 0.90940  0.68520  0.33784  Biso   1.000  C
  C51      1.0000 0.59060  0.81480  0.83784  Biso   1.000  C
  C52      1.0000 0.09060  0.68520  0.16216  Biso   1.000  C
  H33      1.0000 0.45640  0.21140  0.31284  Biso   1.000  H
  H34      1.0000 0.95640  0.28860  0.68716  Biso   1.000  H
  H35      1.0000 0.54360  0.21140  0.18716  Biso   1.000  H
  H36      1.0000 0.04360  0.28860  0.81284  Biso   1.000  H
  H37      1.0000 0.54360  0.78860  0.68716  Biso   1.000  H
  H38      1.0000 0.04360  0.71140  0.31284  Biso   1.000  H
  H39      1.0000 0.45640  0.78860  0.81284  Biso   1.000  H
  H40      1.0000 0.95640  0.71140  0.18716  Biso   1.000  H
  C53      1.0000 0.73320  0.10610  0.31934  Biso   1.000  C
  C54      1.0000 0.23320  0.39390  0.68066  Biso   1.000  C
  C55      1.0000 0.26680  0.10610  0.18066  Biso   1.000  C
  C56      1.0000 0.76680  0.39390  0.81934  Biso   1.000  C
  C57      1.0000 0.26680  0.89390  0.68066  Biso   1.000  C
  C58      1.0000 0.76680  0.60610  0.31934  Biso   1.000  C
  C59      1.0000 0.73320  0.89390  0.81934  Biso   1.000  C
  C60      1.0000 0.23320  0.60610  0.18066  Biso   1.000  C
  H41      1.0000 0.69730  0.07952  0.28180  Biso   1.000  H
  H42      1.0000 0.19730  0.42048  0.71820  Biso   1.000  H
  H43      1.0000 0.30270  0.07952  0.21820  Biso   1.000  H
  H44      1.0000 0.80270  0.42048  0.78180  Biso   1.000  H
  H45      1.0000 0.30270  0.92048  0.71820  Biso   1.000  H
  H46      1.0000 0.80270  0.57952  0.28180  Biso   1.000  H
  H47      1.0000 0.69730  0.92048  0.78180  Biso   1.000  H
  H48      1.0000 0.19730  0.57952  0.21820  Biso   1.000  H
  C61      1.0000 0.93190  0.06592  0.35716  Biso   1.000  C
  C62      1.0000 0.43190  0.43408  0.64284  Biso   1.000  C
  C63      1.0000 0.06810  0.06592  0.14284  Biso   1.000  C
  C64      1.0000 0.56810  0.43408  0.85716  Biso   1.000  C
  C65      1.0000 0.06810  0.93408  0.64284  Biso   1.000  C
  C66      1.0000 0.56810  0.56592  0.35716  Biso   1.000  C
  C67      1.0000 0.93190  0.93408  0.85716  Biso   1.000  C
  C68      1.0000 0.43190  0.56592  0.14284  Biso   1.000  C
  Cu1      1.0000 0.00000  0.89623  0.25000  Biso   1.000  Cu
  Cu2      1.0000 0.50000  0.60377  0.75000  Biso   1.000  Cu
  Cu3      1.0000 0.00000  0.10377  0.75000  Biso   1.000  Cu
  Cu4      1.0000 0.50000  0.39623  0.25000  Biso   1.000  Cu
  N17      1.0000 0.62040  0.85936  0.25153  Biso   1.000  N
  N18      1.0000 0.12040  0.64064  0.74847  Biso   1.000  N
  N19      1.0000 0.37960  0.85936  0.24847  Biso   1.000  N
  N20      1.0000 0.87960  0.64064  0.75153  Biso   1.000  N
  N21      1.0000 0.37960  0.14064  0.74847  Biso   1.000  N
  N22      1.0000 0.87960  0.35936  0.25153  Biso   1.000  N
  N23      1.0000 0.62040  0.14064  0.75153  Biso   1.000  N
  N24      1.0000 0.12040  0.35936  0.24847  Biso   1.000  N
