data_image0
_cell_length_a       3.853
_cell_length_b       7.368
_cell_length_c       29.04
_cell_angle_alpha    90
_cell_angle_beta     93.19
_cell_angle_gamma    90

_symmetry_space_group_name_H-M    "P 1"
_symmetry_int_tables_number       1

loop_
  _symmetry_equiv_pos_as_xyz
  'x, y, z'

loop_
  _atom_site_label
  _atom_site_occupancy
  _atom_site_fract_x
  _atom_site_fract_y
  _atom_site_fract_z
  _atom_site_thermal_displace_type
  _atom_site_B_iso_or_equiv
  _atom_site_type_symbol
  Cu1      1.0000 0.72770  0.59768  0.47331  Biso   1.000  Cu
  Cu2      1.0000 0.27230  0.09768  0.02669  Biso   1.000  Cu
  Cu3      1.0000 0.27230  0.40232  0.52669  Biso   1.000  Cu
  Cu4      1.0000 0.72770  0.90232  0.97331  Biso   1.000  Cu
  Br1      1.0000 0.76853  0.25393  0.48666  Biso   1.000  Br
  Br2      1.0000 0.23147  0.75393  0.01334  Biso   1.000  Br
  Br3      1.0000 0.23147  0.74607  0.51334  Biso   1.000  Br
  Br4      1.0000 0.76853  0.24607  0.98666  Biso   1.000  Br
  O1       1.0000 0.08200  0.34820  0.27390  Biso   1.000  O
  O2       1.0000 0.91800  0.84820  0.22610  Biso   1.000  O
  O3       1.0000 0.91800  0.65180  0.72610  Biso   1.000  O
  O4       1.0000 0.08200  0.15180  0.77390  Biso   1.000  O
  O5       1.0000 0.11100  0.20620  0.33820  Biso   1.000  O
  O6       1.0000 0.88900  0.70620  0.16180  Biso   1.000  O
  O7       1.0000 0.88900  0.79380  0.66180  Biso   1.000  O
  O8       1.0000 0.11100  0.29380  0.83820  Biso   1.000  O
  C1       1.0000 0.68000  0.77610  0.38020  Biso   1.000  C
  C2       1.0000 0.32000  0.27610  0.11980  Biso   1.000  C
  C3       1.0000 0.32000  0.22390  0.61980  Biso   1.000  C
  C4       1.0000 0.68000  0.72390  0.88020  Biso   1.000  C
  C5       1.0000 0.58300  0.78830  0.33240  Biso   1.000  C
  C6       1.0000 0.41700  0.28830  0.16760  Biso   1.000  C
  C7       1.0000 0.41700  0.21170  0.66760  Biso   1.000  C
  C8       1.0000 0.58300  0.71170  0.83240  Biso   1.000  C
  H1       1.0000 0.63240  0.89290  0.31610  Biso   1.000  H
  H2       1.0000 0.36760  0.39290  0.18390  Biso   1.000  H
  H3       1.0000 0.36760  0.10710  0.68390  Biso   1.000  H
  H4       1.0000 0.63240  0.60710  0.81610  Biso   1.000  H
  C9       1.0000 0.41800  0.64530  0.31040  Biso   1.000  C
  C10      1.0000 0.58200  0.14530  0.18960  Biso   1.000  C
  C11      1.0000 0.58200  0.35470  0.68960  Biso   1.000  C
  C12      1.0000 0.41800  0.85470  0.81040  Biso   1.000  C
  H5       1.0000 0.35390  0.65120  0.27910  Biso   1.000  H
  H6       1.0000 0.64610  0.15120  0.22090  Biso   1.000  H
  H7       1.0000 0.64610  0.34880  0.72090  Biso   1.000  H
  H8       1.0000 0.35390  0.84880  0.77910  Biso   1.000  H
  C13      1.0000 0.34760  0.49280  0.33570  Biso   1.000  C
  C14      1.0000 0.65240  0.99280  0.16430  Biso   1.000  C
  C15      1.0000 0.65240  0.50720  0.66430  Biso   1.000  C
  C16      1.0000 0.34760  0.00720  0.83570  Biso   1.000  C
  C17      1.0000 0.44740  0.48590  0.38250  Biso   1.000  C
  C18      1.0000 0.55260  0.98590  0.11750  Biso   1.000  C
  C19      1.0000 0.55260  0.51410  0.61750  Biso   1.000  C
  C20      1.0000 0.44740  0.01410  0.88250  Biso   1.000  C
  H9       1.0000 0.39970  0.38160  0.39900  Biso   1.000  H
  H10      1.0000 0.60030  0.88160  0.10100  Biso   1.000  H
  H11      1.0000 0.60030  0.61840  0.60100  Biso   1.000  H
  H12      1.0000 0.39970  0.11840  0.89900  Biso   1.000  H
  N1       1.0000 0.60900  0.62360  0.40437  Biso   1.000  N
  N2       1.0000 0.39100  0.12360  0.09563  Biso   1.000  N
  N3       1.0000 0.39100  0.37640  0.59563  Biso   1.000  N
  N4       1.0000 0.60900  0.87640  0.90437  Biso   1.000  N
  N5       1.0000 0.83560  0.91060  0.40260  Biso   1.000  N
  N6       1.0000 0.16440  0.41060  0.09740  Biso   1.000  N
  N7       1.0000 0.16440  0.08940  0.59740  Biso   1.000  N
  N8       1.0000 0.83560  0.58940  0.90260  Biso   1.000  N
  H13      1.0000 0.88910  0.90050  0.43170  Biso   1.000  H
  H14      1.0000 0.11090  0.40050  0.06830  Biso   1.000  H
  H15      1.0000 0.11090  0.09950  0.56830  Biso   1.000  H
  H16      1.0000 0.88910  0.59950  0.93170  Biso   1.000  H
  H17      1.0000 0.88390  0.00870  0.38830  Biso   1.000  H
  H18      1.0000 0.11610  0.50870  0.11170  Biso   1.000  H
  H19      1.0000 0.11610  0.99130  0.61170  Biso   1.000  H
  H20      1.0000 0.88390  0.49130  0.88830  Biso   1.000  H
  N9       1.0000 0.17400  0.33830  0.31450  Biso   1.000  N
  N10      1.0000 0.82600  0.83830  0.18550  Biso   1.000  N
  N11      1.0000 0.82600  0.66170  0.68550  Biso   1.000  N
  N12      1.0000 0.17400  0.16170  0.81450  Biso   1.000  N
