data_image0
_cell_length_a       6.6452
_cell_length_b       5.9594
_cell_length_c       12.601
_cell_angle_alpha    90
_cell_angle_beta     90.327
_cell_angle_gamma    90

_symmetry_space_group_name_H-M    "P 1"
_symmetry_int_tables_number       1

loop_
  _symmetry_equiv_pos_as_xyz
  'x, y, z'

loop_
  _atom_site_label
  _atom_site_occupancy
  _atom_site_fract_x
  _atom_site_fract_y
  _atom_site_fract_z
  _atom_site_thermal_displace_type
  _atom_site_B_iso_or_equiv
  _atom_site_type_symbol
  Cu1      1.0000 0.50000  0.28380  0.50000  Biso   1.000  Cu
  Cu2      1.0000 0.50000  0.71620  0.50000  Biso   1.000  Cu
  Cu3      1.0000 0.00000  0.28370  0.00000  Biso   1.000  Cu
  Cu4      1.0000 0.00000  0.71630  0.00000  Biso   1.000  Cu
  Cu5      1.0000 0.44930  0.50000  0.13251  Biso   1.000  Cu
  Cu6      1.0000 0.55070  0.50000  0.86749  Biso   1.000  Cu
  Cu7      1.0000 0.94630  0.50000  0.36713  Biso   1.000  Cu
  Cu8      1.0000 0.05370  0.50000  0.63287  Biso   1.000  Cu
  Br1      1.0000 0.84260  0.50000  0.14825  Biso   1.000  Br
  Br2      1.0000 0.15740  0.50000  0.85175  Biso   1.000  Br
  Br3      1.0000 0.34060  0.50000  0.35172  Biso   1.000  Br
  Br4      1.0000 0.65940  0.50000  0.64828  Biso   1.000  Br
  N1       1.0000 0.72050  0.11060  0.43090  Biso   1.000  N
  N2       1.0000 0.27950  0.11060  0.56910  Biso   1.000  N
  N3       1.0000 0.27950  0.88940  0.56910  Biso   1.000  N
  N4       1.0000 0.72050  0.88940  0.43090  Biso   1.000  N
  N5       1.0000 0.88850  0.18280  0.38450  Biso   1.000  N
  N6       1.0000 0.11150  0.18280  0.61550  Biso   1.000  N
  N7       1.0000 0.11150  0.81720  0.61550  Biso   1.000  N
  N8       1.0000 0.88850  0.81720  0.38450  Biso   1.000  N
  N9       1.0000 0.22230  0.10930  0.06900  Biso   1.000  N
  N10      1.0000 0.77770  0.10930  0.93100  Biso   1.000  N
  N11      1.0000 0.77770  0.89070  0.93100  Biso   1.000  N
  N12      1.0000 0.22230  0.89070  0.06900  Biso   1.000  N
  N13      1.0000 0.38940  0.18260  0.11460  Biso   1.000  N
  N14      1.0000 0.61060  0.18260  0.88540  Biso   1.000  N
  N15      1.0000 0.61060  0.81740  0.88540  Biso   1.000  N
  N16      1.0000 0.38940  0.81740  0.11460  Biso   1.000  N
  C1       1.0000 0.98700  0.00000  0.35710  Biso   1.000  C
  C2       1.0000 0.01300  0.00000  0.64290  Biso   1.000  C
  H1       1.0000 0.11060  0.00000  0.32280  Biso   1.000  H
  H2       1.0000 0.88940  0.00000  0.67720  Biso   1.000  H
  C3       1.0000 0.49100  0.00000  0.14240  Biso   1.000  C
  C4       1.0000 0.50900  0.00000  0.85760  Biso   1.000  C
  H3       1.0000 0.61490  0.00000  0.17670  Biso   1.000  H
  H4       1.0000 0.38510  0.00000  0.82330  Biso   1.000  H
