data_image0
_cell_length_a       12.856
_cell_length_b       11.714
_cell_length_c       13.035
_cell_angle_alpha    90
_cell_angle_beta     90
_cell_angle_gamma    90

_symmetry_space_group_name_H-M    "P 1"
_symmetry_int_tables_number       1

loop_
  _symmetry_equiv_pos_as_xyz
  'x, y, z'

loop_
  _atom_site_label
  _atom_site_occupancy
  _atom_site_fract_x
  _atom_site_fract_y
  _atom_site_fract_z
  _atom_site_thermal_displace_type
  _atom_site_B_iso_or_equiv
  _atom_site_type_symbol
  Cu1      1.0000 0.11783  0.76719  0.34780  Biso   1.000  Cu
  Cu2      1.0000 0.38217  0.23281  0.84780  Biso   1.000  Cu
  Cu3      1.0000 0.61783  0.73281  0.65220  Biso   1.000  Cu
  Cu4      1.0000 0.88217  0.26719  0.15220  Biso   1.000  Cu
  Cu5      1.0000 0.88217  0.23281  0.65220  Biso   1.000  Cu
  Cu6      1.0000 0.61783  0.76719  0.15220  Biso   1.000  Cu
  Cu7      1.0000 0.38217  0.26719  0.34780  Biso   1.000  Cu
  Cu8      1.0000 0.11783  0.73281  0.84780  Biso   1.000  Cu
  Cu9      1.0000 0.11513  0.26913  0.39145  Biso   1.000  Cu
  Cu10     1.0000 0.38487  0.73087  0.89145  Biso   1.000  Cu
  Cu11     1.0000 0.61513  0.23087  0.60855  Biso   1.000  Cu
  Cu12     1.0000 0.88487  0.76913  0.10855  Biso   1.000  Cu
  Cu13     1.0000 0.88487  0.73087  0.60855  Biso   1.000  Cu
  Cu14     1.0000 0.61513  0.26913  0.10855  Biso   1.000  Cu
  Cu15     1.0000 0.38487  0.76913  0.39145  Biso   1.000  Cu
  Cu16     1.0000 0.11513  0.23087  0.89145  Biso   1.000  Cu
  Cu17     1.0000 0.30095  0.85280  0.12617  Biso   1.000  Cu
  Cu18     1.0000 0.19905  0.14720  0.62617  Biso   1.000  Cu
  Cu19     1.0000 0.80095  0.64720  0.87383  Biso   1.000  Cu
  Cu20     1.0000 0.69905  0.35280  0.37383  Biso   1.000  Cu
  Cu21     1.0000 0.69905  0.14720  0.87383  Biso   1.000  Cu
  Cu22     1.0000 0.80095  0.85280  0.37383  Biso   1.000  Cu
  Cu23     1.0000 0.19905  0.35280  0.12617  Biso   1.000  Cu
  Cu24     1.0000 0.30095  0.64720  0.62617  Biso   1.000  Cu
  Cu25     1.0000 0.19996  0.64716  0.10653  Biso   1.000  Cu
  Cu26     1.0000 0.30004  0.35284  0.60653  Biso   1.000  Cu
  Cu27     1.0000 0.69996  0.85284  0.89347  Biso   1.000  Cu
  Cu28     1.0000 0.80004  0.14716  0.39347  Biso   1.000  Cu
  Cu29     1.0000 0.80004  0.35284  0.89347  Biso   1.000  Cu
  Cu30     1.0000 0.69996  0.64716  0.39347  Biso   1.000  Cu
  Cu31     1.0000 0.30004  0.14716  0.10653  Biso   1.000  Cu
  Cu32     1.0000 0.19996  0.85284  0.60653  Biso   1.000  Cu
  Br1      1.0000 0.10787  0.32688  0.60276  Biso   1.000  Br
  Br2      1.0000 0.39213  0.67312  0.10276  Biso   1.000  Br
  Br3      1.0000 0.60787  0.17312  0.39724  Biso   1.000  Br
  Br4      1.0000 0.89213  0.82688  0.89724  Biso   1.000  Br
  Br5      1.0000 0.89213  0.67312  0.39724  Biso   1.000  Br
  Br6      1.0000 0.60787  0.32688  0.89724  Biso   1.000  Br
  Br7      1.0000 0.39213  0.82688  0.60276  Biso   1.000  Br
  Br8      1.0000 0.10787  0.17312  0.10276  Biso   1.000  Br
  Br9      1.0000 0.10625  0.82557  0.13537  Biso   1.000  Br
  Br10     1.0000 0.39375  0.17443  0.63537  Biso   1.000  Br
  Br11     1.0000 0.60625  0.67443  0.86463  Biso   1.000  Br
  Br12     1.0000 0.89375  0.32557  0.36463  Biso   1.000  Br
  Br13     1.0000 0.89375  0.17443  0.86463  Biso   1.000  Br
  Br14     1.0000 0.60625  0.82557  0.36463  Biso   1.000  Br
  Br15     1.0000 0.39375  0.32557  0.13537  Biso   1.000  Br
  Br16     1.0000 0.10625  0.67443  0.63537  Biso   1.000  Br
  C1       1.0000 0.09790  0.02000  0.34860  Biso   1.000  C
  C2       1.0000 0.40210  0.98000  0.84860  Biso   1.000  C
  C3       1.0000 0.59790  0.48000  0.65140  Biso   1.000  C
  C4       1.0000 0.90210  0.52000  0.15140  Biso   1.000  C
  C5       1.0000 0.90210  0.98000  0.65140  Biso   1.000  C
  C6       1.0000 0.59790  0.02000  0.15140  Biso   1.000  C
  C7       1.0000 0.40210  0.52000  0.34860  Biso   1.000  C
  C8       1.0000 0.09790  0.48000  0.84860  Biso   1.000  C
  H1       1.0000 0.07450  0.02660  0.28130  Biso   1.000  H
  H2       1.0000 0.42550  0.97340  0.78130  Biso   1.000  H
  H3       1.0000 0.57450  0.47340  0.71870  Biso   1.000  H
  H4       1.0000 0.92550  0.52660  0.21870  Biso   1.000  H
  H5       1.0000 0.92550  0.97340  0.71870  Biso   1.000  H
  H6       1.0000 0.57450  0.02660  0.21870  Biso   1.000  H
  H7       1.0000 0.42550  0.52660  0.28130  Biso   1.000  H
  H8       1.0000 0.07450  0.47340  0.78130  Biso   1.000  H
  C9       1.0000 0.12400  0.52000  0.39230  Biso   1.000  C
  C10      1.0000 0.37600  0.48000  0.89230  Biso   1.000  C
  C11      1.0000 0.62400  0.98000  0.60770  Biso   1.000  C
  C12      1.0000 0.87600  0.02000  0.10770  Biso   1.000  C
  C13      1.0000 0.87600  0.48000  0.60770  Biso   1.000  C
  C14      1.0000 0.62400  0.52000  0.10770  Biso   1.000  C
  C15      1.0000 0.37600  0.02000  0.39230  Biso   1.000  C
  C16      1.0000 0.12400  0.98000  0.89230  Biso   1.000  C
  H9       1.0000 0.10550  0.52650  0.46100  Biso   1.000  H
  H10      1.0000 0.39450  0.47350  0.96100  Biso   1.000  H
  H11      1.0000 0.60550  0.97350  0.53900  Biso   1.000  H
  H12      1.0000 0.89450  0.02650  0.03900  Biso   1.000  H
  H13      1.0000 0.89450  0.47350  0.53900  Biso   1.000  H
  H14      1.0000 0.60550  0.52650  0.03900  Biso   1.000  H
  H15      1.0000 0.39450  0.02650  0.46100  Biso   1.000  H
  H16      1.0000 0.10550  0.97350  0.96100  Biso   1.000  H
  N1       1.0000 0.11790  0.10690  0.40940  Biso   1.000  N
  N2       1.0000 0.38210  0.89310  0.90940  Biso   1.000  N
  N3       1.0000 0.61790  0.39310  0.59060  Biso   1.000  N
  N4       1.0000 0.88210  0.60690  0.09060  Biso   1.000  N
  N5       1.0000 0.88210  0.89310  0.59060  Biso   1.000  N
  N6       1.0000 0.61790  0.10690  0.09060  Biso   1.000  N
  N7       1.0000 0.38210  0.60690  0.40940  Biso   1.000  N
  N8       1.0000 0.11790  0.39310  0.90940  Biso   1.000  N
  N9       1.0000 0.15130  0.06130  0.49760  Biso   1.000  N
  N10      1.0000 0.34870  0.93870  0.99760  Biso   1.000  N
  N11      1.0000 0.65130  0.43870  0.50240  Biso   1.000  N
  N12      1.0000 0.84870  0.56130  0.00240  Biso   1.000  N
  N13      1.0000 0.84870  0.93870  0.50240  Biso   1.000  N
  N14      1.0000 0.65130  0.06130  0.00240  Biso   1.000  N
  N15      1.0000 0.34870  0.56130  0.49760  Biso   1.000  N
  N16      1.0000 0.15130  0.43870  0.99760  Biso   1.000  N
  N17      1.0000 0.14940  0.95010  0.48990  Biso   1.000  N
  N18      1.0000 0.35060  0.04990  0.98990  Biso   1.000  N
  N19      1.0000 0.64940  0.54990  0.51010  Biso   1.000  N
  N20      1.0000 0.85060  0.45010  0.01010  Biso   1.000  N
  N21      1.0000 0.85060  0.04990  0.51010  Biso   1.000  N
  N22      1.0000 0.64940  0.95010  0.01010  Biso   1.000  N
  N23      1.0000 0.35060  0.45010  0.48990  Biso   1.000  N
  N24      1.0000 0.14940  0.54990  0.98990  Biso   1.000  N
  N25      1.0000 0.11590  0.92070  0.39640  Biso   1.000  N
  N26      1.0000 0.38410  0.07930  0.89640  Biso   1.000  N
  N27      1.0000 0.61590  0.57930  0.60360  Biso   1.000  N
  N28      1.0000 0.88410  0.42070  0.10360  Biso   1.000  N
  N29      1.0000 0.88410  0.07930  0.60360  Biso   1.000  N
  N30      1.0000 0.61590  0.92070  0.10360  Biso   1.000  N
  N31      1.0000 0.38410  0.42070  0.39640  Biso   1.000  N
  N32      1.0000 0.11590  0.57930  0.89640  Biso   1.000  N
  N33      1.0000 0.13950  0.60800  0.32940  Biso   1.000  N
  N34      1.0000 0.36050  0.39200  0.82940  Biso   1.000  N
  N35      1.0000 0.63950  0.89200  0.67060  Biso   1.000  N
  N36      1.0000 0.86050  0.10800  0.17060  Biso   1.000  N
  N37      1.0000 0.86050  0.39200  0.67060  Biso   1.000  N
  N38      1.0000 0.63950  0.60800  0.17060  Biso   1.000  N
  N39      1.0000 0.36050  0.10800  0.32940  Biso   1.000  N
  N40      1.0000 0.13950  0.89200  0.82940  Biso   1.000  N
  N41      1.0000 0.16470  0.56170  0.23880  Biso   1.000  N
  N42      1.0000 0.33530  0.43830  0.73880  Biso   1.000  N
  N43      1.0000 0.66470  0.93830  0.76120  Biso   1.000  N
  N44      1.0000 0.83530  0.06170  0.26120  Biso   1.000  N
  N45      1.0000 0.83530  0.43830  0.76120  Biso   1.000  N
  N46      1.0000 0.66470  0.56170  0.26120  Biso   1.000  N
  N47      1.0000 0.33530  0.06170  0.23880  Biso   1.000  N
  N48      1.0000 0.16470  0.93830  0.73880  Biso   1.000  N
  N49      1.0000 0.16410  0.45050  0.24690  Biso   1.000  N
  N50      1.0000 0.33590  0.54950  0.74690  Biso   1.000  N
  N51      1.0000 0.66410  0.04950  0.75310  Biso   1.000  N
  N52      1.0000 0.83590  0.95050  0.25310  Biso   1.000  N
  N53      1.0000 0.83590  0.54950  0.75310  Biso   1.000  N
  N54      1.0000 0.66410  0.45050  0.25310  Biso   1.000  N
  N55      1.0000 0.33590  0.95050  0.24690  Biso   1.000  N
  N56      1.0000 0.16410  0.04950  0.74690  Biso   1.000  N
  N57      1.0000 0.13870  0.42230  0.34360  Biso   1.000  N
  N58      1.0000 0.36130  0.57770  0.84360  Biso   1.000  N
  N59      1.0000 0.63870  0.07770  0.65640  Biso   1.000  N
  N60      1.0000 0.86130  0.92230  0.15640  Biso   1.000  N
  N61      1.0000 0.86130  0.57770  0.65640  Biso   1.000  N
  N62      1.0000 0.63870  0.42230  0.15640  Biso   1.000  N
  N63      1.0000 0.36130  0.92230  0.34360  Biso   1.000  N
  N64      1.0000 0.13870  0.07770  0.84360  Biso   1.000  N
