data_image0
_cell_length_a       9.922
_cell_length_b       9.922
_cell_length_c       20.165
_cell_angle_alpha    90
_cell_angle_beta     90
_cell_angle_gamma    90

_symmetry_space_group_name_H-M    "P 1"
_symmetry_int_tables_number       1

loop_
  _symmetry_equiv_pos_as_xyz
  'x, y, z'

loop_
  _atom_site_label
  _atom_site_occupancy
  _atom_site_fract_x
  _atom_site_fract_y
  _atom_site_fract_z
  _atom_site_thermal_displace_type
  _atom_site_B_iso_or_equiv
  _atom_site_type_symbol
  Cu1      1.0000 0.00000  0.75000  0.05507  Biso   1.000  Cu
  Cu2      1.0000 0.50000  0.25000  0.55507  Biso   1.000  Cu
  Cu3      1.0000 0.00000  0.25000  0.30507  Biso   1.000  Cu
  Cu4      1.0000 0.50000  0.75000  0.80507  Biso   1.000  Cu
  Cu5      1.0000 0.00000  0.25000  0.94493  Biso   1.000  Cu
  Cu6      1.0000 0.50000  0.75000  0.44493  Biso   1.000  Cu
  Cu7      1.0000 0.50000  0.25000  0.19493  Biso   1.000  Cu
  Cu8      1.0000 0.00000  0.75000  0.69493  Biso   1.000  Cu
  Cu9      1.0000 0.02983  0.48535  0.16252  Biso   1.000  Cu
  Cu10     1.0000 0.47017  0.51465  0.66252  Biso   1.000  Cu
  Cu11     1.0000 0.26465  0.27983  0.41252  Biso   1.000  Cu
  Cu12     1.0000 0.23535  0.72017  0.91252  Biso   1.000  Cu
  Cu13     1.0000 0.52983  0.98535  0.66252  Biso   1.000  Cu
  Cu14     1.0000 0.97017  0.01465  0.16252  Biso   1.000  Cu
  Cu15     1.0000 0.76465  0.77983  0.91252  Biso   1.000  Cu
  Cu16     1.0000 0.73535  0.22017  0.41252  Biso   1.000  Cu
  Cu17     1.0000 0.97017  0.51465  0.83748  Biso   1.000  Cu
  Cu18     1.0000 0.52983  0.48535  0.33748  Biso   1.000  Cu
  Cu19     1.0000 0.23535  0.22017  0.08748  Biso   1.000  Cu
  Cu20     1.0000 0.26465  0.77983  0.58748  Biso   1.000  Cu
  Cu21     1.0000 0.47017  0.01465  0.33748  Biso   1.000  Cu
  Cu22     1.0000 0.02983  0.98535  0.83748  Biso   1.000  Cu
  Cu23     1.0000 0.73535  0.72017  0.58748  Biso   1.000  Cu
  Cu24     1.0000 0.76465  0.27983  0.08748  Biso   1.000  Cu
  Cl1      1.0000 0.00000  0.75000  0.17146  Biso   1.000  Cl
  Cl2      1.0000 0.50000  0.25000  0.67146  Biso   1.000  Cl
  Cl3      1.0000 0.00000  0.25000  0.42146  Biso   1.000  Cl
  Cl4      1.0000 0.50000  0.75000  0.92146  Biso   1.000  Cl
  Cl5      1.0000 0.00000  0.25000  0.82854  Biso   1.000  Cl
  Cl6      1.0000 0.50000  0.75000  0.32854  Biso   1.000  Cl
  Cl7      1.0000 0.50000  0.25000  0.07854  Biso   1.000  Cl
  Cl8      1.0000 0.00000  0.75000  0.57854  Biso   1.000  Cl
  N1       1.0000 0.19160  0.57510  0.98201  Biso   1.000  N
  N2       1.0000 0.30840  0.42490  0.48201  Biso   1.000  N
  N3       1.0000 0.17490  0.44160  0.23201  Biso   1.000  N
  N4       1.0000 0.32510  0.55840  0.73201  Biso   1.000  N
  N5       1.0000 0.69160  0.07510  0.48201  Biso   1.000  N
  N6       1.0000 0.80840  0.92490  0.98201  Biso   1.000  N
  N7       1.0000 0.67490  0.94160  0.73201  Biso   1.000  N
  N8       1.0000 0.82510  0.05840  0.23201  Biso   1.000  N
  N9       1.0000 0.80840  0.42490  0.01799  Biso   1.000  N
  N10      1.0000 0.69160  0.57510  0.51799  Biso   1.000  N
  N11      1.0000 0.32510  0.05840  0.26799  Biso   1.000  N
  N12      1.0000 0.17490  0.94160  0.76799  Biso   1.000  N
  N13      1.0000 0.30840  0.92490  0.51799  Biso   1.000  N
  N14      1.0000 0.19160  0.07510  0.01799  Biso   1.000  N
  N15      1.0000 0.82510  0.55840  0.76799  Biso   1.000  N
  N16      1.0000 0.67490  0.44160  0.26799  Biso   1.000  N
  N17      1.0000 0.11070  0.59621  0.03449  Biso   1.000  N
  N18      1.0000 0.38930  0.40379  0.53449  Biso   1.000  N
  N19      1.0000 0.15379  0.36070  0.28449  Biso   1.000  N
  N20      1.0000 0.34621  0.63930  0.78449  Biso   1.000  N
  N21      1.0000 0.61070  0.09621  0.53449  Biso   1.000  N
  N22      1.0000 0.88930  0.90379  0.03449  Biso   1.000  N
  N23      1.0000 0.65379  0.86070  0.78449  Biso   1.000  N
  N24      1.0000 0.84621  0.13930  0.28449  Biso   1.000  N
  N25      1.0000 0.88930  0.40379  0.96551  Biso   1.000  N
  N26      1.0000 0.61070  0.59621  0.46551  Biso   1.000  N
  N27      1.0000 0.34621  0.13930  0.21551  Biso   1.000  N
  N28      1.0000 0.15379  0.86070  0.71551  Biso   1.000  N
  N29      1.0000 0.38930  0.90379  0.46551  Biso   1.000  N
  N30      1.0000 0.11070  0.09621  0.96551  Biso   1.000  N
  N31      1.0000 0.84621  0.63930  0.71551  Biso   1.000  N
  N32      1.0000 0.65379  0.36070  0.21551  Biso   1.000  N
  N33      1.0000 0.11316  0.49019  0.07363  Biso   1.000  N
  N34      1.0000 0.38684  0.50981  0.57363  Biso   1.000  N
  N35      1.0000 0.25981  0.36316  0.32363  Biso   1.000  N
  N36      1.0000 0.24019  0.63684  0.82363  Biso   1.000  N
  N37      1.0000 0.61316  0.99019  0.57363  Biso   1.000  N
  N38      1.0000 0.88684  0.00981  0.07363  Biso   1.000  N
  N39      1.0000 0.75981  0.86316  0.82363  Biso   1.000  N
  N40      1.0000 0.74019  0.13684  0.32363  Biso   1.000  N
  N41      1.0000 0.88684  0.50981  0.92637  Biso   1.000  N
  N42      1.0000 0.61316  0.49019  0.42637  Biso   1.000  N
  N43      1.0000 0.24019  0.13684  0.17637  Biso   1.000  N
  N44      1.0000 0.25981  0.86316  0.67637  Biso   1.000  N
  N45      1.0000 0.38684  0.00981  0.42637  Biso   1.000  N
  N46      1.0000 0.11316  0.99019  0.92637  Biso   1.000  N
  N47      1.0000 0.74019  0.63684  0.67637  Biso   1.000  N
  N48      1.0000 0.75981  0.36316  0.17637  Biso   1.000  N
  N49      1.0000 0.19550  0.39736  0.04690  Biso   1.000  N
  N50      1.0000 0.30450  0.60264  0.54690  Biso   1.000  N
  N51      1.0000 0.35264  0.44550  0.29690  Biso   1.000  N
  N52      1.0000 0.14736  0.55450  0.79690  Biso   1.000  N
  N53      1.0000 0.69550  0.89736  0.54690  Biso   1.000  N
  N54      1.0000 0.80450  0.10264  0.04690  Biso   1.000  N
  N55      1.0000 0.85264  0.94550  0.79690  Biso   1.000  N
  N56      1.0000 0.64736  0.05450  0.29690  Biso   1.000  N
  N57      1.0000 0.80450  0.60264  0.95310  Biso   1.000  N
  N58      1.0000 0.69550  0.39736  0.45310  Biso   1.000  N
  N59      1.0000 0.14736  0.05450  0.20310  Biso   1.000  N
  N60      1.0000 0.35264  0.94550  0.70310  Biso   1.000  N
  N61      1.0000 0.30450  0.10264  0.45310  Biso   1.000  N
  N62      1.0000 0.19550  0.89736  0.95310  Biso   1.000  N
  N63      1.0000 0.64736  0.55450  0.70310  Biso   1.000  N
  N64      1.0000 0.85264  0.44550  0.20310  Biso   1.000  N
  C1       1.0000 0.33490  0.38620  0.94213  Biso   1.000  C
  C2       1.0000 0.16510  0.61380  0.44213  Biso   1.000  C
  C3       1.0000 0.36380  0.58490  0.19213  Biso   1.000  C
  C4       1.0000 0.13620  0.41510  0.69213  Biso   1.000  C
  C5       1.0000 0.83490  0.88620  0.44213  Biso   1.000  C
  C6       1.0000 0.66510  0.11380  0.94213  Biso   1.000  C
  C7       1.0000 0.86380  0.08490  0.69213  Biso   1.000  C
  C8       1.0000 0.63620  0.91510  0.19213  Biso   1.000  C
  C9       1.0000 0.66510  0.61380  0.05787  Biso   1.000  C
  C10      1.0000 0.83490  0.38620  0.55787  Biso   1.000  C
  C11      1.0000 0.13620  0.91510  0.30787  Biso   1.000  C
  C12      1.0000 0.36380  0.08490  0.80787  Biso   1.000  C
  C13      1.0000 0.16510  0.11380  0.55787  Biso   1.000  C
  C14      1.0000 0.33490  0.88620  0.05787  Biso   1.000  C
  C15      1.0000 0.63620  0.41510  0.80787  Biso   1.000  C
  C16      1.0000 0.86380  0.58490  0.30787  Biso   1.000  C
  H1       1.0000 0.35240  0.44670  0.90600  Biso   1.000  H
  H2       1.0000 0.14760  0.55330  0.40600  Biso   1.000  H
  H3       1.0000 0.30330  0.60240  0.15600  Biso   1.000  H
  H4       1.0000 0.19670  0.39760  0.65600  Biso   1.000  H
  H5       1.0000 0.85240  0.94670  0.40600  Biso   1.000  H
  H6       1.0000 0.64760  0.05330  0.90600  Biso   1.000  H
  H7       1.0000 0.80330  0.10240  0.65600  Biso   1.000  H
  H8       1.0000 0.69670  0.89760  0.15600  Biso   1.000  H
  H9       1.0000 0.64760  0.55330  0.09400  Biso   1.000  H
  H10      1.0000 0.85240  0.44670  0.59400  Biso   1.000  H
  H11      1.0000 0.19670  0.89760  0.34400  Biso   1.000  H
  H12      1.0000 0.30330  0.10240  0.84400  Biso   1.000  H
  H13      1.0000 0.14760  0.05330  0.59400  Biso   1.000  H
  H14      1.0000 0.35240  0.94670  0.09400  Biso   1.000  H
  H15      1.0000 0.69670  0.39760  0.84400  Biso   1.000  H
  H16      1.0000 0.80330  0.60240  0.34400  Biso   1.000  H
  H17      1.0000 0.29400  0.30530  0.92550  Biso   1.000  H
  H18      1.0000 0.20600  0.69470  0.42550  Biso   1.000  H
  H19      1.0000 0.44470  0.54400  0.17550  Biso   1.000  H
  H20      1.0000 0.05530  0.45600  0.67550  Biso   1.000  H
  H21      1.0000 0.79400  0.80530  0.42550  Biso   1.000  H
  H22      1.0000 0.70600  0.19470  0.92550  Biso   1.000  H
  H23      1.0000 0.94470  0.04400  0.67550  Biso   1.000  H
  H24      1.0000 0.55530  0.95600  0.17550  Biso   1.000  H
  H25      1.0000 0.70600  0.69470  0.07450  Biso   1.000  H
  H26      1.0000 0.79400  0.30530  0.57450  Biso   1.000  H
  H27      1.0000 0.05530  0.95600  0.32450  Biso   1.000  H
  H28      1.0000 0.44470  0.04400  0.82450  Biso   1.000  H
  H29      1.0000 0.20600  0.19470  0.57450  Biso   1.000  H
  H30      1.0000 0.29400  0.80530  0.07450  Biso   1.000  H
  H31      1.0000 0.55530  0.45600  0.82450  Biso   1.000  H
  H32      1.0000 0.94470  0.54400  0.32450  Biso   1.000  H
  H33      1.0000 0.41810  0.36420  0.96390  Biso   1.000  H
  H34      1.0000 0.08190  0.63580  0.46390  Biso   1.000  H
  H35      1.0000 0.38580  0.66810  0.21390  Biso   1.000  H
  H36      1.0000 0.11420  0.33190  0.71390  Biso   1.000  H
  H37      1.0000 0.91810  0.86420  0.46390  Biso   1.000  H
  H38      1.0000 0.58190  0.13580  0.96390  Biso   1.000  H
  H39      1.0000 0.88580  0.16810  0.71390  Biso   1.000  H
  H40      1.0000 0.61420  0.83190  0.21390  Biso   1.000  H
  H41      1.0000 0.58190  0.63580  0.03610  Biso   1.000  H
  H42      1.0000 0.91810  0.36420  0.53610  Biso   1.000  H
  H43      1.0000 0.11420  0.83190  0.28610  Biso   1.000  H
  H44      1.0000 0.38580  0.16810  0.78610  Biso   1.000  H
  H45      1.0000 0.08190  0.13580  0.53610  Biso   1.000  H
  H46      1.0000 0.41810  0.86420  0.03610  Biso   1.000  H
  H47      1.0000 0.61420  0.33190  0.78610  Biso   1.000  H
  H48      1.0000 0.88580  0.66810  0.28610  Biso   1.000  H
  C17      1.0000 0.24210  0.45200  0.99030  Biso   1.000  C
  C18      1.0000 0.25790  0.54800  0.49030  Biso   1.000  C
  C19      1.0000 0.29800  0.49210  0.24030  Biso   1.000  C
  C20      1.0000 0.20200  0.50790  0.74030  Biso   1.000  C
  C21      1.0000 0.74210  0.95200  0.49030  Biso   1.000  C
  C22      1.0000 0.75790  0.04800  0.99030  Biso   1.000  C
  C23      1.0000 0.79800  0.99210  0.74030  Biso   1.000  C
  C24      1.0000 0.70200  0.00790  0.24030  Biso   1.000  C
  C25      1.0000 0.75790  0.54800  0.00970  Biso   1.000  C
  C26      1.0000 0.74210  0.45200  0.50970  Biso   1.000  C
  C27      1.0000 0.20200  0.00790  0.25970  Biso   1.000  C
  C28      1.0000 0.29800  0.99210  0.75970  Biso   1.000  C
  C29      1.0000 0.25790  0.04800  0.50970  Biso   1.000  C
  C30      1.0000 0.24210  0.95200  0.00970  Biso   1.000  C
  C31      1.0000 0.70200  0.50790  0.75970  Biso   1.000  C
  C32      1.0000 0.79800  0.49210  0.25970  Biso   1.000  C
