data_image0
_cell_length_a       6.8792
_cell_length_b       13.285
_cell_length_c       5.9634
_cell_angle_alpha    90
_cell_angle_beta     90
_cell_angle_gamma    90

_symmetry_space_group_name_H-M    "P 1"
_symmetry_int_tables_number       1

loop_
  _symmetry_equiv_pos_as_xyz
  'x, y, z'

loop_
  _atom_site_label
  _atom_site_occupancy
  _atom_site_fract_x
  _atom_site_fract_y
  _atom_site_fract_z
  _atom_site_thermal_displace_type
  _atom_site_B_iso_or_equiv
  _atom_site_type_symbol
  I1       1.0000 0.83667  0.15287  0.50000  Biso   1.000  I
  I2       1.0000 0.16333  0.84713  0.50000  Biso   1.000  I
  I3       1.0000 0.66333  0.65287  0.50000  Biso   1.000  I
  I4       1.0000 0.33667  0.34713  0.50000  Biso   1.000  I
  Cu1      1.0000 0.00000  0.00000  0.28790  Biso   1.000  Cu
  Cu2      1.0000 0.50000  0.50000  0.71210  Biso   1.000  Cu
  Cu3      1.0000 0.00000  0.00000  0.71210  Biso   1.000  Cu
  Cu4      1.0000 0.50000  0.50000  0.28790  Biso   1.000  Cu
  Cu5      1.0000 0.43890  0.12439  0.50000  Biso   1.000  Cu
  Cu6      1.0000 0.56110  0.87561  0.50000  Biso   1.000  Cu
  Cu7      1.0000 0.06110  0.62439  0.50000  Biso   1.000  Cu
  Cu8      1.0000 0.93890  0.37561  0.50000  Biso   1.000  Cu
  N1       1.0000 0.21720  0.06260  0.10920  Biso   1.000  N
  N2       1.0000 0.78280  0.93740  0.10920  Biso   1.000  N
  N3       1.0000 0.28280  0.56260  0.89080  Biso   1.000  N
  N4       1.0000 0.71720  0.43740  0.89080  Biso   1.000  N
  N5       1.0000 0.78280  0.93740  0.89080  Biso   1.000  N
  N6       1.0000 0.21720  0.06260  0.89080  Biso   1.000  N
  N7       1.0000 0.71720  0.43740  0.10920  Biso   1.000  N
  N8       1.0000 0.28280  0.56260  0.10920  Biso   1.000  N
  N9       1.0000 0.37810  0.10760  0.18320  Biso   1.000  N
  N10      1.0000 0.62190  0.89240  0.18320  Biso   1.000  N
  N11      1.0000 0.12190  0.60760  0.81680  Biso   1.000  N
  N12      1.0000 0.87810  0.39240  0.81680  Biso   1.000  N
  N13      1.0000 0.62190  0.89240  0.81680  Biso   1.000  N
  N14      1.0000 0.37810  0.10760  0.81680  Biso   1.000  N
  N15      1.0000 0.87810  0.39240  0.18320  Biso   1.000  N
  N16      1.0000 0.12190  0.60760  0.18320  Biso   1.000  N
  C1       1.0000 0.47230  0.13280  0.00000  Biso   1.000  C
  C2       1.0000 0.52770  0.86720  0.00000  Biso   1.000  C
  C3       1.0000 0.02770  0.63280  0.00000  Biso   1.000  C
  C4       1.0000 0.97230  0.36720  0.00000  Biso   1.000  C
  H1       1.0000 0.59250  0.16490  0.00000  Biso   1.000  H
  H2       1.0000 0.40750  0.83510  0.00000  Biso   1.000  H
  H3       1.0000 0.90750  0.66490  0.00000  Biso   1.000  H
  H4       1.0000 0.09250  0.33510  0.00000  Biso   1.000  H
