data_image0
_cell_length_a       12.3322
_cell_length_b       11.6853
_cell_length_c       13.0714
_cell_angle_alpha    90
_cell_angle_beta     90
_cell_angle_gamma    90

_symmetry_space_group_name_H-M    "P 1"
_symmetry_int_tables_number       1

loop_
  _symmetry_equiv_pos_as_xyz
  'x, y, z'

loop_
  _atom_site_label
  _atom_site_occupancy
  _atom_site_fract_x
  _atom_site_fract_y
  _atom_site_fract_z
  _atom_site_thermal_displace_type
  _atom_site_B_iso_or_equiv
  _atom_site_type_symbol
  Cu1      1.0000 0.12409  0.77955  0.31750  Biso   1.000  Cu
  Cu2      1.0000 0.37591  0.22045  0.81750  Biso   1.000  Cu
  Cu3      1.0000 0.87591  0.27955  0.18250  Biso   1.000  Cu
  Cu4      1.0000 0.62409  0.72045  0.68250  Biso   1.000  Cu
  Cu5      1.0000 0.87591  0.22045  0.68250  Biso   1.000  Cu
  Cu6      1.0000 0.62409  0.77955  0.18250  Biso   1.000  Cu
  Cu7      1.0000 0.12409  0.72045  0.81750  Biso   1.000  Cu
  Cu8      1.0000 0.37591  0.27955  0.31750  Biso   1.000  Cu
  Cu9      1.0000 0.10268  0.28075  0.38259  Biso   1.000  Cu
  Cu10     1.0000 0.39732  0.71925  0.88259  Biso   1.000  Cu
  Cu11     1.0000 0.89732  0.78075  0.11741  Biso   1.000  Cu
  Cu12     1.0000 0.60268  0.21925  0.61741  Biso   1.000  Cu
  Cu13     1.0000 0.89732  0.71925  0.61741  Biso   1.000  Cu
  Cu14     1.0000 0.60268  0.28075  0.11741  Biso   1.000  Cu
  Cu15     1.0000 0.10268  0.21925  0.88259  Biso   1.000  Cu
  Cu16     1.0000 0.39732  0.78075  0.38259  Biso   1.000  Cu
  Cu17     1.0000 0.32995  0.84796  0.11696  Biso   1.000  Cu
  Cu18     1.0000 0.17005  0.15204  0.61696  Biso   1.000  Cu
  Cu19     1.0000 0.67005  0.34796  0.38304  Biso   1.000  Cu
  Cu20     1.0000 0.82995  0.65204  0.88304  Biso   1.000  Cu
  Cu21     1.0000 0.67005  0.15204  0.88304  Biso   1.000  Cu
  Cu22     1.0000 0.82995  0.84796  0.38304  Biso   1.000  Cu
  Cu23     1.0000 0.32995  0.65204  0.61696  Biso   1.000  Cu
  Cu24     1.0000 0.17005  0.34796  0.11696  Biso   1.000  Cu
  Cu25     1.0000 0.18542  0.64755  0.08055  Biso   1.000  Cu
  Cu26     1.0000 0.31458  0.35245  0.58055  Biso   1.000  Cu
  Cu27     1.0000 0.81458  0.14755  0.41945  Biso   1.000  Cu
  Cu28     1.0000 0.68542  0.85245  0.91945  Biso   1.000  Cu
  Cu29     1.0000 0.81458  0.35245  0.91945  Biso   1.000  Cu
  Cu30     1.0000 0.68542  0.64755  0.41945  Biso   1.000  Cu
  Cu31     1.0000 0.18542  0.85245  0.58055  Biso   1.000  Cu
  Cu32     1.0000 0.31458  0.14755  0.08055  Biso   1.000  Cu
  Cl1      1.0000 0.11920  0.33255  0.57608  Biso   1.000  Cl
  Cl2      1.0000 0.38080  0.66745  0.07608  Biso   1.000  Cl
  Cl3      1.0000 0.88080  0.83255  0.92392  Biso   1.000  Cl
  Cl4      1.0000 0.61920  0.16745  0.42392  Biso   1.000  Cl
  Cl5      1.0000 0.88080  0.66745  0.42392  Biso   1.000  Cl
  Cl6      1.0000 0.61920  0.33255  0.92392  Biso   1.000  Cl
  Cl7      1.0000 0.11920  0.16745  0.07608  Biso   1.000  Cl
  Cl8      1.0000 0.38080  0.83255  0.57608  Biso   1.000  Cl
  Cl9      1.0000 0.12027  0.82808  0.12048  Biso   1.000  Cl
  Cl10     1.0000 0.37973  0.17192  0.62048  Biso   1.000  Cl
  Cl11     1.0000 0.87973  0.32808  0.37952  Biso   1.000  Cl
  Cl12     1.0000 0.62027  0.67192  0.87952  Biso   1.000  Cl
  Cl13     1.0000 0.87973  0.17192  0.87952  Biso   1.000  Cl
  Cl14     1.0000 0.62027  0.82808  0.37952  Biso   1.000  Cl
  Cl15     1.0000 0.12027  0.67192  0.62048  Biso   1.000  Cl
  Cl16     1.0000 0.37973  0.32808  0.12048  Biso   1.000  Cl
  C1       1.0000 0.10430  0.03260  0.32540  Biso   1.000  C
  C2       1.0000 0.39570  0.96740  0.82540  Biso   1.000  C
  C3       1.0000 0.89570  0.53260  0.17460  Biso   1.000  C
  C4       1.0000 0.60430  0.46740  0.67460  Biso   1.000  C
  C5       1.0000 0.89570  0.96740  0.67460  Biso   1.000  C
  C6       1.0000 0.60430  0.03260  0.17460  Biso   1.000  C
  C7       1.0000 0.10430  0.46740  0.82540  Biso   1.000  C
  C8       1.0000 0.39570  0.53260  0.32540  Biso   1.000  C
  H1       1.0000 0.09050  0.04230  0.25600  Biso   1.000  H
  H2       1.0000 0.40950  0.95770  0.75600  Biso   1.000  H
  H3       1.0000 0.90950  0.54230  0.24400  Biso   1.000  H
  H4       1.0000 0.59050  0.45770  0.74400  Biso   1.000  H
  H5       1.0000 0.90950  0.95770  0.74400  Biso   1.000  H
  H6       1.0000 0.59050  0.04230  0.24400  Biso   1.000  H
  H7       1.0000 0.09050  0.45770  0.75600  Biso   1.000  H
  H8       1.0000 0.40950  0.54230  0.25600  Biso   1.000  H
  C9       1.0000 0.11750  0.53300  0.37430  Biso   1.000  C
  C10      1.0000 0.38250  0.46700  0.87430  Biso   1.000  C
  C11      1.0000 0.88250  0.03300  0.12570  Biso   1.000  C
  C12      1.0000 0.61750  0.96700  0.62570  Biso   1.000  C
  C13      1.0000 0.88250  0.46700  0.62570  Biso   1.000  C
  C14      1.0000 0.61750  0.53300  0.12570  Biso   1.000  C
  C15      1.0000 0.11750  0.96700  0.87430  Biso   1.000  C
  C16      1.0000 0.38250  0.03300  0.37430  Biso   1.000  C
  H9       1.0000 0.10250  0.54410  0.44330  Biso   1.000  H
  H10      1.0000 0.39750  0.45590  0.94330  Biso   1.000  H
  H11      1.0000 0.89750  0.04410  0.05670  Biso   1.000  H
  H12      1.0000 0.60250  0.95590  0.55670  Biso   1.000  H
  H13      1.0000 0.89750  0.45590  0.55670  Biso   1.000  H
  H14      1.0000 0.60250  0.54410  0.05670  Biso   1.000  H
  H15      1.0000 0.10250  0.95590  0.94330  Biso   1.000  H
  H16      1.0000 0.39750  0.04410  0.44330  Biso   1.000  H
  N1       1.0000 0.11230  0.11770  0.39050  Biso   1.000  N
  N2       1.0000 0.38770  0.88230  0.89050  Biso   1.000  N
  N3       1.0000 0.88770  0.61770  0.10950  Biso   1.000  N
  N4       1.0000 0.61230  0.38230  0.60950  Biso   1.000  N
  N5       1.0000 0.88770  0.88230  0.60950  Biso   1.000  N
  N6       1.0000 0.61230  0.11770  0.10950  Biso   1.000  N
  N7       1.0000 0.11230  0.38230  0.89050  Biso   1.000  N
  N8       1.0000 0.38770  0.61770  0.39050  Biso   1.000  N
  N9       1.0000 0.13530  0.06690  0.48210  Biso   1.000  N
  N10      1.0000 0.36470  0.93310  0.98210  Biso   1.000  N
  N11      1.0000 0.86470  0.56690  0.01790  Biso   1.000  N
  N12      1.0000 0.63530  0.43310  0.51790  Biso   1.000  N
  N13      1.0000 0.86470  0.93310  0.51790  Biso   1.000  N
  N14      1.0000 0.63530  0.06690  0.01790  Biso   1.000  N
  N15      1.0000 0.13530  0.43310  0.98210  Biso   1.000  N
  N16      1.0000 0.36470  0.56690  0.48210  Biso   1.000  N
  N17      1.0000 0.13750  0.95600  0.46840  Biso   1.000  N
  N18      1.0000 0.36250  0.04400  0.96840  Biso   1.000  N
  N19      1.0000 0.86250  0.45600  0.03160  Biso   1.000  N
  N20      1.0000 0.63750  0.54400  0.53160  Biso   1.000  N
  N21      1.0000 0.86250  0.04400  0.53160  Biso   1.000  N
  N22      1.0000 0.63750  0.95600  0.03160  Biso   1.000  N
  N23      1.0000 0.13750  0.54400  0.96840  Biso   1.000  N
  N24      1.0000 0.36250  0.45600  0.46840  Biso   1.000  N
  N25      1.0000 0.11800  0.93130  0.36900  Biso   1.000  N
  N26      1.0000 0.38200  0.06870  0.86900  Biso   1.000  N
  N27      1.0000 0.88200  0.43130  0.13100  Biso   1.000  N
  N28      1.0000 0.61800  0.56870  0.63100  Biso   1.000  N
  N29      1.0000 0.88200  0.06870  0.63100  Biso   1.000  N
  N30      1.0000 0.61800  0.93130  0.13100  Biso   1.000  N
  N31      1.0000 0.11800  0.56870  0.86900  Biso   1.000  N
  N32      1.0000 0.38200  0.43130  0.36900  Biso   1.000  N
  N33      1.0000 0.13430  0.61720  0.30700  Biso   1.000  N
  N34      1.0000 0.36570  0.38280  0.80700  Biso   1.000  N
  N35      1.0000 0.86570  0.11720  0.19300  Biso   1.000  N
  N36      1.0000 0.63430  0.88280  0.69300  Biso   1.000  N
  N37      1.0000 0.86570  0.38280  0.69300  Biso   1.000  N
  N38      1.0000 0.63430  0.61720  0.19300  Biso   1.000  N
  N39      1.0000 0.13430  0.88280  0.80700  Biso   1.000  N
  N40      1.0000 0.36570  0.11720  0.30700  Biso   1.000  N
  N41      1.0000 0.15270  0.56570  0.21680  Biso   1.000  N
  N42      1.0000 0.34730  0.43430  0.71680  Biso   1.000  N
  N43      1.0000 0.84730  0.06570  0.28320  Biso   1.000  N
  N44      1.0000 0.65270  0.93430  0.78320  Biso   1.000  N
  N45      1.0000 0.84730  0.43430  0.78320  Biso   1.000  N
  N46      1.0000 0.65270  0.56570  0.28320  Biso   1.000  N
  N47      1.0000 0.15270  0.93430  0.71680  Biso   1.000  N
  N48      1.0000 0.34730  0.06570  0.21680  Biso   1.000  N
  N49      1.0000 0.14790  0.45480  0.23120  Biso   1.000  N
  N50      1.0000 0.35210  0.54520  0.73120  Biso   1.000  N
  N51      1.0000 0.85210  0.95480  0.26880  Biso   1.000  N
  N52      1.0000 0.64790  0.04520  0.76880  Biso   1.000  N
  N53      1.0000 0.85210  0.54520  0.76880  Biso   1.000  N
  N54      1.0000 0.64790  0.45480  0.26880  Biso   1.000  N
  N55      1.0000 0.14790  0.04520  0.73120  Biso   1.000  N
  N56      1.0000 0.35210  0.95480  0.23120  Biso   1.000  N
  N57      1.0000 0.12500  0.43250  0.32970  Biso   1.000  N
  N58      1.0000 0.37500  0.56750  0.82970  Biso   1.000  N
  N59      1.0000 0.87500  0.93250  0.17030  Biso   1.000  N
  N60      1.0000 0.62500  0.06750  0.67030  Biso   1.000  N
  N61      1.0000 0.87500  0.56750  0.67030  Biso   1.000  N
  N62      1.0000 0.62500  0.43250  0.17030  Biso   1.000  N
  N63      1.0000 0.12500  0.06750  0.82970  Biso   1.000  N
  N64      1.0000 0.37500  0.93250  0.32970  Biso   1.000  N
