data_image0
_cell_length_a       8.2533
_cell_length_b       6.8406
_cell_length_c       18.256
_cell_angle_alpha    90
_cell_angle_beta     101.371
_cell_angle_gamma    90

_symmetry_space_group_name_H-M    "P 1"
_symmetry_int_tables_number       1

loop_
  _symmetry_equiv_pos_as_xyz
  'x, y, z'

loop_
  _atom_site_label
  _atom_site_occupancy
  _atom_site_fract_x
  _atom_site_fract_y
  _atom_site_fract_z
  _atom_site_thermal_displace_type
  _atom_site_B_iso_or_equiv
  _atom_site_type_symbol
  Re1      1.0000 0.23857  0.70216  0.74624  Biso   1.000  Re
  Re2      1.0000 0.76143  0.20216  0.25376  Biso   1.000  Re
  Cu1      1.0000 0.60166  0.47323  0.76891  Biso   1.000  Cu
  Cu2      1.0000 0.39834  0.97323  0.23109  Biso   1.000  Cu
  Cu3      1.0000 0.85273  0.49539  0.70903  Biso   1.000  Cu
  Cu4      1.0000 0.14727  0.99539  0.29097  Biso   1.000  Cu
  Cu5      1.0000 0.22325  0.57755  0.24094  Biso   1.000  Cu
  Cu6      1.0000 0.77675  0.07755  0.75906  Biso   1.000  Cu
  O1       1.0000 0.48460  0.43710  0.66810  Biso   1.000  O
  O2       1.0000 0.51540  0.93710  0.33190  Biso   1.000  O
  O3       1.0000 0.70090  0.50900  0.61540  Biso   1.000  O
  O4       1.0000 0.29910  0.00900  0.38460  Biso   1.000  O
  O5       1.0000 0.35350  0.52390  0.79920  Biso   1.000  O
  O6       1.0000 0.64650  0.02390  0.20080  Biso   1.000  O
  O7       1.0000 0.08290  0.60250  0.67870  Biso   1.000  O
  O8       1.0000 0.91710  0.10250  0.32130  Biso   1.000  O
  O9       1.0000 0.96880  0.46800  0.81050  Biso   1.000  O
  O10      1.0000 0.03120  0.96800  0.18950  Biso   1.000  O
  O11      1.0000 0.74670  0.51400  0.86200  Biso   1.000  O
  O12      1.0000 0.25330  0.01400  0.13800  Biso   1.000  O
  O13      1.0000 0.37000  0.83910  0.70370  Biso   1.000  O
  O14      1.0000 0.63000  0.33910  0.29630  Biso   1.000  O
  O15      1.0000 0.15510  0.85440  0.80450  Biso   1.000  O
  O16      1.0000 0.84490  0.35440  0.19550  Biso   1.000  O
  N1       1.0000 0.13350  0.58210  0.32870  Biso   1.000  N
  N2       1.0000 0.86650  0.08210  0.67130  Biso   1.000  N
  N3       1.0000 0.31370  0.56300  0.15330  Biso   1.000  N
  N4       1.0000 0.68630  0.06300  0.84670  Biso   1.000  N
  C1       1.0000 0.16570  0.55930  0.46360  Biso   1.000  C
  C2       1.0000 0.83430  0.05930  0.53640  Biso   1.000  C
  C3       1.0000 0.27210  0.52850  0.53410  Biso   1.000  C
  C4       1.0000 0.72790  0.02850  0.46590  Biso   1.000  C
  H1       1.0000 0.22990  0.53160  0.57770  Biso   1.000  H
  H2       1.0000 0.77010  0.03160  0.42230  Biso   1.000  H
  C5       1.0000 0.50230  0.48210  0.47270  Biso   1.000  C
  C6       1.0000 0.49770  0.98210  0.52730  Biso   1.000  C
  H3       1.0000 0.61460  0.45960  0.47610  Biso   1.000  H
  H4       1.0000 0.38540  0.95960  0.52390  Biso   1.000  H
  C7       1.0000 0.39950  0.50370  0.40320  Biso   1.000  C
  C8       1.0000 0.60050  0.00370  0.59680  Biso   1.000  C
  H5       1.0000 0.44190  0.48950  0.35990  Biso   1.000  H
  H6       1.0000 0.55810  0.98950  0.64010  Biso   1.000  H
  C9       1.0000 0.55050  0.47660  0.61360  Biso   1.000  C
  C10      1.0000 0.44950  0.97660  0.38640  Biso   1.000  C
  C11      1.0000 0.54970  0.60200  0.09530  Biso   1.000  C
  C12      1.0000 0.45030  0.10200  0.90470  Biso   1.000  C
  H7       1.0000 0.66260  0.62530  0.10170  Biso   1.000  H
  H8       1.0000 0.33740  0.12530  0.89830  Biso   1.000  H
  C13      1.0000 0.21430  0.54150  0.08320  Biso   1.000  C
  C14      1.0000 0.78570  0.04150  0.91680  Biso   1.000  C
  C15      1.0000 0.28370  0.54670  0.01760  Biso   1.000  C
  C16      1.0000 0.71630  0.04670  0.98240  Biso   1.000  C
  C17      1.0000 0.04260  0.51730  0.07630  Biso   1.000  C
  C18      1.0000 0.95740  0.01730  0.92370  Biso   1.000  C
  H9       1.0000 0.99670  0.51020  0.11880  Biso   1.000  H
  H10      1.0000 0.00330  0.01020  0.88120  Biso   1.000  H
  C19      1.0000 0.90210  0.64320  0.38790  Biso   1.000  C
  C20      1.0000 0.09790  0.14320  0.61210  Biso   1.000  C
  H11      1.0000 0.79080  0.67500  0.38250  Biso   1.000  H
  H12      1.0000 0.20920  0.17500  0.61750  Biso   1.000  H
  C21      1.0000 0.47480  0.59190  0.15760  Biso   1.000  C
  C22      1.0000 0.52520  0.09190  0.84240  Biso   1.000  C
  H13      1.0000 0.54130  0.60630  0.20480  Biso   1.000  H
  H14      1.0000 0.45870  0.10630  0.79520  Biso   1.000  H
  C23      1.0000 0.17840  0.52640  0.94690  Biso   1.000  C
  C24      1.0000 0.82160  0.02640  0.05310  Biso   1.000  C
  H15      1.0000 0.22280  0.52400  0.90390  Biso   1.000  H
  H16      1.0000 0.77720  0.02400  0.09610  Biso   1.000  H
  C25      1.0000 0.01000  0.51010  0.94170  Biso   1.000  C
  C26      1.0000 0.99000  0.01010  0.05830  Biso   1.000  C
  C27      1.0000 0.94290  0.50420  0.00670  Biso   1.000  C
  C28      1.0000 0.05710  0.00420  0.99330  Biso   1.000  C
  H17      1.0000 0.82930  0.49130  0.00260  Biso   1.000  H
  H18      1.0000 0.17070  0.99130  0.99740  Biso   1.000  H
  C29      1.0000 0.97470  0.63180  0.32550  Biso   1.000  C
  C30      1.0000 0.02530  0.13180  0.67450  Biso   1.000  C
  H19      1.0000 0.90990  0.66010  0.27900  Biso   1.000  H
  H20      1.0000 0.09010  0.16010  0.72100  Biso   1.000  H
  C31      1.0000 0.99560  0.60740  0.45780  Biso   1.000  C
  C32      1.0000 0.00440  0.10740  0.54220  Biso   1.000  C
  H21      1.0000 0.94890  0.61440  0.50010  Biso   1.000  H
  H22      1.0000 0.05110  0.11440  0.49990  Biso   1.000  H
  C33      1.0000 0.43670  0.49430  0.53760  Biso   1.000  C
  C34      1.0000 0.56330  0.99430  0.46240  Biso   1.000  C
  C35      1.0000 0.45730  0.57790  0.02540  Biso   1.000  C
  C36      1.0000 0.54270  0.07790  0.97460  Biso   1.000  C
  H23      1.0000 0.50610  0.58170  0.98360  Biso   1.000  H
  H24      1.0000 0.49390  0.08170  0.01640  Biso   1.000  H
  C37      1.0000 0.89990  0.49540  0.86580  Biso   1.000  C
  C38      1.0000 0.10010  0.99540  0.13420  Biso   1.000  C
  C39      1.0000 0.23100  0.54720  0.39830  Biso   1.000  C
  C40      1.0000 0.76900  0.04720  0.60170  Biso   1.000  C
