data_image0
_cell_length_a       7.9717
_cell_length_b       11.9277
_cell_length_c       8.4298
_cell_angle_alpha    90
_cell_angle_beta     102.161
_cell_angle_gamma    90

_symmetry_space_group_name_H-M    "P 1"
_symmetry_int_tables_number       1

loop_
  _symmetry_equiv_pos_as_xyz
  'x, y, z'

loop_
  _atom_site_label
  _atom_site_occupancy
  _atom_site_fract_x
  _atom_site_fract_y
  _atom_site_fract_z
  _atom_site_thermal_displace_type
  _atom_site_B_iso_or_equiv
  _atom_site_type_symbol
  Re1      1.0000 0.62820  0.74666  0.04188  Biso   1.000  Re
  Re2      1.0000 0.87180  0.24666  0.45812  Biso   1.000  Re
  Re3      1.0000 0.37180  0.25334  0.95812  Biso   1.000  Re
  Re4      1.0000 0.12820  0.75334  0.54188  Biso   1.000  Re
  O1       1.0000 0.21780  0.24650  0.77930  Biso   1.000  O
  O2       1.0000 0.28220  0.74650  0.72070  Biso   1.000  O
  O3       1.0000 0.78220  0.75350  0.22070  Biso   1.000  O
  O4       1.0000 0.71780  0.25350  0.27930  Biso   1.000  O
  O5       1.0000 0.48800  0.12740  0.98540  Biso   1.000  O
  O6       1.0000 0.01200  0.62740  0.51460  Biso   1.000  O
  O7       1.0000 0.51200  0.87260  0.01460  Biso   1.000  O
  O8       1.0000 0.98800  0.37260  0.48540  Biso   1.000  O
  O9       1.0000 0.50310  0.36490  0.95070  Biso   1.000  O
  O10      1.0000 0.99690  0.86490  0.54930  Biso   1.000  O
  O11      1.0000 0.49690  0.63510  0.04930  Biso   1.000  O
  O12      1.0000 0.00310  0.13510  0.45070  Biso   1.000  O
  O13      1.0000 0.27000  0.27210  0.11820  Biso   1.000  O
  O14      1.0000 0.23000  0.77210  0.38180  Biso   1.000  O
  O15      1.0000 0.73000  0.72790  0.88180  Biso   1.000  O
  O16      1.0000 0.77000  0.22790  0.61820  Biso   1.000  O
  Cu1      1.0000 0.33309  0.95916  0.82553  Biso   1.000  Cu
  Cu2      1.0000 0.16691  0.45916  0.67447  Biso   1.000  Cu
  Cu3      1.0000 0.66691  0.04084  0.17447  Biso   1.000  Cu
  Cu4      1.0000 0.83309  0.54084  0.32553  Biso   1.000  Cu
  N1       1.0000 0.43570  0.98310  0.64050  Biso   1.000  N
  N2       1.0000 0.06430  0.48310  0.85950  Biso   1.000  N
  N3       1.0000 0.56430  0.01690  0.35950  Biso   1.000  N
  N4       1.0000 0.93570  0.51690  0.14050  Biso   1.000  N
  C1       1.0000 0.38960  0.07160  0.54330  Biso   1.000  C
  C2       1.0000 0.11040  0.57160  0.95670  Biso   1.000  C
  C3       1.0000 0.61040  0.92840  0.45670  Biso   1.000  C
  C4       1.0000 0.88960  0.42840  0.04330  Biso   1.000  C
  H1       1.0000 0.31380  0.12350  0.57140  Biso   1.000  H
  H2       1.0000 0.18620  0.62350  0.92860  Biso   1.000  H
  H3       1.0000 0.68620  0.87650  0.42860  Biso   1.000  H
  H4       1.0000 0.81380  0.37650  0.07140  Biso   1.000  H
  C5       1.0000 0.55020  0.91060  0.59740  Biso   1.000  C
  C6       1.0000 0.94980  0.41060  0.90260  Biso   1.000  C
  C7       1.0000 0.44980  0.08940  0.40260  Biso   1.000  C
  C8       1.0000 0.05020  0.58940  0.09740  Biso   1.000  C
  H5       1.0000 0.58820  0.84890  0.66260  Biso   1.000  H
  H6       1.0000 0.91180  0.34890  0.83740  Biso   1.000  H
  H7       1.0000 0.41180  0.15110  0.33740  Biso   1.000  H
  H8       1.0000 0.08820  0.65110  0.16260  Biso   1.000  H
  N5       1.0000 0.13600  0.97670  0.92470  Biso   1.000  N
  N6       1.0000 0.36400  0.47670  0.57530  Biso   1.000  N
  N7       1.0000 0.86400  0.02330  0.07530  Biso   1.000  N
  N8       1.0000 0.63600  0.52330  0.42470  Biso   1.000  N
  C9       1.0000 0.14190  0.94850  0.07970  Biso   1.000  C
  C10      1.0000 0.35810  0.44850  0.42030  Biso   1.000  C
  C11      1.0000 0.85810  0.05150  0.92030  Biso   1.000  C
  C12      1.0000 0.64190  0.55150  0.57970  Biso   1.000  C
  H9       1.0000 0.23950  0.91320  0.13840  Biso   1.000  H
  H10      1.0000 0.26050  0.41320  0.36160  Biso   1.000  H
  H11      1.0000 0.76050  0.08680  0.86160  Biso   1.000  H
  H12      1.0000 0.73950  0.58680  0.63840  Biso   1.000  H
  C13      1.0000 0.99250  0.02970  0.84530  Biso   1.000  C
  C14      1.0000 0.50750  0.52970  0.65470  Biso   1.000  C
  C15      1.0000 0.00750  0.97030  0.15470  Biso   1.000  C
  C16      1.0000 0.49250  0.47030  0.34530  Biso   1.000  C
  H13      1.0000 0.98450  0.05180  0.73820  Biso   1.000  H
  H14      1.0000 0.51550  0.55180  0.76180  Biso   1.000  H
  H15      1.0000 0.01550  0.94820  0.26180  Biso   1.000  H
  H16      1.0000 0.48450  0.44820  0.23820  Biso   1.000  H
