data_image0
_cell_length_a       10.472
_cell_length_b       17.792
_cell_length_c       7.4515
_cell_angle_alpha    90
_cell_angle_beta     92.421
_cell_angle_gamma    90

_symmetry_space_group_name_H-M    "P 1"
_symmetry_int_tables_number       1

loop_
  _symmetry_equiv_pos_as_xyz
  'x, y, z'

loop_
  _atom_site_label
  _atom_site_occupancy
  _atom_site_fract_x
  _atom_site_fract_y
  _atom_site_fract_z
  _atom_site_thermal_displace_type
  _atom_site_B_iso_or_equiv
  _atom_site_type_symbol
  Cu1      1.0000 0.25361  0.13924  0.62581  Biso   1.000  Cu
  Cu2      1.0000 0.74639  0.63924  0.87419  Biso   1.000  Cu
  Cu3      1.0000 0.74639  0.86076  0.37419  Biso   1.000  Cu
  Cu4      1.0000 0.25361  0.36076  0.12581  Biso   1.000  Cu
  Cu5      1.0000 0.25429  0.99021  0.44065  Biso   1.000  Cu
  Cu6      1.0000 0.74571  0.49021  0.05935  Biso   1.000  Cu
  Cu7      1.0000 0.74571  0.00979  0.55935  Biso   1.000  Cu
  Cu8      1.0000 0.25429  0.50979  0.94065  Biso   1.000  Cu
  S1       1.0000 0.35256  0.10514  0.34818  Biso   1.000  S
  S2       1.0000 0.64744  0.60514  0.15182  Biso   1.000  S
  S3       1.0000 0.64744  0.89486  0.65182  Biso   1.000  S
  S4       1.0000 0.35256  0.39486  0.84818  Biso   1.000  S
  S5       1.0000 0.17238  0.02272  0.76804  Biso   1.000  S
  S6       1.0000 0.82762  0.52272  0.73196  Biso   1.000  S
  S7       1.0000 0.82762  0.97728  0.23196  Biso   1.000  S
  S8       1.0000 0.17238  0.47728  0.26804  Biso   1.000  S
  N1       1.0000 0.90780  0.01780  0.68880  Biso   1.000  N
  N2       1.0000 0.09220  0.51780  0.81120  Biso   1.000  N
  N3       1.0000 0.09220  0.98220  0.31120  Biso   1.000  N
  N4       1.0000 0.90780  0.48220  0.18880  Biso   1.000  N
  N5       1.0000 0.60470  0.07130  0.46960  Biso   1.000  N
  N6       1.0000 0.39530  0.57130  0.03040  Biso   1.000  N
  N7       1.0000 0.39530  0.92870  0.53040  Biso   1.000  N
  N8       1.0000 0.60470  0.42870  0.96960  Biso   1.000  N
  N9       1.0000 0.41290  0.15986  0.78180  Biso   1.000  N
  N10      1.0000 0.58710  0.65986  0.71820  Biso   1.000  N
  N11      1.0000 0.58710  0.84014  0.21820  Biso   1.000  N
  N12      1.0000 0.41290  0.34014  0.28180  Biso   1.000  N
  C1       1.0000 0.88370  0.27740  0.97880  Biso   1.000  C
  C2       1.0000 0.11630  0.77740  0.52120  Biso   1.000  C
  C3       1.0000 0.11630  0.72260  0.02120  Biso   1.000  C
  C4       1.0000 0.88370  0.22260  0.47880  Biso   1.000  C
  H1       1.0000 0.80540  0.29970  0.94830  Biso   1.000  H
  H2       1.0000 0.19460  0.79970  0.55170  Biso   1.000  H
  H3       1.0000 0.19460  0.70030  0.05170  Biso   1.000  H
  H4       1.0000 0.80540  0.20030  0.44830  Biso   1.000  H
  C5       1.0000 0.57690  0.10520  0.97470  Biso   1.000  C
  C6       1.0000 0.42310  0.60520  0.52530  Biso   1.000  C
  C7       1.0000 0.42310  0.89480  0.02530  Biso   1.000  C
  C8       1.0000 0.57690  0.39480  0.47470  Biso   1.000  C
  H5       1.0000 0.60020  0.06830  0.05820  Biso   1.000  H
  H6       1.0000 0.39980  0.56830  0.44180  Biso   1.000  H
  H7       1.0000 0.39980  0.93170  0.94180  Biso   1.000  H
  H8       1.0000 0.60020  0.43170  0.55820  Biso   1.000  H
  N13      1.0000 0.79120  0.14990  0.99270  Biso   1.000  N
  N14      1.0000 0.20880  0.64990  0.50730  Biso   1.000  N
  N15      1.0000 0.20880  0.85010  0.00730  Biso   1.000  N
  N16      1.0000 0.79120  0.35010  0.49270  Biso   1.000  N
  H9       1.0000 0.80740  0.10670  0.04030  Biso   1.000  H
  H10      1.0000 0.19260  0.60670  0.45970  Biso   1.000  H
  H11      1.0000 0.19260  0.89330  0.95970  Biso   1.000  H
  H12      1.0000 0.80740  0.39330  0.54030  Biso   1.000  H
  C9       1.0000 0.66690  0.15790  0.92190  Biso   1.000  C
  C10      1.0000 0.33310  0.65790  0.57810  Biso   1.000  C
  C11      1.0000 0.33310  0.84210  0.07810  Biso   1.000  C
  C12      1.0000 0.66690  0.34210  0.42190  Biso   1.000  C
  C13      1.0000 0.49930  0.21170  0.73510  Biso   1.000  C
  C14      1.0000 0.50070  0.71170  0.76490  Biso   1.000  C
  C15      1.0000 0.50070  0.78830  0.26490  Biso   1.000  C
  C16      1.0000 0.49930  0.28830  0.23510  Biso   1.000  C
  H13      1.0000 0.47290  0.24860  0.65340  Biso   1.000  H
  H14      1.0000 0.52710  0.74860  0.84660  Biso   1.000  H
  H15      1.0000 0.52710  0.75140  0.34660  Biso   1.000  H
  H16      1.0000 0.47290  0.25140  0.15340  Biso   1.000  H
  C17      1.0000 0.89380  0.19940  0.00000  Biso   1.000  C
  C18      1.0000 0.10620  0.69940  0.50000  Biso   1.000  C
  C19      1.0000 0.10620  0.80060  0.00000  Biso   1.000  C
  C20      1.0000 0.89380  0.30060  0.50000  Biso   1.000  C
  C21      1.0000 0.50120  0.08570  0.41990  Biso   1.000  C
  C22      1.0000 0.49880  0.58570  0.08010  Biso   1.000  C
  C23      1.0000 0.49880  0.91430  0.58010  Biso   1.000  C
  C24      1.0000 0.50120  0.41430  0.91990  Biso   1.000  C
  C25      1.0000 0.62470  0.21330  0.80090  Biso   1.000  C
  C26      1.0000 0.37530  0.71330  0.69910  Biso   1.000  C
  C27      1.0000 0.37530  0.78670  0.19910  Biso   1.000  C
  C28      1.0000 0.62470  0.28670  0.30090  Biso   1.000  C
  H17      1.0000 0.68000  0.25080  0.76520  Biso   1.000  H
  H18      1.0000 0.32000  0.75080  0.73480  Biso   1.000  H
  H19      1.0000 0.32000  0.74920  0.23480  Biso   1.000  H
  H20      1.0000 0.68000  0.24920  0.26520  Biso   1.000  H
  C29      1.0000 0.45440  0.10790  0.90330  Biso   1.000  C
  C30      1.0000 0.54560  0.60790  0.59670  Biso   1.000  C
  C31      1.0000 0.54560  0.89210  0.09670  Biso   1.000  C
  C32      1.0000 0.45440  0.39210  0.40330  Biso   1.000  C
  H21      1.0000 0.39640  0.07210  0.94030  Biso   1.000  H
  H22      1.0000 0.60360  0.57210  0.55970  Biso   1.000  H
  H23      1.0000 0.60360  0.92790  0.05970  Biso   1.000  H
  H24      1.0000 0.39640  0.42790  0.44030  Biso   1.000  H
  C33      1.0000 0.01530  0.01970  0.72480  Biso   1.000  C
  C34      1.0000 0.98470  0.51970  0.77520  Biso   1.000  C
  C35      1.0000 0.98470  0.98030  0.27520  Biso   1.000  C
  C36      1.0000 0.01530  0.48030  0.22480  Biso   1.000  C
  C37      1.0000 0.99250  0.32040  0.00410  Biso   1.000  C
  C38      1.0000 0.00750  0.82040  0.49590  Biso   1.000  C
  C39      1.0000 0.00750  0.67960  0.99590  Biso   1.000  C
  C40      1.0000 0.99250  0.17960  0.50410  Biso   1.000  C
  H25      1.0000 0.98520  0.37190  0.98510  Biso   1.000  H
  H26      1.0000 0.01480  0.87190  0.51490  Biso   1.000  H
  H27      1.0000 0.01480  0.62810  0.01490  Biso   1.000  H
  H28      1.0000 0.98520  0.12810  0.48510  Biso   1.000  H
  C41      1.0000 0.01490  0.17020  0.04530  Biso   1.000  C
  C42      1.0000 0.98510  0.67020  0.45470  Biso   1.000  C
  C43      1.0000 0.98510  0.82980  0.95470  Biso   1.000  C
  C44      1.0000 0.01490  0.32980  0.54530  Biso   1.000  C
  H29      1.0000 0.02620  0.11850  0.05780  Biso   1.000  H
  H30      1.0000 0.97380  0.61850  0.44220  Biso   1.000  H
  H31      1.0000 0.97380  0.88150  0.94220  Biso   1.000  H
  H32      1.0000 0.02620  0.38150  0.55780  Biso   1.000  H
  N17      1.0000 0.10800  0.29342  0.05410  Biso   1.000  N
  N18      1.0000 0.89200  0.79342  0.44590  Biso   1.000  N
  N19      1.0000 0.89200  0.70658  0.94590  Biso   1.000  N
  N20      1.0000 0.10800  0.20658  0.55410  Biso   1.000  N
  C45      1.0000 0.11700  0.21790  0.07110  Biso   1.000  C
  C46      1.0000 0.88300  0.71790  0.42890  Biso   1.000  C
  C47      1.0000 0.88300  0.78210  0.92890  Biso   1.000  C
  C48      1.0000 0.11700  0.28210  0.57110  Biso   1.000  C
  H33      1.0000 0.19650  0.19720  0.10200  Biso   1.000  H
  H34      1.0000 0.80350  0.69720  0.39800  Biso   1.000  H
  H35      1.0000 0.80350  0.80280  0.89800  Biso   1.000  H
  H36      1.0000 0.19650  0.30280  0.60200  Biso   1.000  H
