data_image0
_cell_length_a       22.877
_cell_length_b       8.045
_cell_length_c       10.222
_cell_angle_alpha    90
_cell_angle_beta     90
_cell_angle_gamma    90

_symmetry_space_group_name_H-M    "P 1"
_symmetry_int_tables_number       1

loop_
  _symmetry_equiv_pos_as_xyz
  'x, y, z'

loop_
  _atom_site_label
  _atom_site_occupancy
  _atom_site_fract_x
  _atom_site_fract_y
  _atom_site_fract_z
  _atom_site_thermal_displace_type
  _atom_site_B_iso_or_equiv
  _atom_site_type_symbol
  I1       1.0000 0.00000  0.98308  0.75000  Biso   1.000  I
  I2       1.0000 0.50000  0.48308  0.75000  Biso   1.000  I
  I3       1.0000 0.00000  0.01692  0.25000  Biso   1.000  I
  I4       1.0000 0.50000  0.51692  0.25000  Biso   1.000  I
  Cu1      1.0000 0.00000  0.29680  0.75000  Biso   1.000  Cu
  Cu2      1.0000 0.50000  0.79680  0.75000  Biso   1.000  Cu
  Cu3      1.0000 0.00000  0.70320  0.25000  Biso   1.000  Cu
  Cu4      1.0000 0.50000  0.20320  0.25000  Biso   1.000  Cu
  N1       1.0000 0.04790  0.40600  0.62100  Biso   1.000  N
  N2       1.0000 0.54790  0.90600  0.62100  Biso   1.000  N
  N3       1.0000 0.95210  0.40600  0.87900  Biso   1.000  N
  N4       1.0000 0.45210  0.90600  0.87900  Biso   1.000  N
  N5       1.0000 0.95210  0.59400  0.37900  Biso   1.000  N
  N6       1.0000 0.45210  0.09400  0.37900  Biso   1.000  N
  N7       1.0000 0.04790  0.59400  0.12100  Biso   1.000  N
  N8       1.0000 0.54790  0.09400  0.12100  Biso   1.000  N
  N9       1.0000 0.09540  0.59590  0.51460  Biso   1.000  N
  N10      1.0000 0.59540  0.09590  0.51460  Biso   1.000  N
  N11      1.0000 0.90460  0.59590  0.98540  Biso   1.000  N
  N12      1.0000 0.40460  0.09590  0.98540  Biso   1.000  N
  N13      1.0000 0.90460  0.40410  0.48540  Biso   1.000  N
  N14      1.0000 0.40460  0.90410  0.48540  Biso   1.000  N
  N15      1.0000 0.09540  0.40410  0.01460  Biso   1.000  N
  N16      1.0000 0.59540  0.90410  0.01460  Biso   1.000  N
  N17      1.0000 0.10090  0.45580  0.44100  Biso   1.000  N
  N18      1.0000 0.60090  0.95580  0.44100  Biso   1.000  N
  N19      1.0000 0.89910  0.45580  0.05900  Biso   1.000  N
  N20      1.0000 0.39910  0.95580  0.05900  Biso   1.000  N
  N21      1.0000 0.89910  0.54420  0.55900  Biso   1.000  N
  N22      1.0000 0.39910  0.04420  0.55900  Biso   1.000  N
  N23      1.0000 0.10090  0.54420  0.94100  Biso   1.000  N
  N24      1.0000 0.60090  0.04420  0.94100  Biso   1.000  N
  C1       1.0000 0.06300  0.56770  0.61970  Biso   1.000  C
  C2       1.0000 0.56300  0.06770  0.61970  Biso   1.000  C
  C3       1.0000 0.93700  0.56770  0.88030  Biso   1.000  C
  C4       1.0000 0.43700  0.06770  0.88030  Biso   1.000  C
  C5       1.0000 0.93700  0.43230  0.38030  Biso   1.000  C
  C6       1.0000 0.43700  0.93230  0.38030  Biso   1.000  C
  C7       1.0000 0.06300  0.43230  0.11970  Biso   1.000  C
  C8       1.0000 0.56300  0.93230  0.11970  Biso   1.000  C
  H1       1.0000 0.05250  0.64630  0.68210  Biso   1.000  H
  H2       1.0000 0.55250  0.14630  0.68210  Biso   1.000  H
  H3       1.0000 0.94750  0.64630  0.81790  Biso   1.000  H
  H4       1.0000 0.44750  0.14630  0.81790  Biso   1.000  H
  H5       1.0000 0.94750  0.35370  0.31790  Biso   1.000  H
  H6       1.0000 0.44750  0.85370  0.31790  Biso   1.000  H
  H7       1.0000 0.05250  0.35370  0.18210  Biso   1.000  H
  H8       1.0000 0.55250  0.85370  0.18210  Biso   1.000  H
  C9       1.0000 0.07210  0.34500  0.51070  Biso   1.000  C
  C10      1.0000 0.57210  0.84500  0.51070  Biso   1.000  C
  C11      1.0000 0.92790  0.34500  0.98930  Biso   1.000  C
  C12      1.0000 0.42790  0.84500  0.98930  Biso   1.000  C
  C13      1.0000 0.92790  0.65500  0.48930  Biso   1.000  C
  C14      1.0000 0.42790  0.15500  0.48930  Biso   1.000  C
  C15      1.0000 0.07210  0.65500  0.01070  Biso   1.000  C
  C16      1.0000 0.57210  0.15500  0.01070  Biso   1.000  C
  H9       1.0000 0.06870  0.23410  0.48590  Biso   1.000  H
  H10      1.0000 0.56870  0.73410  0.48590  Biso   1.000  H
  H11      1.0000 0.93130  0.23410  0.01410  Biso   1.000  H
  H12      1.0000 0.43130  0.73410  0.01410  Biso   1.000  H
  H13      1.0000 0.93130  0.76590  0.51410  Biso   1.000  H
  H14      1.0000 0.43130  0.26590  0.51410  Biso   1.000  H
  H15      1.0000 0.06870  0.76590  0.98590  Biso   1.000  H
  H16      1.0000 0.56870  0.26590  0.98590  Biso   1.000  H
  C17      1.0000 0.12280  0.75400  0.47090  Biso   1.000  C
  C18      1.0000 0.62280  0.25400  0.47090  Biso   1.000  C
  C19      1.0000 0.87720  0.75400  0.02910  Biso   1.000  C
  C20      1.0000 0.37720  0.25400  0.02910  Biso   1.000  C
  C21      1.0000 0.87720  0.24600  0.52910  Biso   1.000  C
  C22      1.0000 0.37720  0.74600  0.52910  Biso   1.000  C
  C23      1.0000 0.12280  0.24600  0.97090  Biso   1.000  C
  C24      1.0000 0.62280  0.74600  0.97090  Biso   1.000  C
  H17      1.0000 0.10680  0.84550  0.52130  Biso   1.000  H
  H18      1.0000 0.60680  0.34550  0.52130  Biso   1.000  H
  H19      1.0000 0.89320  0.84550  0.97870  Biso   1.000  H
  H20      1.0000 0.39320  0.34550  0.97870  Biso   1.000  H
  H21      1.0000 0.89320  0.15450  0.47870  Biso   1.000  H
  H22      1.0000 0.39320  0.65450  0.47870  Biso   1.000  H
  H23      1.0000 0.10680  0.15450  0.02130  Biso   1.000  H
  H24      1.0000 0.60680  0.65450  0.02130  Biso   1.000  H
  H25      1.0000 0.11340  0.77310  0.37960  Biso   1.000  H
  H26      1.0000 0.61340  0.27310  0.37960  Biso   1.000  H
  H27      1.0000 0.88660  0.77310  0.12040  Biso   1.000  H
  H28      1.0000 0.38660  0.27310  0.12040  Biso   1.000  H
  H29      1.0000 0.88660  0.22690  0.62040  Biso   1.000  H
  H30      1.0000 0.38660  0.72690  0.62040  Biso   1.000  H
  H31      1.0000 0.11340  0.22690  0.87960  Biso   1.000  H
  H32      1.0000 0.61340  0.72690  0.87960  Biso   1.000  H
  C25      1.0000 0.18840  0.75100  0.48730  Biso   1.000  C
  C26      1.0000 0.68840  0.25100  0.48730  Biso   1.000  C
  C27      1.0000 0.81160  0.75100  0.01270  Biso   1.000  C
  C28      1.0000 0.31160  0.25100  0.01270  Biso   1.000  C
  C29      1.0000 0.81160  0.24900  0.51270  Biso   1.000  C
  C30      1.0000 0.31160  0.74900  0.51270  Biso   1.000  C
  C31      1.0000 0.18840  0.24900  0.98730  Biso   1.000  C
  C32      1.0000 0.68840  0.74900  0.98730  Biso   1.000  C
  C33      1.0000 0.19950  0.66970  0.25180  Biso   1.000  C
  C34      1.0000 0.69950  0.16970  0.25180  Biso   1.000  C
  C35      1.0000 0.80050  0.66970  0.24820  Biso   1.000  C
  C36      1.0000 0.30050  0.16970  0.24820  Biso   1.000  C
  C37      1.0000 0.80050  0.33030  0.74820  Biso   1.000  C
  C38      1.0000 0.30050  0.83030  0.74820  Biso   1.000  C
  C39      1.0000 0.19950  0.33030  0.75180  Biso   1.000  C
  C40      1.0000 0.69950  0.83030  0.75180  Biso   1.000  C
  H33      1.0000 0.15900  0.66600  0.24440  Biso   1.000  H
  H34      1.0000 0.65900  0.16600  0.24440  Biso   1.000  H
  H35      1.0000 0.84100  0.66600  0.25560  Biso   1.000  H
  H36      1.0000 0.34100  0.16600  0.25560  Biso   1.000  H
  H37      1.0000 0.84100  0.33400  0.75560  Biso   1.000  H
  H38      1.0000 0.34100  0.83400  0.75560  Biso   1.000  H
  H39      1.0000 0.15900  0.33400  0.74440  Biso   1.000  H
  H40      1.0000 0.65900  0.83400  0.74440  Biso   1.000  H
  C41      1.0000 0.23280  0.64700  0.14360  Biso   1.000  C
  C42      1.0000 0.73280  0.14700  0.14360  Biso   1.000  C
  C43      1.0000 0.76720  0.64700  0.35640  Biso   1.000  C
  C44      1.0000 0.26720  0.14700  0.35640  Biso   1.000  C
  C45      1.0000 0.76720  0.35300  0.85640  Biso   1.000  C
  C46      1.0000 0.26720  0.85300  0.85640  Biso   1.000  C
  C47      1.0000 0.23280  0.35300  0.64360  Biso   1.000  C
  C48      1.0000 0.73280  0.85300  0.64360  Biso   1.000  C
  H41      1.0000 0.21570  0.63040  0.06210  Biso   1.000  H
  H42      1.0000 0.71570  0.13040  0.06210  Biso   1.000  H
  H43      1.0000 0.78430  0.63040  0.43790  Biso   1.000  H
  H44      1.0000 0.28430  0.13040  0.43790  Biso   1.000  H
  H45      1.0000 0.78430  0.36960  0.93790  Biso   1.000  H
  H46      1.0000 0.28430  0.86960  0.93790  Biso   1.000  H
  H47      1.0000 0.21570  0.36960  0.56210  Biso   1.000  H
  H48      1.0000 0.71570  0.86960  0.56210  Biso   1.000  H
  C49      1.0000 0.29370  0.64800  0.15800  Biso   1.000  C
  C50      1.0000 0.79370  0.14800  0.15800  Biso   1.000  C
  C51      1.0000 0.70630  0.64800  0.34200  Biso   1.000  C
  C52      1.0000 0.20630  0.14800  0.34200  Biso   1.000  C
  C53      1.0000 0.70630  0.35200  0.84200  Biso   1.000  C
  C54      1.0000 0.20630  0.85200  0.84200  Biso   1.000  C
  C55      1.0000 0.29370  0.35200  0.65800  Biso   1.000  C
  C56      1.0000 0.79370  0.85200  0.65800  Biso   1.000  C
  H49      1.0000 0.31700  0.63360  0.08400  Biso   1.000  H
  H50      1.0000 0.81700  0.13360  0.08400  Biso   1.000  H
  H51      1.0000 0.68300  0.63360  0.41600  Biso   1.000  H
  H52      1.0000 0.18300  0.13360  0.41600  Biso   1.000  H
  H53      1.0000 0.68300  0.36640  0.91600  Biso   1.000  H
  H54      1.0000 0.18300  0.86640  0.91600  Biso   1.000  H
  H55      1.0000 0.31700  0.36640  0.58400  Biso   1.000  H
  H56      1.0000 0.81700  0.86640  0.58400  Biso   1.000  H
  C57      1.0000 0.31870  0.66890  0.27200  Biso   1.000  C
  C58      1.0000 0.81870  0.16890  0.27200  Biso   1.000  C
  C59      1.0000 0.68130  0.66890  0.22800  Biso   1.000  C
  C60      1.0000 0.18130  0.16890  0.22800  Biso   1.000  C
  C61      1.0000 0.68130  0.33110  0.72800  Biso   1.000  C
  C62      1.0000 0.18130  0.83110  0.72800  Biso   1.000  C
  C63      1.0000 0.31870  0.33110  0.77200  Biso   1.000  C
  C64      1.0000 0.81870  0.83110  0.77200  Biso   1.000  C
  H57      1.0000 0.35920  0.66160  0.27760  Biso   1.000  H
  H58      1.0000 0.85920  0.16160  0.27760  Biso   1.000  H
  H59      1.0000 0.64080  0.66160  0.22240  Biso   1.000  H
  H60      1.0000 0.14080  0.16160  0.22240  Biso   1.000  H
  H61      1.0000 0.64080  0.33840  0.72240  Biso   1.000  H
  H62      1.0000 0.14080  0.83840  0.72240  Biso   1.000  H
  H63      1.0000 0.35920  0.33840  0.77760  Biso   1.000  H
  H64      1.0000 0.85920  0.83840  0.77760  Biso   1.000  H
  C65      1.0000 0.22450  0.69900  0.37260  Biso   1.000  C
  C66      1.0000 0.72450  0.19900  0.37260  Biso   1.000  C
  C67      1.0000 0.77550  0.69900  0.12740  Biso   1.000  C
  C68      1.0000 0.27550  0.19900  0.12740  Biso   1.000  C
  C69      1.0000 0.77550  0.30100  0.62740  Biso   1.000  C
  C70      1.0000 0.27550  0.80100  0.62740  Biso   1.000  C
  C71      1.0000 0.22450  0.30100  0.87260  Biso   1.000  C
  C72      1.0000 0.72450  0.80100  0.87260  Biso   1.000  C
  C73      1.0000 0.21310  0.79800  0.61120  Biso   1.000  C
  C74      1.0000 0.71310  0.29800  0.61120  Biso   1.000  C
  C75      1.0000 0.78690  0.79800  0.88880  Biso   1.000  C
  C76      1.0000 0.28690  0.29800  0.88880  Biso   1.000  C
  C77      1.0000 0.78690  0.20200  0.38880  Biso   1.000  C
  C78      1.0000 0.28690  0.70200  0.38880  Biso   1.000  C
  C79      1.0000 0.21310  0.20200  0.11120  Biso   1.000  C
  C80      1.0000 0.71310  0.70200  0.11120  Biso   1.000  C
