data_image0
_cell_length_a       11.659
_cell_length_b       12.0484
_cell_length_c       28.1225
_cell_angle_alpha    90
_cell_angle_beta     90
_cell_angle_gamma    90

_symmetry_space_group_name_H-M    "P 1"
_symmetry_int_tables_number       1

loop_
  _symmetry_equiv_pos_as_xyz
  'x, y, z'

loop_
  _atom_site_label
  _atom_site_occupancy
  _atom_site_fract_x
  _atom_site_fract_y
  _atom_site_fract_z
  _atom_site_thermal_displace_type
  _atom_site_B_iso_or_equiv
  _atom_site_type_symbol
  Cu1      1.0000 0.21461  0.10089  0.41657  Biso   1.000  Cu
  Cu2      1.0000 0.28539  0.89911  0.91657  Biso   1.000  Cu
  Cu3      1.0000 0.71461  0.39911  0.58343  Biso   1.000  Cu
  Cu4      1.0000 0.78539  0.60089  0.08343  Biso   1.000  Cu
  Cu5      1.0000 0.78539  0.89911  0.58343  Biso   1.000  Cu
  Cu6      1.0000 0.71461  0.10089  0.08343  Biso   1.000  Cu
  Cu7      1.0000 0.28539  0.60089  0.41657  Biso   1.000  Cu
  Cu8      1.0000 0.21461  0.39911  0.91657  Biso   1.000  Cu
  Cu9      1.0000 0.96338  0.98300  0.40779  Biso   1.000  Cu
  Cu10     1.0000 0.53662  0.01700  0.90779  Biso   1.000  Cu
  Cu11     1.0000 0.46338  0.51700  0.59221  Biso   1.000  Cu
  Cu12     1.0000 0.03662  0.48300  0.09221  Biso   1.000  Cu
  Cu13     1.0000 0.03662  0.01700  0.59221  Biso   1.000  Cu
  Cu14     1.0000 0.46338  0.98300  0.09221  Biso   1.000  Cu
  Cu15     1.0000 0.53662  0.48300  0.40779  Biso   1.000  Cu
  Cu16     1.0000 0.96338  0.51700  0.90779  Biso   1.000  Cu
  S1       1.0000 0.16060  0.95683  0.36165  Biso   1.000  S
  S2       1.0000 0.33940  0.04317  0.86165  Biso   1.000  S
  S3       1.0000 0.66060  0.54317  0.63835  Biso   1.000  S
  S4       1.0000 0.83940  0.45683  0.13835  Biso   1.000  S
  S5       1.0000 0.83940  0.04317  0.63835  Biso   1.000  S
  S6       1.0000 0.66060  0.95683  0.13835  Biso   1.000  S
  S7       1.0000 0.33940  0.45683  0.36165  Biso   1.000  S
  S8       1.0000 0.16060  0.54317  0.86165  Biso   1.000  S
  S9       1.0000 0.01838  0.16487  0.43944  Biso   1.000  S
  S10      1.0000 0.48162  0.83513  0.93944  Biso   1.000  S
  S11      1.0000 0.51838  0.33513  0.56056  Biso   1.000  S
  S12      1.0000 0.98162  0.66487  0.06056  Biso   1.000  S
  S13      1.0000 0.98162  0.83513  0.56056  Biso   1.000  S
  S14      1.0000 0.51838  0.16487  0.06056  Biso   1.000  S
  S15      1.0000 0.48162  0.66487  0.43944  Biso   1.000  S
  S16      1.0000 0.01838  0.33513  0.93944  Biso   1.000  S
  S17      1.0000 0.72941  0.99891  0.27260  Biso   1.000  S
  S18      1.0000 0.77059  0.00109  0.77260  Biso   1.000  S
  S19      1.0000 0.22941  0.50109  0.72740  Biso   1.000  S
  S20      1.0000 0.27059  0.49891  0.22740  Biso   1.000  S
  S21      1.0000 0.27059  0.00109  0.72740  Biso   1.000  S
  S22      1.0000 0.22941  0.99891  0.22740  Biso   1.000  S
  S23      1.0000 0.77059  0.49891  0.27260  Biso   1.000  S
  S24      1.0000 0.72941  0.50109  0.77260  Biso   1.000  S
  N1       1.0000 0.22290  0.74220  0.39192  Biso   1.000  N
  N2       1.0000 0.27710  0.25780  0.89192  Biso   1.000  N
  N3       1.0000 0.72290  0.75780  0.60808  Biso   1.000  N
  N4       1.0000 0.77710  0.24220  0.10808  Biso   1.000  N
  N5       1.0000 0.77710  0.25780  0.60808  Biso   1.000  N
  N6       1.0000 0.72290  0.74220  0.10808  Biso   1.000  N
  N7       1.0000 0.27710  0.24220  0.39192  Biso   1.000  N
  N8       1.0000 0.22290  0.75780  0.89192  Biso   1.000  N
  N9       1.0000 0.03010  0.11130  0.53661  Biso   1.000  N
  N10      1.0000 0.46990  0.88870  0.03661  Biso   1.000  N
  N11      1.0000 0.53010  0.38870  0.46339  Biso   1.000  N
  N12      1.0000 0.96990  0.61130  0.96339  Biso   1.000  N
  N13      1.0000 0.96990  0.88870  0.46339  Biso   1.000  N
  N14      1.0000 0.53010  0.11130  0.96339  Biso   1.000  N
  N15      1.0000 0.46990  0.61130  0.53661  Biso   1.000  N
  N16      1.0000 0.03010  0.38870  0.03661  Biso   1.000  N
  N17      1.0000 0.84690  0.98640  0.35864  Biso   1.000  N
  N18      1.0000 0.65310  0.01360  0.85864  Biso   1.000  N
  N19      1.0000 0.34690  0.51360  0.64136  Biso   1.000  N
  N20      1.0000 0.15310  0.48640  0.14136  Biso   1.000  N
  N21      1.0000 0.15310  0.01360  0.64136  Biso   1.000  N
  N22      1.0000 0.34690  0.98640  0.14136  Biso   1.000  N
  N23      1.0000 0.65310  0.48640  0.35864  Biso   1.000  N
  N24      1.0000 0.84690  0.51360  0.85864  Biso   1.000  N
  N25      1.0000 0.28920  0.03750  0.47606  Biso   1.000  N
  N26      1.0000 0.21080  0.96250  0.97606  Biso   1.000  N
  N27      1.0000 0.78920  0.46250  0.52394  Biso   1.000  N
  N28      1.0000 0.71080  0.53750  0.02394  Biso   1.000  N
  N29      1.0000 0.71080  0.96250  0.52394  Biso   1.000  N
  N30      1.0000 0.78920  0.03750  0.02394  Biso   1.000  N
  N31      1.0000 0.21080  0.53750  0.47606  Biso   1.000  N
  N32      1.0000 0.28920  0.46250  0.97606  Biso   1.000  N
  N33      1.0000 0.52110  0.81910  0.68899  Biso   1.000  N
  N34      1.0000 0.97890  0.18090  0.18899  Biso   1.000  N
  N35      1.0000 0.02110  0.68090  0.31101  Biso   1.000  N
  N36      1.0000 0.47890  0.31910  0.81101  Biso   1.000  N
  N37      1.0000 0.47890  0.18090  0.31101  Biso   1.000  N
  N38      1.0000 0.02110  0.81910  0.81101  Biso   1.000  N
  N39      1.0000 0.97890  0.31910  0.68899  Biso   1.000  N
  N40      1.0000 0.52110  0.68090  0.18899  Biso   1.000  N
  C1       1.0000 0.19860  0.83110  0.38049  Biso   1.000  C
  C2       1.0000 0.30140  0.16890  0.88049  Biso   1.000  C
  C3       1.0000 0.69860  0.66890  0.61951  Biso   1.000  C
  C4       1.0000 0.80140  0.33110  0.11951  Biso   1.000  C
  C5       1.0000 0.80140  0.16890  0.61951  Biso   1.000  C
  C6       1.0000 0.69860  0.83110  0.11951  Biso   1.000  C
  C7       1.0000 0.30140  0.33110  0.38049  Biso   1.000  C
  C8       1.0000 0.19860  0.66890  0.88049  Biso   1.000  C
  C9       1.0000 0.02570  0.13390  0.49690  Biso   1.000  C
  C10      1.0000 0.47430  0.86610  0.99690  Biso   1.000  C
  C11      1.0000 0.52570  0.36610  0.50310  Biso   1.000  C
  C12      1.0000 0.97430  0.63390  0.00310  Biso   1.000  C
  C13      1.0000 0.97430  0.86610  0.50310  Biso   1.000  C
  C14      1.0000 0.52570  0.13390  0.00310  Biso   1.000  C
  C15      1.0000 0.47430  0.63390  0.49690  Biso   1.000  C
  C16      1.0000 0.02570  0.36610  0.99690  Biso   1.000  C
  C17      1.0000 0.79890  0.99210  0.32301  Biso   1.000  C
  C18      1.0000 0.70110  0.00790  0.82301  Biso   1.000  C
  C19      1.0000 0.29890  0.50790  0.67699  Biso   1.000  C
  C20      1.0000 0.20110  0.49210  0.17699  Biso   1.000  C
  C21      1.0000 0.20110  0.00790  0.67699  Biso   1.000  C
  C22      1.0000 0.29890  0.99210  0.17699  Biso   1.000  C
  C23      1.0000 0.70110  0.49210  0.32301  Biso   1.000  C
  C24      1.0000 0.79890  0.50790  0.82301  Biso   1.000  C
  C25      1.0000 0.27030  0.93300  0.49024  Biso   1.000  C
  C26      1.0000 0.22970  0.06700  0.99024  Biso   1.000  C
  C27      1.0000 0.77030  0.56700  0.50976  Biso   1.000  C
  C28      1.0000 0.72970  0.43300  0.00976  Biso   1.000  C
  C29      1.0000 0.72970  0.06700  0.50976  Biso   1.000  C
  C30      1.0000 0.77030  0.93300  0.00976  Biso   1.000  C
  C31      1.0000 0.22970  0.43300  0.49024  Biso   1.000  C
  C32      1.0000 0.27030  0.56700  0.99024  Biso   1.000  C
  H1       1.0000 0.22580  0.88750  0.47100  Biso   1.000  H
  H2       1.0000 0.27420  0.11250  0.97100  Biso   1.000  H
  H3       1.0000 0.72580  0.61250  0.52900  Biso   1.000  H
  H4       1.0000 0.77420  0.38750  0.02900  Biso   1.000  H
  H5       1.0000 0.77420  0.11250  0.52900  Biso   1.000  H
  H6       1.0000 0.72580  0.88750  0.02900  Biso   1.000  H
  H7       1.0000 0.27420  0.38750  0.47100  Biso   1.000  H
  H8       1.0000 0.22580  0.61250  0.97100  Biso   1.000  H
  C33      1.0000 0.31340  0.88910  0.53188  Biso   1.000  C
  C34      1.0000 0.18660  0.11090  0.03188  Biso   1.000  C
  C35      1.0000 0.81340  0.61090  0.46812  Biso   1.000  C
  C36      1.0000 0.68660  0.38910  0.96812  Biso   1.000  C
  C37      1.0000 0.68660  0.11090  0.46812  Biso   1.000  C
  C38      1.0000 0.81340  0.88910  0.96812  Biso   1.000  C
  C39      1.0000 0.18660  0.38910  0.53188  Biso   1.000  C
  C40      1.0000 0.31340  0.61090  0.03188  Biso   1.000  C
  H9       1.0000 0.29840  0.81550  0.53970  Biso   1.000  H
  H10      1.0000 0.20160  0.18450  0.03970  Biso   1.000  H
  H11      1.0000 0.79840  0.68450  0.46030  Biso   1.000  H
  H12      1.0000 0.70160  0.31550  0.96030  Biso   1.000  H
  H13      1.0000 0.70160  0.18450  0.46030  Biso   1.000  H
  H14      1.0000 0.79840  0.81550  0.96030  Biso   1.000  H
  H15      1.0000 0.20160  0.31550  0.53970  Biso   1.000  H
  H16      1.0000 0.29840  0.68450  0.03970  Biso   1.000  H
  C41      1.0000 0.37840  0.95370  0.56186  Biso   1.000  C
  C42      1.0000 0.12160  0.04630  0.06186  Biso   1.000  C
  C43      1.0000 0.87840  0.54630  0.43814  Biso   1.000  C
  C44      1.0000 0.62160  0.45370  0.93814  Biso   1.000  C
  C45      1.0000 0.62160  0.04630  0.43814  Biso   1.000  C
  C46      1.0000 0.87840  0.95370  0.93814  Biso   1.000  C
  C47      1.0000 0.12160  0.45370  0.56186  Biso   1.000  C
  C48      1.0000 0.37840  0.54630  0.06186  Biso   1.000  C
  C49      1.0000 0.39610  0.06180  0.54761  Biso   1.000  C
  C50      1.0000 0.10390  0.93820  0.04761  Biso   1.000  C
  C51      1.0000 0.89610  0.43820  0.45239  Biso   1.000  C
  C52      1.0000 0.60390  0.56180  0.95239  Biso   1.000  C
  C53      1.0000 0.60390  0.93820  0.45239  Biso   1.000  C
  C54      1.0000 0.89610  0.06180  0.95239  Biso   1.000  C
  C55      1.0000 0.10390  0.56180  0.54761  Biso   1.000  C
  C56      1.0000 0.39610  0.43820  0.04761  Biso   1.000  C
  H17      1.0000 0.43830  0.10960  0.56680  Biso   1.000  H
  H18      1.0000 0.06170  0.89040  0.06680  Biso   1.000  H
  H19      1.0000 0.93830  0.39040  0.43320  Biso   1.000  H
  H20      1.0000 0.56170  0.60960  0.93320  Biso   1.000  H
  H21      1.0000 0.56170  0.89040  0.43320  Biso   1.000  H
  H22      1.0000 0.93830  0.10960  0.93320  Biso   1.000  H
  H23      1.0000 0.06170  0.60960  0.56680  Biso   1.000  H
  H24      1.0000 0.43830  0.39040  0.06680  Biso   1.000  H
  C57      1.0000 0.35210  0.09950  0.50523  Biso   1.000  C
  C58      1.0000 0.14790  0.90050  0.00523  Biso   1.000  C
  C59      1.0000 0.85210  0.40050  0.49477  Biso   1.000  C
  C60      1.0000 0.64790  0.59950  0.99477  Biso   1.000  C
  C61      1.0000 0.64790  0.90050  0.49477  Biso   1.000  C
  C62      1.0000 0.85210  0.09950  0.99477  Biso   1.000  C
  C63      1.0000 0.14790  0.59950  0.50523  Biso   1.000  C
  C64      1.0000 0.35210  0.40050  0.00523  Biso   1.000  C
  H25      1.0000 0.36710  0.17260  0.49650  Biso   1.000  H
  H26      1.0000 0.13290  0.82740  0.99650  Biso   1.000  H
  H27      1.0000 0.86710  0.32740  0.50350  Biso   1.000  H
  H28      1.0000 0.63290  0.67260  0.00350  Biso   1.000  H
  H29      1.0000 0.63290  0.82740  0.50350  Biso   1.000  H
  H30      1.0000 0.86710  0.17260  0.00350  Biso   1.000  H
  H31      1.0000 0.13290  0.67260  0.49650  Biso   1.000  H
  H32      1.0000 0.36710  0.32740  0.99650  Biso   1.000  H
  C65      1.0000 0.55600  0.91850  0.67326  Biso   1.000  C
  C66      1.0000 0.94400  0.08150  0.17326  Biso   1.000  C
  C67      1.0000 0.05600  0.58150  0.32674  Biso   1.000  C
  C68      1.0000 0.44400  0.41850  0.82674  Biso   1.000  C
  C69      1.0000 0.44400  0.08150  0.32674  Biso   1.000  C
  C70      1.0000 0.05600  0.91850  0.82674  Biso   1.000  C
  C71      1.0000 0.94400  0.41850  0.67326  Biso   1.000  C
  C72      1.0000 0.55600  0.58150  0.17326  Biso   1.000  C
  H33      1.0000 0.61190  0.95700  0.69010  Biso   1.000  H
  H34      1.0000 0.88810  0.04300  0.19010  Biso   1.000  H
  H35      1.0000 0.11190  0.54300  0.30990  Biso   1.000  H
  H36      1.0000 0.38810  0.45700  0.80990  Biso   1.000  H
  H37      1.0000 0.38810  0.04300  0.30990  Biso   1.000  H
  H38      1.0000 0.11190  0.95700  0.80990  Biso   1.000  H
  H39      1.0000 0.88810  0.45700  0.69010  Biso   1.000  H
  H40      1.0000 0.61190  0.54300  0.19010  Biso   1.000  H
  C73      1.0000 0.51110  0.96440  0.63284  Biso   1.000  C
  C74      1.0000 0.98890  0.03560  0.13284  Biso   1.000  C
  C75      1.0000 0.01110  0.53560  0.36716  Biso   1.000  C
  C76      1.0000 0.48890  0.46440  0.86716  Biso   1.000  C
  C77      1.0000 0.48890  0.03560  0.36716  Biso   1.000  C
  C78      1.0000 0.01110  0.96440  0.86716  Biso   1.000  C
  C79      1.0000 0.98890  0.46440  0.63284  Biso   1.000  C
  C80      1.0000 0.51110  0.53560  0.13284  Biso   1.000  C
  H41      1.0000 0.53700  0.03330  0.62250  Biso   1.000  H
  H42      1.0000 0.96300  0.96670  0.12250  Biso   1.000  H
  H43      1.0000 0.03700  0.46670  0.37750  Biso   1.000  H
  H44      1.0000 0.46300  0.53330  0.87750  Biso   1.000  H
  H45      1.0000 0.46300  0.96670  0.37750  Biso   1.000  H
  H46      1.0000 0.03700  0.03330  0.87750  Biso   1.000  H
  H47      1.0000 0.96300  0.53330  0.62250  Biso   1.000  H
  H48      1.0000 0.53700  0.46670  0.12250  Biso   1.000  H
  C81      1.0000 0.42650  0.90820  0.60698  Biso   1.000  C
  C82      1.0000 0.07350  0.09180  0.10698  Biso   1.000  C
  C83      1.0000 0.92650  0.59180  0.39302  Biso   1.000  C
  C84      1.0000 0.57350  0.40820  0.89302  Biso   1.000  C
  C85      1.0000 0.57350  0.09180  0.39302  Biso   1.000  C
  C86      1.0000 0.92650  0.90820  0.89302  Biso   1.000  C
  C87      1.0000 0.07350  0.40820  0.60698  Biso   1.000  C
  C88      1.0000 0.42650  0.59180  0.10698  Biso   1.000  C
  C89      1.0000 0.39140  0.80620  0.62457  Biso   1.000  C
  C90      1.0000 0.10860  0.19380  0.12457  Biso   1.000  C
  C91      1.0000 0.89140  0.69380  0.37543  Biso   1.000  C
  C92      1.0000 0.60860  0.30620  0.87543  Biso   1.000  C
  C93      1.0000 0.60860  0.19380  0.37543  Biso   1.000  C
  C94      1.0000 0.89140  0.80620  0.87543  Biso   1.000  C
  C95      1.0000 0.10860  0.30620  0.62457  Biso   1.000  C
  C96      1.0000 0.39140  0.69380  0.12457  Biso   1.000  C
  H49      1.0000 0.33490  0.76630  0.60860  Biso   1.000  H
  H50      1.0000 0.16510  0.23370  0.10860  Biso   1.000  H
  H51      1.0000 0.83490  0.73370  0.39140  Biso   1.000  H
  H52      1.0000 0.66510  0.26630  0.89140  Biso   1.000  H
  H53      1.0000 0.66510  0.23370  0.39140  Biso   1.000  H
  H54      1.0000 0.83490  0.76630  0.89140  Biso   1.000  H
  H55      1.0000 0.16510  0.26630  0.60860  Biso   1.000  H
  H56      1.0000 0.33490  0.73370  0.10860  Biso   1.000  H
  C97      1.0000 0.43880  0.76370  0.66505  Biso   1.000  C
  C98      1.0000 0.06120  0.23630  0.16505  Biso   1.000  C
  C99      1.0000 0.93880  0.73630  0.33495  Biso   1.000  C
  C100     1.0000 0.56120  0.26370  0.83495  Biso   1.000  C
  C101     1.0000 0.56120  0.23630  0.33495  Biso   1.000  C
  C102     1.0000 0.93880  0.76370  0.83495  Biso   1.000  C
  C103     1.0000 0.06120  0.26370  0.66505  Biso   1.000  C
  C104     1.0000 0.43880  0.73630  0.16505  Biso   1.000  C
  H57      1.0000 0.41400  0.69530  0.67630  Biso   1.000  H
  H58      1.0000 0.08600  0.30470  0.17630  Biso   1.000  H
  H59      1.0000 0.91400  0.80470  0.32370  Biso   1.000  H
  H60      1.0000 0.58600  0.19530  0.82370  Biso   1.000  H
  H61      1.0000 0.58600  0.30470  0.32370  Biso   1.000  H
  H62      1.0000 0.91400  0.69530  0.82370  Biso   1.000  H
  H63      1.0000 0.08600  0.19530  0.67630  Biso   1.000  H
  H64      1.0000 0.41400  0.80470  0.17630  Biso   1.000  H
  C105     1.0000 0.57550  0.76830  0.73190  Biso   1.000  C
  C106     1.0000 0.92450  0.23170  0.23190  Biso   1.000  C
  C107     1.0000 0.07550  0.73170  0.26810  Biso   1.000  C
  C108     1.0000 0.42450  0.26830  0.76810  Biso   1.000  C
  C109     1.0000 0.42450  0.23170  0.26810  Biso   1.000  C
  C110     1.0000 0.07550  0.76830  0.76810  Biso   1.000  C
  C111     1.0000 0.92450  0.26830  0.73190  Biso   1.000  C
  C112     1.0000 0.57550  0.73170  0.23190  Biso   1.000  C
  H65      1.0000 0.65430  0.79360  0.73400  Biso   1.000  H
  H66      1.0000 0.84570  0.20640  0.23400  Biso   1.000  H
  H67      1.0000 0.15430  0.70640  0.26600  Biso   1.000  H
  H68      1.0000 0.34570  0.29360  0.76600  Biso   1.000  H
  H69      1.0000 0.34570  0.20640  0.26600  Biso   1.000  H
  H70      1.0000 0.15430  0.79360  0.76600  Biso   1.000  H
  H71      1.0000 0.84570  0.29360  0.73400  Biso   1.000  H
  H72      1.0000 0.65430  0.70640  0.23400  Biso   1.000  H
  H73      1.0000 0.57690  0.68830  0.72800  Biso   1.000  H
  H74      1.0000 0.92310  0.31170  0.22800  Biso   1.000  H
  H75      1.0000 0.07690  0.81170  0.27200  Biso   1.000  H
  H76      1.0000 0.42310  0.18830  0.77200  Biso   1.000  H
  H77      1.0000 0.42310  0.31170  0.27200  Biso   1.000  H
  H78      1.0000 0.07690  0.68830  0.77200  Biso   1.000  H
  H79      1.0000 0.92310  0.18830  0.72800  Biso   1.000  H
  H80      1.0000 0.57690  0.81170  0.22800  Biso   1.000  H
  C113     1.0000 0.51430  0.79600  0.77827  Biso   1.000  C
  C114     1.0000 0.98570  0.20400  0.27827  Biso   1.000  C
  C115     1.0000 0.01430  0.70400  0.22173  Biso   1.000  C
  C116     1.0000 0.48570  0.29600  0.72173  Biso   1.000  C
  C117     1.0000 0.48570  0.20400  0.22173  Biso   1.000  C
  C118     1.0000 0.01430  0.79600  0.72173  Biso   1.000  C
  C119     1.0000 0.98570  0.29600  0.77827  Biso   1.000  C
  C120     1.0000 0.51430  0.70400  0.27827  Biso   1.000  C
  H81      1.0000 0.51070  0.87700  0.78100  Biso   1.000  H
  H82      1.0000 0.98930  0.12300  0.28100  Biso   1.000  H
  H83      1.0000 0.01070  0.62300  0.21900  Biso   1.000  H
  H84      1.0000 0.48930  0.37700  0.71900  Biso   1.000  H
  H85      1.0000 0.48930  0.12300  0.21900  Biso   1.000  H
  H86      1.0000 0.01070  0.87700  0.71900  Biso   1.000  H
  H87      1.0000 0.98930  0.37700  0.78100  Biso   1.000  H
  H88      1.0000 0.51070  0.62300  0.28100  Biso   1.000  H
  C121     1.0000 0.58830  0.75250  0.81889  Biso   1.000  C
  C122     1.0000 0.91170  0.24750  0.31889  Biso   1.000  C
  C123     1.0000 0.08830  0.74750  0.18111  Biso   1.000  C
  C124     1.0000 0.41170  0.25250  0.68111  Biso   1.000  C
  C125     1.0000 0.41170  0.24750  0.18111  Biso   1.000  C
  C126     1.0000 0.08830  0.75250  0.68111  Biso   1.000  C
  C127     1.0000 0.91170  0.25250  0.81889  Biso   1.000  C
  C128     1.0000 0.58830  0.74750  0.31889  Biso   1.000  C
  H89      1.0000 0.59620  0.67350  0.81610  Biso   1.000  H
  H90      1.0000 0.90380  0.32650  0.31610  Biso   1.000  H
  H91      1.0000 0.09620  0.82650  0.18390  Biso   1.000  H
  H92      1.0000 0.40380  0.17350  0.68390  Biso   1.000  H
  H93      1.0000 0.40380  0.32650  0.18390  Biso   1.000  H
  H94      1.0000 0.09620  0.67350  0.68390  Biso   1.000  H
  H95      1.0000 0.90380  0.17350  0.81610  Biso   1.000  H
  H96      1.0000 0.59620  0.82650  0.31610  Biso   1.000  H
  H97      1.0000 0.55250  0.77010  0.84870  Biso   1.000  H
  H98      1.0000 0.94750  0.22990  0.34870  Biso   1.000  H
  H99      1.0000 0.05250  0.72990  0.15130  Biso   1.000  H
  H100     1.0000 0.44750  0.27010  0.65130  Biso   1.000  H
  H101     1.0000 0.44750  0.22990  0.15130  Biso   1.000  H
  H102     1.0000 0.05250  0.77010  0.65130  Biso   1.000  H
  H103     1.0000 0.94750  0.27010  0.84870  Biso   1.000  H
  H104     1.0000 0.55250  0.72990  0.34870  Biso   1.000  H
  H105     1.0000 0.66260  0.78660  0.81750  Biso   1.000  H
  H106     1.0000 0.83740  0.21340  0.31750  Biso   1.000  H
  H107     1.0000 0.16260  0.71340  0.18250  Biso   1.000  H
  H108     1.0000 0.33740  0.28660  0.68250  Biso   1.000  H
  H109     1.0000 0.33740  0.21340  0.18250  Biso   1.000  H
  H110     1.0000 0.16260  0.78660  0.68250  Biso   1.000  H
  H111     1.0000 0.83740  0.28660  0.81750  Biso   1.000  H
  H112     1.0000 0.66260  0.71340  0.31750  Biso   1.000  H
  C129     1.0000 0.39320  0.75190  0.78090  Biso   1.000  C
  C130     1.0000 0.10680  0.24810  0.28090  Biso   1.000  C
  C131     1.0000 0.89320  0.74810  0.21910  Biso   1.000  C
  C132     1.0000 0.60680  0.25190  0.71910  Biso   1.000  C
  C133     1.0000 0.60680  0.24810  0.21910  Biso   1.000  C
  C134     1.0000 0.89320  0.75190  0.71910  Biso   1.000  C
  C135     1.0000 0.10680  0.25190  0.78090  Biso   1.000  C
  C136     1.0000 0.39320  0.74810  0.28090  Biso   1.000  C
  H113     1.0000 0.34670  0.78850  0.75740  Biso   1.000  H
  H114     1.0000 0.15330  0.21150  0.25740  Biso   1.000  H
  H115     1.0000 0.84670  0.71150  0.24260  Biso   1.000  H
  H116     1.0000 0.65330  0.28850  0.74260  Biso   1.000  H
  H117     1.0000 0.65330  0.21150  0.24260  Biso   1.000  H
  H118     1.0000 0.84670  0.78850  0.74260  Biso   1.000  H
  H119     1.0000 0.15330  0.28850  0.75740  Biso   1.000  H
  H120     1.0000 0.34670  0.71150  0.25740  Biso   1.000  H
  H121     1.0000 0.36230  0.76580  0.81200  Biso   1.000  H
  H122     1.0000 0.13770  0.23420  0.31200  Biso   1.000  H
  H123     1.0000 0.86230  0.73420  0.18800  Biso   1.000  H
  H124     1.0000 0.63770  0.26580  0.68800  Biso   1.000  H
  H125     1.0000 0.63770  0.23420  0.18800  Biso   1.000  H
  H126     1.0000 0.86230  0.76580  0.68800  Biso   1.000  H
  H127     1.0000 0.13770  0.26580  0.81200  Biso   1.000  H
  H128     1.0000 0.36230  0.73420  0.31200  Biso   1.000  H
  H129     1.0000 0.39360  0.67350  0.77490  Biso   1.000  H
  H130     1.0000 0.10640  0.32650  0.27490  Biso   1.000  H
  H131     1.0000 0.89360  0.82650  0.22510  Biso   1.000  H
  H132     1.0000 0.60640  0.17350  0.72510  Biso   1.000  H
  H133     1.0000 0.60640  0.32650  0.22510  Biso   1.000  H
  H134     1.0000 0.89360  0.67350  0.72510  Biso   1.000  H
  H135     1.0000 0.10640  0.17350  0.77490  Biso   1.000  H
  H136     1.0000 0.39360  0.82650  0.27490  Biso   1.000  H
