data_image0
_cell_length_a       4.0537
_cell_length_b       17.9362
_cell_length_c       12.9105
_cell_angle_alpha    90
_cell_angle_beta     92.846
_cell_angle_gamma    90

_symmetry_space_group_name_H-M    "P 1"
_symmetry_int_tables_number       1

loop_
  _symmetry_equiv_pos_as_xyz
  'x, y, z'

loop_
  _atom_site_label
  _atom_site_occupancy
  _atom_site_fract_x
  _atom_site_fract_y
  _atom_site_fract_z
  _atom_site_thermal_displace_type
  _atom_site_B_iso_or_equiv
  _atom_site_type_symbol
  Cu1      1.0000 0.12382  0.44462  0.70603  Biso   1.000  Cu
  Cu2      1.0000 0.37618  0.94462  0.79397  Biso   1.000  Cu
  Cu3      1.0000 0.87618  0.55538  0.29397  Biso   1.000  Cu
  Cu4      1.0000 0.62382  0.05538  0.20603  Biso   1.000  Cu
  Cu5      1.0000 0.52394  0.32389  0.76620  Biso   1.000  Cu
  Cu6      1.0000 0.97606  0.82389  0.73380  Biso   1.000  Cu
  Cu7      1.0000 0.47606  0.67611  0.23380  Biso   1.000  Cu
  Cu8      1.0000 0.02394  0.17611  0.26620  Biso   1.000  Cu
  Br1      1.0000 0.03945  0.36509  0.86705  Biso   1.000  Br
  Br2      1.0000 0.46055  0.86509  0.63295  Biso   1.000  Br
  Br3      1.0000 0.96055  0.63491  0.13295  Biso   1.000  Br
  Br4      1.0000 0.53945  0.13491  0.36705  Biso   1.000  Br
  Br5      1.0000 0.59322  0.40254  0.60501  Biso   1.000  Br
  Br6      1.0000 0.90678  0.90254  0.89499  Biso   1.000  Br
  Br7      1.0000 0.40678  0.59746  0.39499  Biso   1.000  Br
  Br8      1.0000 0.09322  0.09746  0.10501  Biso   1.000  Br
  N1       1.0000 0.10220  0.55700  0.72260  Biso   1.000  N
  N2       1.0000 0.39780  0.05700  0.77740  Biso   1.000  N
  N3       1.0000 0.89780  0.44300  0.27740  Biso   1.000  N
  N4       1.0000 0.60220  0.94300  0.22260  Biso   1.000  N
  C1       1.0000 0.24060  0.59540  0.80310  Biso   1.000  C
  C2       1.0000 0.25940  0.09540  0.69690  Biso   1.000  C
  C3       1.0000 0.75940  0.40460  0.19690  Biso   1.000  C
  C4       1.0000 0.74060  0.90460  0.30310  Biso   1.000  C
  C5       1.0000 0.20150  0.67350  0.80960  Biso   1.000  C
  C6       1.0000 0.29850  0.17350  0.69040  Biso   1.000  C
  C7       1.0000 0.79850  0.32650  0.19040  Biso   1.000  C
  C8       1.0000 0.70150  0.82650  0.30960  Biso   1.000  C
  N5       1.0000 0.02450  0.71087  0.73590  Biso   1.000  N
  N6       1.0000 0.47550  0.21087  0.76410  Biso   1.000  N
  N7       1.0000 0.97550  0.28913  0.26410  Biso   1.000  N
  N8       1.0000 0.52450  0.78913  0.23590  Biso   1.000  N
  C9       1.0000 0.89170  0.67160  0.65520  Biso   1.000  C
  C10      1.0000 0.60830  0.17160  0.84480  Biso   1.000  C
  C11      1.0000 0.10830  0.32840  0.34480  Biso   1.000  C
  C12      1.0000 0.39170  0.82840  0.15520  Biso   1.000  C
  H1       1.0000 0.77170  0.69660  0.60270  Biso   1.000  H
  H2       1.0000 0.72830  0.19660  0.89730  Biso   1.000  H
  H3       1.0000 0.22830  0.30340  0.39730  Biso   1.000  H
  H4       1.0000 0.27170  0.80340  0.10270  Biso   1.000  H
  C13      1.0000 0.92870  0.59580  0.64830  Biso   1.000  C
  C14      1.0000 0.57130  0.09580  0.85170  Biso   1.000  C
  C15      1.0000 0.07130  0.40420  0.35170  Biso   1.000  C
  C16      1.0000 0.42870  0.90420  0.14830  Biso   1.000  C
  H5       1.0000 0.83280  0.57050  0.59150  Biso   1.000  H
  H6       1.0000 0.66720  0.07050  0.90850  Biso   1.000  H
  H7       1.0000 0.16720  0.42950  0.40850  Biso   1.000  H
  H8       1.0000 0.33280  0.92950  0.09150  Biso   1.000  H
  C17      1.0000 0.42760  0.55230  0.88600  Biso   1.000  C
  C18      1.0000 0.07240  0.05230  0.61400  Biso   1.000  C
  C19      1.0000 0.57240  0.44770  0.11400  Biso   1.000  C
  C20      1.0000 0.92760  0.94770  0.38600  Biso   1.000  C
  H9       1.0000 0.28350  0.54050  0.94050  Biso   1.000  H
  H10      1.0000 0.21650  0.04050  0.55950  Biso   1.000  H
  H11      1.0000 0.71650  0.45950  0.05950  Biso   1.000  H
  H12      1.0000 0.78350  0.95950  0.44050  Biso   1.000  H
  H13      1.0000 0.60930  0.58170  0.91360  Biso   1.000  H
  H14      1.0000 0.89070  0.08170  0.58640  Biso   1.000  H
  H15      1.0000 0.39070  0.41830  0.08640  Biso   1.000  H
  H16      1.0000 0.10930  0.91830  0.41360  Biso   1.000  H
  H17      1.0000 0.50990  0.50700  0.85720  Biso   1.000  H
  H18      1.0000 0.99010  0.00700  0.64280  Biso   1.000  H
  H19      1.0000 0.49010  0.49300  0.14280  Biso   1.000  H
  H20      1.0000 0.00990  0.99300  0.35720  Biso   1.000  H
  C21      1.0000 0.35130  0.71730  0.89870  Biso   1.000  C
  C22      1.0000 0.14870  0.21730  0.60130  Biso   1.000  C
  C23      1.0000 0.64870  0.28270  0.10130  Biso   1.000  C
  C24      1.0000 0.85130  0.78270  0.39870  Biso   1.000  C
  H21      1.0000 0.36130  0.76900  0.87990  Biso   1.000  H
  H22      1.0000 0.13870  0.26900  0.62010  Biso   1.000  H
  H23      1.0000 0.63870  0.23100  0.12010  Biso   1.000  H
  H24      1.0000 0.86130  0.73100  0.37990  Biso   1.000  H
  H25      1.0000 0.57030  0.69920  0.91560  Biso   1.000  H
  H26      1.0000 0.92970  0.19920  0.58440  Biso   1.000  H
  H27      1.0000 0.42970  0.30080  0.08440  Biso   1.000  H
  H28      1.0000 0.07030  0.80080  0.41560  Biso   1.000  H
  H29      1.0000 0.21830  0.71170  0.95770  Biso   1.000  H
  H30      1.0000 0.28170  0.21170  0.54230  Biso   1.000  H
  H31      1.0000 0.78170  0.28830  0.04230  Biso   1.000  H
  H32      1.0000 0.71830  0.78830  0.45770  Biso   1.000  H
