data_image0
_cell_length_a       17.7303
_cell_length_b       14.6054
_cell_length_c       12.3057
_cell_angle_alpha    90
_cell_angle_beta     90.724
_cell_angle_gamma    90

_symmetry_space_group_name_H-M    "P 1"
_symmetry_int_tables_number       1

loop_
  _symmetry_equiv_pos_as_xyz
  'x, y, z'

loop_
  _atom_site_label
  _atom_site_occupancy
  _atom_site_fract_x
  _atom_site_fract_y
  _atom_site_fract_z
  _atom_site_thermal_displace_type
  _atom_site_B_iso_or_equiv
  _atom_site_type_symbol
  W1       1.0000 0.57709  0.50000  0.26374  Biso   1.000  W
  W2       1.0000 0.42291  0.50000  0.73626  Biso   1.000  W
  W3       1.0000 0.07709  0.00000  0.26374  Biso   1.000  W
  W4       1.0000 0.92291  0.00000  0.73626  Biso   1.000  W
  W5       1.0000 0.44516  0.66812  0.18924  Biso   1.000  W
  W6       1.0000 0.55484  0.66812  0.81076  Biso   1.000  W
  W7       1.0000 0.94516  0.16812  0.18924  Biso   1.000  W
  W8       1.0000 0.05484  0.16812  0.81076  Biso   1.000  W
  W9       1.0000 0.55484  0.33188  0.81076  Biso   1.000  W
  W10      1.0000 0.44516  0.33188  0.18924  Biso   1.000  W
  W11      1.0000 0.05484  0.83188  0.81076  Biso   1.000  W
  W12      1.0000 0.94516  0.83188  0.18924  Biso   1.000  W
  W13      1.0000 0.62789  0.67453  0.07781  Biso   1.000  W
  W14      1.0000 0.37211  0.67453  0.92219  Biso   1.000  W
  W15      1.0000 0.12789  0.17453  0.07781  Biso   1.000  W
  W16      1.0000 0.87211  0.17453  0.92219  Biso   1.000  W
  W17      1.0000 0.37211  0.32547  0.92219  Biso   1.000  W
  W18      1.0000 0.62789  0.32547  0.07781  Biso   1.000  W
  W19      1.0000 0.87211  0.82547  0.92219  Biso   1.000  W
  W20      1.0000 0.12789  0.82547  0.07781  Biso   1.000  W
  W21      1.0000 0.31424  0.50000  0.10101  Biso   1.000  W
  W22      1.0000 0.68576  0.50000  0.89899  Biso   1.000  W
  W23      1.0000 0.81424  0.00000  0.10101  Biso   1.000  W
  W24      1.0000 0.18576  0.00000  0.89899  Biso   1.000  W
  Cu1      1.0000 0.56476  0.88129  0.57380  Biso   1.000  Cu
  Cu2      1.0000 0.43524  0.88129  0.42620  Biso   1.000  Cu
  Cu3      1.0000 0.06476  0.38129  0.57380  Biso   1.000  Cu
  Cu4      1.0000 0.93524  0.38129  0.42620  Biso   1.000  Cu
  Cu5      1.0000 0.43524  0.11871  0.42620  Biso   1.000  Cu
  Cu6      1.0000 0.56476  0.11871  0.57380  Biso   1.000  Cu
  Cu7      1.0000 0.93524  0.61871  0.42620  Biso   1.000  Cu
  Cu8      1.0000 0.06476  0.61871  0.57380  Biso   1.000  Cu
  Cu9      1.0000 0.68310  0.00000  0.41720  Biso   1.000  Cu
  Cu10     1.0000 0.31690  0.00000  0.58280  Biso   1.000  Cu
  Cu11     1.0000 0.18310  0.50000  0.41720  Biso   1.000  Cu
  Cu12     1.0000 0.81690  0.50000  0.58280  Biso   1.000  Cu
  Cu13     1.0000 0.75188  0.62597  0.32510  Biso   1.000  Cu
  Cu14     1.0000 0.24812  0.62597  0.67490  Biso   1.000  Cu
  Cu15     1.0000 0.25188  0.12597  0.32510  Biso   1.000  Cu
  Cu16     1.0000 0.74812  0.12597  0.67490  Biso   1.000  Cu
  Cu17     1.0000 0.24812  0.37403  0.67490  Biso   1.000  Cu
  Cu18     1.0000 0.75188  0.37403  0.32510  Biso   1.000  Cu
  Cu19     1.0000 0.74812  0.87403  0.67490  Biso   1.000  Cu
  Cu20     1.0000 0.25188  0.87403  0.32510  Biso   1.000  Cu
  Cu21     1.0000 0.09900  0.50000  0.05130  Biso   1.000  Cu
  Cu22     1.0000 0.90100  0.50000  0.94870  Biso   1.000  Cu
  Cu23     1.0000 0.59900  0.00000  0.05130  Biso   1.000  Cu
  Cu24     1.0000 0.40100  0.00000  0.94870  Biso   1.000  Cu
  Si1      1.0000 0.50000  0.50000  0.00000  Biso   1.000  Si
  Si2      1.0000 0.00000  0.00000  0.00000  Biso   1.000  Si
  O1       1.0000 0.61660  0.50000  0.38940  Biso   1.000  O
  O2       1.0000 0.38340  0.50000  0.61060  Biso   1.000  O
  O3       1.0000 0.11660  0.00000  0.38940  Biso   1.000  O
  O4       1.0000 0.88340  0.00000  0.61060  Biso   1.000  O
  O5       1.0000 0.52690  0.55920  0.10500  Biso   1.000  O
  O6       1.0000 0.47310  0.55920  0.89500  Biso   1.000  O
  O7       1.0000 0.02690  0.05920  0.10500  Biso   1.000  O
  O8       1.0000 0.97310  0.05920  0.89500  Biso   1.000  O
  O9       1.0000 0.47310  0.44080  0.89500  Biso   1.000  O
  O10      1.0000 0.52690  0.44080  0.10500  Biso   1.000  O
  O11      1.0000 0.97310  0.94080  0.89500  Biso   1.000  O
  O12      1.0000 0.02690  0.94080  0.10500  Biso   1.000  O
  O13      1.0000 0.49820  0.59000  0.28080  Biso   1.000  O
  O14      1.0000 0.50180  0.59000  0.71920  Biso   1.000  O
  O15      1.0000 0.99820  0.09000  0.28080  Biso   1.000  O
  O16      1.0000 0.00180  0.09000  0.71920  Biso   1.000  O
  O17      1.0000 0.50180  0.41000  0.71920  Biso   1.000  O
  O18      1.0000 0.49820  0.41000  0.28080  Biso   1.000  O
  O19      1.0000 0.00180  0.91000  0.71920  Biso   1.000  O
  O20      1.0000 0.99820  0.91000  0.28080  Biso   1.000  O
  O21      1.0000 0.63510  0.59080  0.19770  Biso   1.000  O
  O22      1.0000 0.36490  0.59080  0.80230  Biso   1.000  O
  O23      1.0000 0.13510  0.09080  0.19770  Biso   1.000  O
  O24      1.0000 0.86490  0.09080  0.80230  Biso   1.000  O
  O25      1.0000 0.36490  0.40920  0.80230  Biso   1.000  O
  O26      1.0000 0.63510  0.40920  0.19770  Biso   1.000  O
  O27      1.0000 0.86490  0.90920  0.80230  Biso   1.000  O
  O28      1.0000 0.13510  0.90920  0.19770  Biso   1.000  O
  O29      1.0000 0.43070  0.56900  0.04000  Biso   1.000  O
  O30      1.0000 0.56930  0.56900  0.96000  Biso   1.000  O
  O31      1.0000 0.93070  0.06900  0.04000  Biso   1.000  O
  O32      1.0000 0.06930  0.06900  0.96000  Biso   1.000  O
  O33      1.0000 0.56930  0.43100  0.96000  Biso   1.000  O
  O34      1.0000 0.43070  0.43100  0.04000  Biso   1.000  O
  O35      1.0000 0.06930  0.93100  0.96000  Biso   1.000  O
  O36      1.0000 0.93070  0.93100  0.04000  Biso   1.000  O
  O37      1.0000 0.41800  0.74740  0.28050  Biso   1.000  O
  O38      1.0000 0.58200  0.74740  0.71950  Biso   1.000  O
  O39      1.0000 0.91800  0.24740  0.28050  Biso   1.000  O
  O40      1.0000 0.08200  0.24740  0.71950  Biso   1.000  O
  O41      1.0000 0.58200  0.25260  0.71950  Biso   1.000  O
  O42      1.0000 0.41800  0.25260  0.28050  Biso   1.000  O
  O43      1.0000 0.08200  0.75260  0.71950  Biso   1.000  O
  O44      1.0000 0.91800  0.75260  0.28050  Biso   1.000  O
  O45      1.0000 0.53910  0.71870  0.14240  Biso   1.000  O
  O46      1.0000 0.46090  0.71870  0.85760  Biso   1.000  O
  O47      1.0000 0.03910  0.21870  0.14240  Biso   1.000  O
  O48      1.0000 0.96090  0.21870  0.85760  Biso   1.000  O
  O49      1.0000 0.46090  0.28130  0.85760  Biso   1.000  O
  O50      1.0000 0.53910  0.28130  0.14240  Biso   1.000  O
  O51      1.0000 0.96090  0.78130  0.85760  Biso   1.000  O
  O52      1.0000 0.03910  0.78130  0.14240  Biso   1.000  O
  O53      1.0000 0.36290  0.58860  0.19170  Biso   1.000  O
  O54      1.0000 0.63710  0.58860  0.80830  Biso   1.000  O
  O55      1.0000 0.86290  0.08860  0.19170  Biso   1.000  O
  O56      1.0000 0.13710  0.08860  0.80830  Biso   1.000  O
  O57      1.0000 0.63710  0.41140  0.80830  Biso   1.000  O
  O58      1.0000 0.36290  0.41140  0.19170  Biso   1.000  O
  O59      1.0000 0.13710  0.91140  0.80830  Biso   1.000  O
  O60      1.0000 0.86290  0.91140  0.19170  Biso   1.000  O
  O61      1.0000 0.69170  0.58960  0.00480  Biso   1.000  O
  O62      1.0000 0.30830  0.58960  0.99520  Biso   1.000  O
  O63      1.0000 0.19170  0.08960  0.00480  Biso   1.000  O
  O64      1.0000 0.80830  0.08960  0.99520  Biso   1.000  O
  O65      1.0000 0.30830  0.41040  0.99520  Biso   1.000  O
  O66      1.0000 0.69170  0.41040  0.00480  Biso   1.000  O
  O67      1.0000 0.80830  0.91040  0.99520  Biso   1.000  O
  O68      1.0000 0.19170  0.91040  0.00480  Biso   1.000  O
  O69      1.0000 0.68910  0.75360  0.11870  Biso   1.000  O
  O70      1.0000 0.31090  0.75360  0.88130  Biso   1.000  O
  O71      1.0000 0.18910  0.25360  0.11870  Biso   1.000  O
  O72      1.0000 0.81090  0.25360  0.88130  Biso   1.000  O
  O73      1.0000 0.31090  0.24640  0.88130  Biso   1.000  O
  O74      1.0000 0.68910  0.24640  0.11870  Biso   1.000  O
  O75      1.0000 0.81090  0.74640  0.88130  Biso   1.000  O
  O76      1.0000 0.18910  0.74640  0.11870  Biso   1.000  O
  O77      1.0000 0.59580  0.71980  0.94300  Biso   1.000  O
  O78      1.0000 0.40420  0.71980  0.05700  Biso   1.000  O
  O79      1.0000 0.09580  0.21980  0.94300  Biso   1.000  O
  O80      1.0000 0.90420  0.21980  0.05700  Biso   1.000  O
  O81      1.0000 0.40420  0.28020  0.05700  Biso   1.000  O
  O82      1.0000 0.59580  0.28020  0.94300  Biso   1.000  O
  O83      1.0000 0.90420  0.78020  0.05700  Biso   1.000  O
  O84      1.0000 0.09580  0.78020  0.94300  Biso   1.000  O
  O85      1.0000 0.22840  0.50000  0.15510  Biso   1.000  O
  O86      1.0000 0.77160  0.50000  0.84490  Biso   1.000  O
  O87      1.0000 0.72840  0.00000  0.15510  Biso   1.000  O
  O88      1.0000 0.27160  0.00000  0.84490  Biso   1.000  O
  N1       1.0000 0.13730  0.50000  0.91020  Biso   1.000  N
  N2       1.0000 0.86270  0.50000  0.08980  Biso   1.000  N
  N3       1.0000 0.63730  0.00000  0.91020  Biso   1.000  N
  N4       1.0000 0.36270  0.00000  0.08980  Biso   1.000  N
  N5       1.0000 0.05210  0.50000  0.18890  Biso   1.000  N
  N6       1.0000 0.94790  0.50000  0.81110  Biso   1.000  N
  N7       1.0000 0.55210  0.00000  0.18890  Biso   1.000  N
  N8       1.0000 0.44790  0.00000  0.81110  Biso   1.000  N
  N9       1.0000 0.99090  0.45250  0.33000  Biso   1.000  N
  N10      1.0000 0.00910  0.45250  0.67000  Biso   1.000  N
  N11      1.0000 0.49090  0.95250  0.33000  Biso   1.000  N
  N12      1.0000 0.50910  0.95250  0.67000  Biso   1.000  N
  N13      1.0000 0.00910  0.54750  0.67000  Biso   1.000  N
  N14      1.0000 0.99090  0.54750  0.33000  Biso   1.000  N
  N15      1.0000 0.50910  0.04750  0.67000  Biso   1.000  N
  N16      1.0000 0.49090  0.04750  0.33000  Biso   1.000  N
  N17      1.0000 0.62780  0.82260  0.47620  Biso   1.000  N
  N18      1.0000 0.37220  0.82260  0.52380  Biso   1.000  N
  N19      1.0000 0.12780  0.32260  0.47620  Biso   1.000  N
  N20      1.0000 0.87220  0.32260  0.52380  Biso   1.000  N
  N21      1.0000 0.37220  0.17740  0.52380  Biso   1.000  N
  N22      1.0000 0.62780  0.17740  0.47620  Biso   1.000  N
  N23      1.0000 0.87220  0.67740  0.52380  Biso   1.000  N
  N24      1.0000 0.12780  0.67740  0.47620  Biso   1.000  N
  N25      1.0000 0.67670  0.87120  0.41510  Biso   1.000  N
  N26      1.0000 0.32330  0.87120  0.58490  Biso   1.000  N
  N27      1.0000 0.17670  0.37120  0.41510  Biso   1.000  N
  N28      1.0000 0.82330  0.37120  0.58490  Biso   1.000  N
  N29      1.0000 0.32330  0.12880  0.58490  Biso   1.000  N
  N30      1.0000 0.67670  0.12880  0.41510  Biso   1.000  N
  N31      1.0000 0.82330  0.62880  0.58490  Biso   1.000  N
  N32      1.0000 0.17670  0.62880  0.41510  Biso   1.000  N
  N33      1.0000 0.70380  0.72650  0.38820  Biso   1.000  N
  N34      1.0000 0.29620  0.72650  0.61180  Biso   1.000  N
  N35      1.0000 0.20380  0.22650  0.38820  Biso   1.000  N
  N36      1.0000 0.79620  0.22650  0.61180  Biso   1.000  N
  N37      1.0000 0.29620  0.27350  0.61180  Biso   1.000  N
  N38      1.0000 0.70380  0.27350  0.38820  Biso   1.000  N
  N39      1.0000 0.79620  0.77350  0.61180  Biso   1.000  N
  N40      1.0000 0.20380  0.77350  0.38820  Biso   1.000  N
  N41      1.0000 0.19200  0.54600  0.76110  Biso   1.000  N
  N42      1.0000 0.80800  0.54600  0.23890  Biso   1.000  N
  N43      1.0000 0.69200  0.04600  0.76110  Biso   1.000  N
  N44      1.0000 0.30800  0.04600  0.23890  Biso   1.000  N
  N45      1.0000 0.80800  0.45400  0.23890  Biso   1.000  N
  N46      1.0000 0.19200  0.45400  0.76110  Biso   1.000  N
  N47      1.0000 0.30800  0.95400  0.23890  Biso   1.000  N
  N48      1.0000 0.69200  0.95400  0.76110  Biso   1.000  N
  C1       1.0000 0.15870  0.57000  0.85170  Biso   1.000  C
  C2       1.0000 0.84130  0.57000  0.14830  Biso   1.000  C
  C3       1.0000 0.65870  0.07000  0.85170  Biso   1.000  C
  C4       1.0000 0.34130  0.07000  0.14830  Biso   1.000  C
  C5       1.0000 0.84130  0.43000  0.14830  Biso   1.000  C
  C6       1.0000 0.15870  0.43000  0.85170  Biso   1.000  C
  C7       1.0000 0.34130  0.93000  0.14830  Biso   1.000  C
  C8       1.0000 0.65870  0.93000  0.85170  Biso   1.000  C
  H1       1.0000 0.15110  0.63060  0.87210  Biso   1.000  H
  H2       1.0000 0.84890  0.63060  0.12790  Biso   1.000  H
  H3       1.0000 0.65110  0.13060  0.87210  Biso   1.000  H
  H4       1.0000 0.34890  0.13060  0.12790  Biso   1.000  H
  H5       1.0000 0.84890  0.36940  0.12790  Biso   1.000  H
  H6       1.0000 0.15110  0.36940  0.87210  Biso   1.000  H
  H7       1.0000 0.34890  0.86940  0.12790  Biso   1.000  H
  H8       1.0000 0.65110  0.86940  0.87210  Biso   1.000  H
  C9       1.0000 0.02740  0.42890  0.24090  Biso   1.000  C
  C10      1.0000 0.97260  0.42890  0.75910  Biso   1.000  C
  C11      1.0000 0.52740  0.92890  0.24090  Biso   1.000  C
  C12      1.0000 0.47260  0.92890  0.75910  Biso   1.000  C
  C13      1.0000 0.97260  0.57110  0.75910  Biso   1.000  C
  C14      1.0000 0.02740  0.57110  0.24090  Biso   1.000  C
  C15      1.0000 0.47260  0.07110  0.75910  Biso   1.000  C
  C16      1.0000 0.52740  0.07110  0.24090  Biso   1.000  C
  H9       1.0000 0.03450  0.36870  0.21840  Biso   1.000  H
  H10      1.0000 0.96550  0.36870  0.78160  Biso   1.000  H
  H11      1.0000 0.53450  0.86870  0.21840  Biso   1.000  H
  H12      1.0000 0.46550  0.86870  0.78160  Biso   1.000  H
  H13      1.0000 0.96550  0.63130  0.78160  Biso   1.000  H
  H14      1.0000 0.03450  0.63130  0.21840  Biso   1.000  H
  H15      1.0000 0.46550  0.13130  0.78160  Biso   1.000  H
  H16      1.0000 0.53450  0.13130  0.21840  Biso   1.000  H
  C17      1.0000 0.71950  0.81270  0.36710  Biso   1.000  C
  C18      1.0000 0.28050  0.81270  0.63290  Biso   1.000  C
  C19      1.0000 0.21950  0.31270  0.36710  Biso   1.000  C
  C20      1.0000 0.78050  0.31270  0.63290  Biso   1.000  C
  C21      1.0000 0.28050  0.18730  0.63290  Biso   1.000  C
  C22      1.0000 0.71950  0.18730  0.36710  Biso   1.000  C
  C23      1.0000 0.78050  0.68730  0.63290  Biso   1.000  C
  C24      1.0000 0.21950  0.68730  0.36710  Biso   1.000  C
  H17      1.0000 0.75840  0.83010  0.32140  Biso   1.000  H
  H18      1.0000 0.24160  0.83010  0.67860  Biso   1.000  H
  H19      1.0000 0.25840  0.33010  0.32140  Biso   1.000  H
  H20      1.0000 0.74160  0.33010  0.67860  Biso   1.000  H
  H21      1.0000 0.24160  0.16990  0.67860  Biso   1.000  H
  H22      1.0000 0.75840  0.16990  0.32140  Biso   1.000  H
  H23      1.0000 0.74160  0.66990  0.67860  Biso   1.000  H
  H24      1.0000 0.25840  0.66990  0.32140  Biso   1.000  H
  C25      1.0000 0.64320  0.73430  0.45820  Biso   1.000  C
  C26      1.0000 0.35680  0.73430  0.54180  Biso   1.000  C
  C27      1.0000 0.14320  0.23430  0.45820  Biso   1.000  C
  C28      1.0000 0.85680  0.23430  0.54180  Biso   1.000  C
  C29      1.0000 0.35680  0.26570  0.54180  Biso   1.000  C
  C30      1.0000 0.64320  0.26570  0.45820  Biso   1.000  C
  C31      1.0000 0.85680  0.76570  0.54180  Biso   1.000  C
  C32      1.0000 0.14320  0.76570  0.45820  Biso   1.000  C
  H25      1.0000 0.61720  0.68530  0.48810  Biso   1.000  H
  H26      1.0000 0.38280  0.68530  0.51190  Biso   1.000  H
  H27      1.0000 0.11720  0.18530  0.48810  Biso   1.000  H
  H28      1.0000 0.88280  0.18530  0.51190  Biso   1.000  H
  H29      1.0000 0.38280  0.31470  0.51190  Biso   1.000  H
  H30      1.0000 0.61720  0.31470  0.48810  Biso   1.000  H
  H31      1.0000 0.88280  0.81470  0.51190  Biso   1.000  H
  H32      1.0000 0.11720  0.81470  0.48810  Biso   1.000  H
  O89      1.0000 0.82340  0.00000  0.40620  Biso   1.000  O
  O90      1.0000 0.17660  0.00000  0.59380  Biso   1.000  O
  O91      1.0000 0.32340  0.50000  0.40620  Biso   1.000  O
  O92      1.0000 0.67660  0.50000  0.59380  Biso   1.000  O
