data_image0
_cell_length_a       16.03
_cell_length_b       16.03
_cell_length_c       17.898
_cell_angle_alpha    90
_cell_angle_beta     90
_cell_angle_gamma    120

_symmetry_space_group_name_H-M    "P 1"
_symmetry_int_tables_number       1

loop_
  _symmetry_equiv_pos_as_xyz
  'x, y, z'

loop_
  _atom_site_label
  _atom_site_occupancy
  _atom_site_fract_x
  _atom_site_fract_y
  _atom_site_fract_z
  _atom_site_thermal_displace_type
  _atom_site_B_iso_or_equiv
  _atom_site_type_symbol
  Cu1      1.0000 0.66670  0.33330  0.09478  Biso   1.000  Cu
  Cu2      1.0000 0.33337  0.66663  0.42811  Biso   1.000  Cu
  Cu3      1.0000 0.00003  0.99997  0.76145  Biso   1.000  Cu
  Cu4      1.0000 0.33330  0.66670  0.90522  Biso   1.000  Cu
  Cu5      1.0000 0.99997  0.00003  0.23855  Biso   1.000  Cu
  Cu6      1.0000 0.66663  0.33337  0.57189  Biso   1.000  Cu
  N1       1.0000 0.75027  0.27565  0.08357  Biso   1.000  N
  N2       1.0000 0.72435  0.47462  0.08357  Biso   1.000  N
  N3       1.0000 0.52538  0.24973  0.08357  Biso   1.000  N
  N4       1.0000 0.41694  0.60898  0.41690  Biso   1.000  N
  N5       1.0000 0.39102  0.80795  0.41690  Biso   1.000  N
  N6       1.0000 0.19205  0.58306  0.41690  Biso   1.000  N
  N7       1.0000 0.08360  0.94232  0.75024  Biso   1.000  N
  N8       1.0000 0.05768  0.14129  0.75024  Biso   1.000  N
  N9       1.0000 0.85871  0.91640  0.75024  Biso   1.000  N
  N10      1.0000 0.24973  0.72435  0.91643  Biso   1.000  N
  N11      1.0000 0.27565  0.52538  0.91643  Biso   1.000  N
  N12      1.0000 0.47462  0.75027  0.91643  Biso   1.000  N
  N13      1.0000 0.91640  0.05768  0.24976  Biso   1.000  N
  N14      1.0000 0.94232  0.85871  0.24976  Biso   1.000  N
  N15      1.0000 0.14129  0.08360  0.24976  Biso   1.000  N
  N16      1.0000 0.58306  0.39102  0.58310  Biso   1.000  N
  N17      1.0000 0.60898  0.19205  0.58310  Biso   1.000  N
  N18      1.0000 0.80795  0.41694  0.58310  Biso   1.000  N
  O1       1.0000 0.84296  0.23080  0.02390  Biso   1.000  O
  O2       1.0000 0.76920  0.61216  0.02390  Biso   1.000  O
  O3       1.0000 0.38784  0.15704  0.02390  Biso   1.000  O
  O4       1.0000 0.50963  0.56413  0.35723  Biso   1.000  O
  O5       1.0000 0.43587  0.94549  0.35723  Biso   1.000  O
  O6       1.0000 0.05451  0.49037  0.35723  Biso   1.000  O
  O7       1.0000 0.17629  0.89747  0.69057  Biso   1.000  O
  O8       1.0000 0.10253  0.27883  0.69057  Biso   1.000  O
  O9       1.0000 0.72117  0.82371  0.69057  Biso   1.000  O
  O10      1.0000 0.15704  0.76920  0.97610  Biso   1.000  O
  O11      1.0000 0.23080  0.38784  0.97610  Biso   1.000  O
  O12      1.0000 0.61216  0.84296  0.97610  Biso   1.000  O
  O13      1.0000 0.82371  0.10253  0.30943  Biso   1.000  O
  O14      1.0000 0.89747  0.72117  0.30943  Biso   1.000  O
  O15      1.0000 0.27883  0.17629  0.30943  Biso   1.000  O
  O16      1.0000 0.49037  0.43587  0.64277  Biso   1.000  O
  O17      1.0000 0.56413  0.05451  0.64277  Biso   1.000  O
  O18      1.0000 0.94549  0.50963  0.64277  Biso   1.000  O
  C1       1.0000 0.97550  0.45130  0.01909  Biso   1.000  C
  C2       1.0000 0.54870  0.52420  0.01909  Biso   1.000  C
  C3       1.0000 0.47580  0.02450  0.01909  Biso   1.000  C
  C4       1.0000 0.64217  0.78463  0.35242  Biso   1.000  C
  C5       1.0000 0.21537  0.85753  0.35242  Biso   1.000  C
  C6       1.0000 0.14247  0.35783  0.35242  Biso   1.000  C
  C7       1.0000 0.30883  0.11797  0.68576  Biso   1.000  C
  C8       1.0000 0.88203  0.19087  0.68576  Biso   1.000  C
  C9       1.0000 0.80913  0.69117  0.68576  Biso   1.000  C
  C10      1.0000 0.02450  0.54870  0.98091  Biso   1.000  C
  C11      1.0000 0.45130  0.47580  0.98091  Biso   1.000  C
  C12      1.0000 0.52420  0.97550  0.98091  Biso   1.000  C
  C13      1.0000 0.69117  0.88203  0.31424  Biso   1.000  C
  C14      1.0000 0.11797  0.80913  0.31424  Biso   1.000  C
  C15      1.0000 0.19087  0.30883  0.31424  Biso   1.000  C
  C16      1.0000 0.35783  0.21537  0.64758  Biso   1.000  C
  C17      1.0000 0.78463  0.14247  0.64758  Biso   1.000  C
  C18      1.0000 0.85753  0.64217  0.64758  Biso   1.000  C
  H1       1.0000 0.97630  0.46030  0.07270  Biso   1.000  H
  H2       1.0000 0.53970  0.51600  0.07270  Biso   1.000  H
  H3       1.0000 0.48400  0.02370  0.07270  Biso   1.000  H
  H4       1.0000 0.64297  0.79363  0.40603  Biso   1.000  H
  H5       1.0000 0.20637  0.84933  0.40603  Biso   1.000  H
  H6       1.0000 0.15067  0.35703  0.40603  Biso   1.000  H
  H7       1.0000 0.30963  0.12697  0.73937  Biso   1.000  H
  H8       1.0000 0.87303  0.18267  0.73937  Biso   1.000  H
  H9       1.0000 0.81733  0.69037  0.73937  Biso   1.000  H
  H10      1.0000 0.02370  0.53970  0.92730  Biso   1.000  H
  H11      1.0000 0.46030  0.48400  0.92730  Biso   1.000  H
  H12      1.0000 0.51600  0.97630  0.92730  Biso   1.000  H
  H13      1.0000 0.69037  0.87303  0.26063  Biso   1.000  H
  H14      1.0000 0.12697  0.81733  0.26063  Biso   1.000  H
  H15      1.0000 0.18267  0.30963  0.26063  Biso   1.000  H
  H16      1.0000 0.35703  0.20637  0.59397  Biso   1.000  H
  H17      1.0000 0.79363  0.15067  0.59397  Biso   1.000  H
  H18      1.0000 0.84933  0.64297  0.59397  Biso   1.000  H
  H19      1.0000 0.01080  0.41820  0.00840  Biso   1.000  H
  H20      1.0000 0.58180  0.59260  0.00840  Biso   1.000  H
  H21      1.0000 0.40740  0.98920  0.00840  Biso   1.000  H
  H22      1.0000 0.67747  0.75153  0.34173  Biso   1.000  H
  H23      1.0000 0.24847  0.92593  0.34173  Biso   1.000  H
  H24      1.0000 0.07407  0.32253  0.34173  Biso   1.000  H
  H25      1.0000 0.34413  0.08487  0.67507  Biso   1.000  H
  H26      1.0000 0.91513  0.25927  0.67507  Biso   1.000  H
  H27      1.0000 0.74073  0.65587  0.67507  Biso   1.000  H
  H28      1.0000 0.98920  0.58180  0.99160  Biso   1.000  H
  H29      1.0000 0.41820  0.40740  0.99160  Biso   1.000  H
  H30      1.0000 0.59260  0.01080  0.99160  Biso   1.000  H
  H31      1.0000 0.65587  0.91513  0.32493  Biso   1.000  H
  H32      1.0000 0.08487  0.74073  0.32493  Biso   1.000  H
  H33      1.0000 0.25927  0.34413  0.32493  Biso   1.000  H
  H34      1.0000 0.32253  0.24847  0.65827  Biso   1.000  H
  H35      1.0000 0.75153  0.07407  0.65827  Biso   1.000  H
  H36      1.0000 0.92593  0.67747  0.65827  Biso   1.000  H
  C19      1.0000 0.81840  0.29930  0.03530  Biso   1.000  C
  C20      1.0000 0.70070  0.51910  0.03530  Biso   1.000  C
  C21      1.0000 0.48090  0.18160  0.03530  Biso   1.000  C
  C22      1.0000 0.48507  0.63263  0.36863  Biso   1.000  C
  C23      1.0000 0.36737  0.85243  0.36863  Biso   1.000  C
  C24      1.0000 0.14757  0.51493  0.36863  Biso   1.000  C
  C25      1.0000 0.15173  0.96597  0.70197  Biso   1.000  C
  C26      1.0000 0.03403  0.18577  0.70197  Biso   1.000  C
  C27      1.0000 0.81423  0.84827  0.70197  Biso   1.000  C
  C28      1.0000 0.18160  0.70070  0.96470  Biso   1.000  C
  C29      1.0000 0.29930  0.48090  0.96470  Biso   1.000  C
  C30      1.0000 0.51910  0.81840  0.96470  Biso   1.000  C
  C31      1.0000 0.84827  0.03403  0.29803  Biso   1.000  C
  C32      1.0000 0.96597  0.81423  0.29803  Biso   1.000  C
  C33      1.0000 0.18577  0.15173  0.29803  Biso   1.000  C
  C34      1.0000 0.51493  0.36737  0.63137  Biso   1.000  C
  C35      1.0000 0.63263  0.14757  0.63137  Biso   1.000  C
  C36      1.0000 0.85243  0.48507  0.63137  Biso   1.000  C
  C37      1.0000 0.78300  0.15630  0.07058  Biso   1.000  C
  C38      1.0000 0.84370  0.62670  0.07058  Biso   1.000  C
  C39      1.0000 0.37330  0.21700  0.07058  Biso   1.000  C
  C40      1.0000 0.44967  0.48963  0.40391  Biso   1.000  C
  C41      1.0000 0.51037  0.96003  0.40391  Biso   1.000  C
  C42      1.0000 0.03997  0.55033  0.40391  Biso   1.000  C
  C43      1.0000 0.11633  0.82297  0.73725  Biso   1.000  C
  C44      1.0000 0.17703  0.29337  0.73725  Biso   1.000  C
  C45      1.0000 0.70663  0.88367  0.73725  Biso   1.000  C
  C46      1.0000 0.21700  0.84370  0.92942  Biso   1.000  C
  C47      1.0000 0.15630  0.37330  0.92942  Biso   1.000  C
  C48      1.0000 0.62670  0.78300  0.92942  Biso   1.000  C
  C49      1.0000 0.88367  0.17703  0.26275  Biso   1.000  C
  C50      1.0000 0.82297  0.70663  0.26275  Biso   1.000  C
  C51      1.0000 0.29337  0.11633  0.26275  Biso   1.000  C
  C52      1.0000 0.55033  0.51037  0.59609  Biso   1.000  C
  C53      1.0000 0.48963  0.03997  0.59609  Biso   1.000  C
  C54      1.0000 0.96003  0.44967  0.59609  Biso   1.000  C
  C55      1.0000 0.72630  0.18340  0.10798  Biso   1.000  C
  C56      1.0000 0.81660  0.54290  0.10798  Biso   1.000  C
  C57      1.0000 0.45710  0.27370  0.10798  Biso   1.000  C
  C58      1.0000 0.39297  0.51673  0.44131  Biso   1.000  C
  C59      1.0000 0.48327  0.87623  0.44131  Biso   1.000  C
  C60      1.0000 0.12377  0.60703  0.44131  Biso   1.000  C
  C61      1.0000 0.05963  0.85007  0.77465  Biso   1.000  C
  C62      1.0000 0.14993  0.20957  0.77465  Biso   1.000  C
  C63      1.0000 0.79043  0.94037  0.77465  Biso   1.000  C
  C64      1.0000 0.27370  0.81660  0.89202  Biso   1.000  C
  C65      1.0000 0.18340  0.45710  0.89202  Biso   1.000  C
  C66      1.0000 0.54290  0.72630  0.89202  Biso   1.000  C
  C67      1.0000 0.94037  0.14993  0.22535  Biso   1.000  C
  C68      1.0000 0.85007  0.79043  0.22535  Biso   1.000  C
  C69      1.0000 0.20957  0.05963  0.22535  Biso   1.000  C
  C70      1.0000 0.60703  0.48327  0.55869  Biso   1.000  C
  C71      1.0000 0.51673  0.12377  0.55869  Biso   1.000  C
  C72      1.0000 0.87623  0.39297  0.55869  Biso   1.000  C
  C73      1.0000 0.87190  0.38970  0.99284  Biso   1.000  C
  C74      1.0000 0.61030  0.48220  0.99284  Biso   1.000  C
  C75      1.0000 0.51780  0.12810  0.99284  Biso   1.000  C
  C76      1.0000 0.53857  0.72303  0.32617  Biso   1.000  C
  C77      1.0000 0.27697  0.81553  0.32617  Biso   1.000  C
  C78      1.0000 0.18447  0.46143  0.32617  Biso   1.000  C
  C79      1.0000 0.20523  0.05637  0.65951  Biso   1.000  C
  C80      1.0000 0.94363  0.14887  0.65951  Biso   1.000  C
  C81      1.0000 0.85113  0.79477  0.65951  Biso   1.000  C
  C82      1.0000 0.12810  0.61030  0.00716  Biso   1.000  C
  C83      1.0000 0.38970  0.51780  0.00716  Biso   1.000  C
  C84      1.0000 0.48220  0.87190  0.00716  Biso   1.000  C
  C85      1.0000 0.79477  0.94363  0.34049  Biso   1.000  C
  C86      1.0000 0.05637  0.85113  0.34049  Biso   1.000  C
  C87      1.0000 0.14887  0.20523  0.34049  Biso   1.000  C
  C88      1.0000 0.46143  0.27697  0.67383  Biso   1.000  C
  C89      1.0000 0.72303  0.18447  0.67383  Biso   1.000  C
  C90      1.0000 0.81553  0.53857  0.67383  Biso   1.000  C
  H37      1.0000 0.83910  0.42650  0.99770  Biso   1.000  H
  H38      1.0000 0.57350  0.41260  0.99770  Biso   1.000  H
  H39      1.0000 0.58740  0.16090  0.99770  Biso   1.000  H
  H40      1.0000 0.50577  0.75983  0.33103  Biso   1.000  H
  H41      1.0000 0.24017  0.74593  0.33103  Biso   1.000  H
  H42      1.0000 0.25407  0.49423  0.33103  Biso   1.000  H
  H43      1.0000 0.17243  0.09317  0.66437  Biso   1.000  H
  H44      1.0000 0.90683  0.07927  0.66437  Biso   1.000  H
  H45      1.0000 0.92073  0.82757  0.66437  Biso   1.000  H
  H46      1.0000 0.16090  0.57350  0.00230  Biso   1.000  H
  H47      1.0000 0.42650  0.58740  0.00230  Biso   1.000  H
  H48      1.0000 0.41260  0.83910  0.00230  Biso   1.000  H
  H49      1.0000 0.82757  0.90683  0.33563  Biso   1.000  H
  H50      1.0000 0.09317  0.92073  0.33563  Biso   1.000  H
  H51      1.0000 0.07927  0.17243  0.33563  Biso   1.000  H
  H52      1.0000 0.49423  0.24017  0.66897  Biso   1.000  H
  H53      1.0000 0.75983  0.25407  0.66897  Biso   1.000  H
  H54      1.0000 0.74593  0.50577  0.66897  Biso   1.000  H
  H55      1.0000 0.87180  0.37460  0.94040  Biso   1.000  H
  H56      1.0000 0.62540  0.49720  0.94040  Biso   1.000  H
  H57      1.0000 0.50280  0.12820  0.94040  Biso   1.000  H
  H58      1.0000 0.53847  0.70793  0.27373  Biso   1.000  H
  H59      1.0000 0.29207  0.83053  0.27373  Biso   1.000  H
  H60      1.0000 0.16947  0.46153  0.27373  Biso   1.000  H
  H61      1.0000 0.20513  0.04127  0.60707  Biso   1.000  H
  H62      1.0000 0.95873  0.16387  0.60707  Biso   1.000  H
  H63      1.0000 0.83613  0.79487  0.60707  Biso   1.000  H
  H64      1.0000 0.12820  0.62540  0.05960  Biso   1.000  H
  H65      1.0000 0.37460  0.50280  0.05960  Biso   1.000  H
  H66      1.0000 0.49720  0.87180  0.05960  Biso   1.000  H
  H67      1.0000 0.79487  0.95873  0.39293  Biso   1.000  H
  H68      1.0000 0.04127  0.83613  0.39293  Biso   1.000  H
  H69      1.0000 0.16387  0.20513  0.39293  Biso   1.000  H
  H70      1.0000 0.46153  0.29207  0.72627  Biso   1.000  H
  H71      1.0000 0.70793  0.16947  0.72627  Biso   1.000  H
  H72      1.0000 0.83053  0.53847  0.72627  Biso   1.000  H
  C91      1.0000 0.65900  0.12220  0.15937  Biso   1.000  C
  C92      1.0000 0.87780  0.53680  0.15937  Biso   1.000  C
  C93      1.0000 0.46320  0.34100  0.15937  Biso   1.000  C
  C94      1.0000 0.32567  0.45553  0.49270  Biso   1.000  C
  C95      1.0000 0.54447  0.87013  0.49270  Biso   1.000  C
  C96      1.0000 0.12987  0.67433  0.49270  Biso   1.000  C
  C97      1.0000 0.99233  0.78887  0.82604  Biso   1.000  C
  C98      1.0000 0.21113  0.20347  0.82604  Biso   1.000  C
  C99      1.0000 0.79653  0.00767  0.82604  Biso   1.000  C
  C100     1.0000 0.34100  0.87780  0.84063  Biso   1.000  C
  C101     1.0000 0.12220  0.46320  0.84063  Biso   1.000  C
  C102     1.0000 0.53680  0.65900  0.84063  Biso   1.000  C
  C103     1.0000 0.00767  0.21113  0.17396  Biso   1.000  C
  C104     1.0000 0.78887  0.79653  0.17396  Biso   1.000  C
  C105     1.0000 0.20347  0.99233  0.17396  Biso   1.000  C
  C106     1.0000 0.67433  0.54447  0.50730  Biso   1.000  C
  C107     1.0000 0.45553  0.12987  0.50730  Biso   1.000  C
  C108     1.0000 0.87013  0.32567  0.50730  Biso   1.000  C
  H73      1.0000 0.62060  0.13990  0.18620  Biso   1.000  H
  H74      1.0000 0.86010  0.48070  0.18620  Biso   1.000  H
  H75      1.0000 0.51930  0.37940  0.18620  Biso   1.000  H
  H76      1.0000 0.28727  0.47323  0.51953  Biso   1.000  H
  H77      1.0000 0.52677  0.81403  0.51953  Biso   1.000  H
  H78      1.0000 0.18597  0.71273  0.51953  Biso   1.000  H
  H79      1.0000 0.95393  0.80657  0.85287  Biso   1.000  H
  H80      1.0000 0.19343  0.14737  0.85287  Biso   1.000  H
  H81      1.0000 0.85263  0.04607  0.85287  Biso   1.000  H
  H82      1.0000 0.37940  0.86010  0.81380  Biso   1.000  H
  H83      1.0000 0.13990  0.51930  0.81380  Biso   1.000  H
  H84      1.0000 0.48070  0.62060  0.81380  Biso   1.000  H
  H85      1.0000 0.04607  0.19343  0.14713  Biso   1.000  H
  H86      1.0000 0.80657  0.85263  0.14713  Biso   1.000  H
  H87      1.0000 0.14737  0.95393  0.14713  Biso   1.000  H
  H88      1.0000 0.71273  0.52677  0.48047  Biso   1.000  H
  H89      1.0000 0.47323  0.18597  0.48047  Biso   1.000  H
  H90      1.0000 0.81403  0.28727  0.48047  Biso   1.000  H
  C109     1.0000 0.65200  0.03380  0.16850  Biso   1.000  C
  C110     1.0000 0.96620  0.61820  0.16850  Biso   1.000  C
  C111     1.0000 0.38180  0.34800  0.16850  Biso   1.000  C
  C112     1.0000 0.31867  0.36713  0.50183  Biso   1.000  C
  C113     1.0000 0.63287  0.95153  0.50183  Biso   1.000  C
  C114     1.0000 0.04847  0.68133  0.50183  Biso   1.000  C
  C115     1.0000 0.98533  0.70047  0.83517  Biso   1.000  C
  C116     1.0000 0.29953  0.28487  0.83517  Biso   1.000  C
  C117     1.0000 0.71513  0.01467  0.83517  Biso   1.000  C
  C118     1.0000 0.34800  0.96620  0.83150  Biso   1.000  C
  C119     1.0000 0.03380  0.38180  0.83150  Biso   1.000  C
  C120     1.0000 0.61820  0.65200  0.83150  Biso   1.000  C
  C121     1.0000 0.01467  0.29953  0.16483  Biso   1.000  C
  C122     1.0000 0.70047  0.71513  0.16483  Biso   1.000  C
  C123     1.0000 0.28487  0.98533  0.16483  Biso   1.000  C
  C124     1.0000 0.68133  0.63287  0.49817  Biso   1.000  C
  C125     1.0000 0.36713  0.04847  0.49817  Biso   1.000  C
  C126     1.0000 0.95153  0.31867  0.49817  Biso   1.000  C
  H91      1.0000 0.60750  0.99040  0.20240  Biso   1.000  H
  H92      1.0000 0.00960  0.61710  0.20240  Biso   1.000  H
  H93      1.0000 0.38290  0.39250  0.20240  Biso   1.000  H
  H94      1.0000 0.27417  0.32373  0.53573  Biso   1.000  H
  H95      1.0000 0.67627  0.95043  0.53573  Biso   1.000  H
  H96      1.0000 0.04957  0.72583  0.53573  Biso   1.000  H
  H97      1.0000 0.94083  0.65707  0.86907  Biso   1.000  H
  H98      1.0000 0.34293  0.28377  0.86907  Biso   1.000  H
  H99      1.0000 0.71623  0.05917  0.86907  Biso   1.000  H
  H100     1.0000 0.39250  0.00960  0.79760  Biso   1.000  H
  H101     1.0000 0.99040  0.38290  0.79760  Biso   1.000  H
  H102     1.0000 0.61710  0.60750  0.79760  Biso   1.000  H
  H103     1.0000 0.05917  0.34293  0.13093  Biso   1.000  H
  H104     1.0000 0.65707  0.71623  0.13093  Biso   1.000  H
  H105     1.0000 0.28377  0.94083  0.13093  Biso   1.000  H
  H106     1.0000 0.72583  0.67627  0.46427  Biso   1.000  H
  H107     1.0000 0.32373  0.04957  0.46427  Biso   1.000  H
  H108     1.0000 0.95043  0.27417  0.46427  Biso   1.000  H
  C127     1.0000 0.70880  0.00740  0.12920  Biso   1.000  C
  C128     1.0000 0.99260  0.70140  0.12920  Biso   1.000  C
  C129     1.0000 0.29860  0.29120  0.12920  Biso   1.000  C
  C130     1.0000 0.37547  0.34073  0.46253  Biso   1.000  C
  C131     1.0000 0.65927  0.03473  0.46253  Biso   1.000  C
  C132     1.0000 0.96527  0.62453  0.46253  Biso   1.000  C
  C133     1.0000 0.04213  0.67407  0.79587  Biso   1.000  C
  C134     1.0000 0.32593  0.36807  0.79587  Biso   1.000  C
  C135     1.0000 0.63193  0.95787  0.79587  Biso   1.000  C
  C136     1.0000 0.29120  0.99260  0.87080  Biso   1.000  C
  C137     1.0000 0.00740  0.29860  0.87080  Biso   1.000  C
  C138     1.0000 0.70140  0.70880  0.87080  Biso   1.000  C
  C139     1.0000 0.95787  0.32593  0.20413  Biso   1.000  C
  C140     1.0000 0.67407  0.63193  0.20413  Biso   1.000  C
  C141     1.0000 0.36807  0.04213  0.20413  Biso   1.000  C
  C142     1.0000 0.62453  0.65927  0.53747  Biso   1.000  C
  C143     1.0000 0.34073  0.96527  0.53747  Biso   1.000  C
  C144     1.0000 0.03473  0.37547  0.53747  Biso   1.000  C
  H109     1.0000 0.70060  0.94630  0.13670  Biso   1.000  H
  H110     1.0000 0.05370  0.75430  0.13670  Biso   1.000  H
  H111     1.0000 0.24570  0.29940  0.13670  Biso   1.000  H
  H112     1.0000 0.36727  0.27963  0.47003  Biso   1.000  H
  H113     1.0000 0.72037  0.08763  0.47003  Biso   1.000  H
  H114     1.0000 0.91237  0.63273  0.47003  Biso   1.000  H
  H115     1.0000 0.03393  0.61297  0.80337  Biso   1.000  H
  H116     1.0000 0.38703  0.42097  0.80337  Biso   1.000  H
  H117     1.0000 0.57903  0.96607  0.80337  Biso   1.000  H
  H118     1.0000 0.29940  0.05370  0.86330  Biso   1.000  H
  H119     1.0000 0.94630  0.24570  0.86330  Biso   1.000  H
  H120     1.0000 0.75430  0.70060  0.86330  Biso   1.000  H
  H121     1.0000 0.96607  0.38703  0.19663  Biso   1.000  H
  H122     1.0000 0.61297  0.57903  0.19663  Biso   1.000  H
  H123     1.0000 0.42097  0.03393  0.19663  Biso   1.000  H
  H124     1.0000 0.63273  0.72037  0.52997  Biso   1.000  H
  H125     1.0000 0.27963  0.91237  0.52997  Biso   1.000  H
  H126     1.0000 0.08763  0.36727  0.52997  Biso   1.000  H
  C145     1.0000 0.77740  0.06820  0.07900  Biso   1.000  C
  C146     1.0000 0.93180  0.70920  0.07900  Biso   1.000  C
  C147     1.0000 0.29080  0.22260  0.07900  Biso   1.000  C
  C148     1.0000 0.44407  0.40153  0.41233  Biso   1.000  C
  C149     1.0000 0.59847  0.04253  0.41233  Biso   1.000  C
  C150     1.0000 0.95747  0.55593  0.41233  Biso   1.000  C
  C151     1.0000 0.11073  0.73487  0.74567  Biso   1.000  C
  C152     1.0000 0.26513  0.37587  0.74567  Biso   1.000  C
  C153     1.0000 0.62413  0.88927  0.74567  Biso   1.000  C
  C154     1.0000 0.22260  0.93180  0.92100  Biso   1.000  C
  C155     1.0000 0.06820  0.29080  0.92100  Biso   1.000  C
  C156     1.0000 0.70920  0.77740  0.92100  Biso   1.000  C
  C157     1.0000 0.88927  0.26513  0.25433  Biso   1.000  C
  C158     1.0000 0.73487  0.62413  0.25433  Biso   1.000  C
  C159     1.0000 0.37587  0.11073  0.25433  Biso   1.000  C
  C160     1.0000 0.55593  0.59847  0.58767  Biso   1.000  C
  C161     1.0000 0.40153  0.95747  0.58767  Biso   1.000  C
  C162     1.0000 0.04253  0.44407  0.58767  Biso   1.000  C
  H127     1.0000 0.81690  0.05120  0.05290  Biso   1.000  H
  H128     1.0000 0.94880  0.76570  0.05290  Biso   1.000  H
  H129     1.0000 0.23430  0.18310  0.05290  Biso   1.000  H
  H130     1.0000 0.48357  0.38453  0.38623  Biso   1.000  H
  H131     1.0000 0.61547  0.09903  0.38623  Biso   1.000  H
  H132     1.0000 0.90097  0.51643  0.38623  Biso   1.000  H
  H133     1.0000 0.15023  0.71787  0.71957  Biso   1.000  H
  H134     1.0000 0.28213  0.43237  0.71957  Biso   1.000  H
  H135     1.0000 0.56763  0.84977  0.71957  Biso   1.000  H
  H136     1.0000 0.18310  0.94880  0.94710  Biso   1.000  H
  H137     1.0000 0.05120  0.23430  0.94710  Biso   1.000  H
  H138     1.0000 0.76570  0.81690  0.94710  Biso   1.000  H
  H139     1.0000 0.84977  0.28213  0.28043  Biso   1.000  H
  H140     1.0000 0.71787  0.56763  0.28043  Biso   1.000  H
  H141     1.0000 0.43237  0.15023  0.28043  Biso   1.000  H
  H142     1.0000 0.51643  0.61547  0.61377  Biso   1.000  H
  H143     1.0000 0.38453  0.90097  0.61377  Biso   1.000  H
  H144     1.0000 0.09903  0.48357  0.61377  Biso   1.000  H
  P1       1.0000 0.66670  0.33330  0.83330  Biso   1.000  P
  P2       1.0000 0.33337  0.66663  0.16663  Biso   1.000  P
  P3       1.0000 0.00003  0.99997  0.49997  Biso   1.000  P
  F1       1.0000 0.66670  0.33330  0.91990  Biso   1.000  F
  F2       1.0000 0.33337  0.66663  0.25323  Biso   1.000  F
  F3       1.0000 0.00003  0.99997  0.58657  Biso   1.000  F
  F4       1.0000 0.33330  0.66670  0.08010  Biso   1.000  F
  F5       1.0000 0.99997  0.00003  0.41343  Biso   1.000  F
  F6       1.0000 0.66663  0.33337  0.74677  Biso   1.000  F
  F7       1.0000 0.77190  0.36940  0.81400  Biso   1.000  F
  F8       1.0000 0.63060  0.40250  0.81400  Biso   1.000  F
  F9       1.0000 0.59750  0.22810  0.81400  Biso   1.000  F
  F10      1.0000 0.43857  0.70273  0.14733  Biso   1.000  F
  F11      1.0000 0.29727  0.73583  0.14733  Biso   1.000  F
  F12      1.0000 0.26417  0.56143  0.14733  Biso   1.000  F
  F13      1.0000 0.10523  0.03607  0.48067  Biso   1.000  F
  F14      1.0000 0.96393  0.06917  0.48067  Biso   1.000  F
  F15      1.0000 0.93083  0.89477  0.48067  Biso   1.000  F
  F16      1.0000 0.22810  0.63060  0.18600  Biso   1.000  F
  F17      1.0000 0.36940  0.59750  0.18600  Biso   1.000  F
  F18      1.0000 0.40250  0.77190  0.18600  Biso   1.000  F
  F19      1.0000 0.89477  0.96393  0.51933  Biso   1.000  F
  F20      1.0000 0.03607  0.93083  0.51933  Biso   1.000  F
  F21      1.0000 0.06917  0.10523  0.51933  Biso   1.000  F
  F22      1.0000 0.56143  0.29727  0.85267  Biso   1.000  F
  F23      1.0000 0.70273  0.26417  0.85267  Biso   1.000  F
  F24      1.0000 0.73583  0.43857  0.85267  Biso   1.000  F
  P4       1.0000 0.66670  0.33330  0.33330  Biso   1.000  P
  P5       1.0000 0.33337  0.66663  0.66663  Biso   1.000  P
  P6       1.0000 0.00003  0.99997  0.99997  Biso   1.000  P
  F25      1.0000 0.66670  0.33330  0.25110  Biso   1.000  F
  F26      1.0000 0.33337  0.66663  0.58443  Biso   1.000  F
  F27      1.0000 0.00003  0.99997  0.91777  Biso   1.000  F
  F28      1.0000 0.33330  0.66670  0.74890  Biso   1.000  F
  F29      1.0000 0.99997  0.00003  0.08223  Biso   1.000  F
  F30      1.0000 0.66663  0.33337  0.41557  Biso   1.000  F
  F31      1.0000 0.71790  0.28040  0.35910  Biso   1.000  F
  F32      1.0000 0.71960  0.43750  0.35910  Biso   1.000  F
  F33      1.0000 0.56250  0.28210  0.35910  Biso   1.000  F
  F34      1.0000 0.38457  0.61373  0.69243  Biso   1.000  F
  F35      1.0000 0.38627  0.77083  0.69243  Biso   1.000  F
  F36      1.0000 0.22917  0.61543  0.69243  Biso   1.000  F
  F37      1.0000 0.05123  0.94707  0.02577  Biso   1.000  F
  F38      1.0000 0.05293  0.10417  0.02577  Biso   1.000  F
  F39      1.0000 0.89583  0.94877  0.02577  Biso   1.000  F
  F40      1.0000 0.28210  0.71960  0.64090  Biso   1.000  F
  F41      1.0000 0.28040  0.56250  0.64090  Biso   1.000  F
  F42      1.0000 0.43750  0.71790  0.64090  Biso   1.000  F
  F43      1.0000 0.94877  0.05293  0.97423  Biso   1.000  F
  F44      1.0000 0.94707  0.89583  0.97423  Biso   1.000  F
  F45      1.0000 0.10417  0.05123  0.97423  Biso   1.000  F
  F46      1.0000 0.61543  0.38627  0.30757  Biso   1.000  F
  F47      1.0000 0.61373  0.22917  0.30757  Biso   1.000  F
  F48      1.0000 0.77083  0.38457  0.30757  Biso   1.000  F
