data_image0
_cell_length_a       10.7028
_cell_length_b       26.677
_cell_length_c       12.2956
_cell_angle_alpha    90
_cell_angle_beta     106.863
_cell_angle_gamma    90

_symmetry_space_group_name_H-M    "P 1"
_symmetry_int_tables_number       1

loop_
  _symmetry_equiv_pos_as_xyz
  'x, y, z'

loop_
  _atom_site_label
  _atom_site_occupancy
  _atom_site_fract_x
  _atom_site_fract_y
  _atom_site_fract_z
  _atom_site_thermal_displace_type
  _atom_site_B_iso_or_equiv
  _atom_site_type_symbol
  Cu1      1.0000 0.18925  0.06459  0.79174  Biso   1.000  Cu
  Cu2      1.0000 0.81075  0.56459  0.70826  Biso   1.000  Cu
  Cu3      1.0000 0.81075  0.93541  0.20826  Biso   1.000  Cu
  Cu4      1.0000 0.18925  0.43541  0.29174  Biso   1.000  Cu
  S1       1.0000 0.05698  0.12892  0.80202  Biso   1.000  S
  S2       1.0000 0.94302  0.62892  0.69798  Biso   1.000  S
  S3       1.0000 0.94302  0.87108  0.19798  Biso   1.000  S
  S4       1.0000 0.05698  0.37108  0.30202  Biso   1.000  S
  P1       1.0000 0.10370  0.18586  0.71644  Biso   1.000  P
  P2       1.0000 0.89630  0.68586  0.78356  Biso   1.000  P
  P3       1.0000 0.89630  0.81414  0.28356  Biso   1.000  P
  P4       1.0000 0.10370  0.31414  0.21644  Biso   1.000  P
  O1       1.0000 0.12409  0.93685  0.97127  Biso   1.000  O
  O2       1.0000 0.87591  0.43685  0.52873  Biso   1.000  O
  O3       1.0000 0.87591  0.06315  0.02873  Biso   1.000  O
  O4       1.0000 0.12409  0.56315  0.47127  Biso   1.000  O
  O5       1.0000 0.38044  0.03482  0.55266  Biso   1.000  O
  O6       1.0000 0.61956  0.53482  0.94734  Biso   1.000  O
  O7       1.0000 0.61956  0.96518  0.44734  Biso   1.000  O
  O8       1.0000 0.38044  0.46518  0.05266  Biso   1.000  O
  N1       1.0000 0.13522  0.00406  0.86658  Biso   1.000  N
  N2       1.0000 0.86478  0.50406  0.63342  Biso   1.000  N
  N3       1.0000 0.86478  0.99594  0.13342  Biso   1.000  N
  N4       1.0000 0.13522  0.49594  0.36658  Biso   1.000  N
  N5       1.0000 0.31373  0.05738  0.70116  Biso   1.000  N
  N6       1.0000 0.68627  0.55738  0.79884  Biso   1.000  N
  N7       1.0000 0.68627  0.94262  0.29884  Biso   1.000  N
  N8       1.0000 0.31373  0.44262  0.20116  Biso   1.000  N
  C1       1.0000 0.00376  0.98848  0.84105  Biso   1.000  C
  C2       1.0000 0.99624  0.48848  0.65895  Biso   1.000  C
  C3       1.0000 0.99624  0.01152  0.15895  Biso   1.000  C
  C4       1.0000 0.00376  0.51152  0.34105  Biso   1.000  C
  C5       1.0000 0.46720  0.06999  0.61280  Biso   1.000  C
  C6       1.0000 0.53280  0.56999  0.88720  Biso   1.000  C
  C7       1.0000 0.53280  0.93001  0.38720  Biso   1.000  C
  C8       1.0000 0.46720  0.43001  0.11280  Biso   1.000  C
  C9       1.0000 0.11190  0.16787  0.57813  Biso   1.000  C
  C10      1.0000 0.88810  0.66787  0.92187  Biso   1.000  C
  C11      1.0000 0.88810  0.83213  0.42187  Biso   1.000  C
  C12      1.0000 0.11190  0.33213  0.07813  Biso   1.000  C
  C13      1.0000 0.34057  0.96807  0.00270  Biso   1.000  C
  C14      1.0000 0.65943  0.46807  0.49730  Biso   1.000  C
  C15      1.0000 0.65943  0.03193  0.99730  Biso   1.000  C
  C16      1.0000 0.34057  0.53193  0.50270  Biso   1.000  C
  H1       1.0000 0.36890  0.93450  0.99100  Biso   1.000  H
  H2       1.0000 0.63110  0.43450  0.50900  Biso   1.000  H
  H3       1.0000 0.63110  0.06550  0.00900  Biso   1.000  H
  H4       1.0000 0.36890  0.56550  0.49100  Biso   1.000  H
  H5       1.0000 0.35200  0.97200  0.08340  Biso   1.000  H
  H6       1.0000 0.64800  0.47200  0.41660  Biso   1.000  H
  H7       1.0000 0.64800  0.02800  0.91660  Biso   1.000  H
  H8       1.0000 0.35200  0.52800  0.58340  Biso   1.000  H
  C17      1.0000 0.97690  0.23358  0.68740  Biso   1.000  C
  C18      1.0000 0.02310  0.73358  0.81260  Biso   1.000  C
  C19      1.0000 0.02310  0.76642  0.31260  Biso   1.000  C
  C20      1.0000 0.97690  0.26642  0.18740  Biso   1.000  C
  C21      1.0000 0.29260  0.02931  0.61180  Biso   1.000  C
  C22      1.0000 0.70740  0.52931  0.88820  Biso   1.000  C
  C23      1.0000 0.70740  0.97069  0.38820  Biso   1.000  C
  C24      1.0000 0.29260  0.47069  0.11180  Biso   1.000  C
  C25      1.0000 0.19947  0.97237  0.94204  Biso   1.000  C
  C26      1.0000 0.80053  0.47237  0.55796  Biso   1.000  C
  C27      1.0000 0.80053  0.02763  0.05796  Biso   1.000  C
  C28      1.0000 0.19947  0.52763  0.44204  Biso   1.000  C
  C29      1.0000 0.99914  0.94722  0.90633  Biso   1.000  C
  C30      1.0000 0.00086  0.44722  0.59367  Biso   1.000  C
  C31      1.0000 0.00086  0.05278  0.09367  Biso   1.000  C
  C32      1.0000 0.99914  0.55278  0.40633  Biso   1.000  C
  C33      1.0000 0.22670  0.16558  0.54812  Biso   1.000  C
  C34      1.0000 0.77330  0.66558  0.95188  Biso   1.000  C
  C35      1.0000 0.77330  0.83442  0.45188  Biso   1.000  C
  C36      1.0000 0.22670  0.33442  0.04812  Biso   1.000  C
  H9       1.0000 0.30570  0.17440  0.60020  Biso   1.000  H
  H10      1.0000 0.69430  0.67440  0.89980  Biso   1.000  H
  H11      1.0000 0.69430  0.82560  0.39980  Biso   1.000  H
  H12      1.0000 0.30570  0.32560  0.10020  Biso   1.000  H
  C37      1.0000 0.25490  0.21568  0.79459  Biso   1.000  C
  C38      1.0000 0.74510  0.71568  0.70541  Biso   1.000  C
  C39      1.0000 0.74510  0.78432  0.20541  Biso   1.000  C
  C40      1.0000 0.25490  0.28432  0.29459  Biso   1.000  C
  C41      1.0000 0.42869  0.08388  0.70501  Biso   1.000  C
  C42      1.0000 0.57131  0.58388  0.79499  Biso   1.000  C
  C43      1.0000 0.57131  0.91612  0.29499  Biso   1.000  C
  C44      1.0000 0.42869  0.41612  0.20501  Biso   1.000  C
  C45      1.0000 0.49920  0.11901  0.78140  Biso   1.000  C
  C46      1.0000 0.50080  0.61901  0.71860  Biso   1.000  C
  C47      1.0000 0.50080  0.88099  0.21860  Biso   1.000  C
  C48      1.0000 0.49920  0.38099  0.28140  Biso   1.000  C
  H13      1.0000 0.47590  0.12850  0.84570  Biso   1.000  H
  H14      1.0000 0.52410  0.62850  0.65430  Biso   1.000  H
  H15      1.0000 0.52410  0.87150  0.15430  Biso   1.000  H
  H16      1.0000 0.47590  0.37150  0.34570  Biso   1.000  H
  C49      1.0000 0.88990  0.00725  0.76640  Biso   1.000  C
  C50      1.0000 0.11010  0.50725  0.73360  Biso   1.000  C
  C51      1.0000 0.11010  0.99275  0.23360  Biso   1.000  C
  C52      1.0000 0.88990  0.49275  0.26640  Biso   1.000  C
  H17      1.0000 0.89030  0.03540  0.72190  Biso   1.000  H
  H18      1.0000 0.10970  0.53540  0.77810  Biso   1.000  H
  H19      1.0000 0.10970  0.96460  0.27810  Biso   1.000  H
  H20      1.0000 0.89030  0.46460  0.22190  Biso   1.000  H
  C53      1.0000 0.05580  0.01780  0.51970  Biso   1.000  C
  C54      1.0000 0.94420  0.51780  0.98030  Biso   1.000  C
  C55      1.0000 0.94420  0.98220  0.48030  Biso   1.000  C
  C56      1.0000 0.05580  0.48220  0.01970  Biso   1.000  C
  H21      1.0000 0.06080  0.03810  0.45560  Biso   1.000  H
  H22      1.0000 0.93920  0.53810  0.04440  Biso   1.000  H
  H23      1.0000 0.93920  0.96190  0.54440  Biso   1.000  H
  H24      1.0000 0.06080  0.46190  0.95560  Biso   1.000  H
  H25      1.0000 0.03830  0.04010  0.57580  Biso   1.000  H
  H26      1.0000 0.96170  0.54010  0.92420  Biso   1.000  H
  H27      1.0000 0.96170  0.95990  0.42420  Biso   1.000  H
  H28      1.0000 0.03830  0.45990  0.07580  Biso   1.000  H
  C57      1.0000 0.77560  0.98177  0.76200  Biso   1.000  C
  C58      1.0000 0.22440  0.48177  0.73800  Biso   1.000  C
  C59      1.0000 0.22440  0.01823  0.23800  Biso   1.000  C
  C60      1.0000 0.77560  0.51823  0.26200  Biso   1.000  C
  H29      1.0000 0.69760  0.99290  0.71200  Biso   1.000  H
  H30      1.0000 0.30240  0.49290  0.78800  Biso   1.000  H
  H31      1.0000 0.30240  0.00710  0.28800  Biso   1.000  H
  H32      1.0000 0.69760  0.50710  0.21200  Biso   1.000  H
  C61      1.0000 0.77370  0.94046  0.82910  Biso   1.000  C
  C62      1.0000 0.22630  0.44046  0.67090  Biso   1.000  C
  C63      1.0000 0.22630  0.05954  0.17090  Biso   1.000  C
  C64      1.0000 0.77370  0.55954  0.32910  Biso   1.000  C
  H33      1.0000 0.69450  0.92480  0.82350  Biso   1.000  H
  H34      1.0000 0.30550  0.42480  0.67650  Biso   1.000  H
  H35      1.0000 0.30550  0.07520  0.17650  Biso   1.000  H
  H36      1.0000 0.69450  0.57520  0.32350  Biso   1.000  H
  C65      1.0000 0.88590  0.92192  0.90390  Biso   1.000  C
  C66      1.0000 0.11410  0.42192  0.59610  Biso   1.000  C
  C67      1.0000 0.11410  0.07808  0.09610  Biso   1.000  C
  C68      1.0000 0.88590  0.57808  0.40390  Biso   1.000  C
  H37      1.0000 0.88540  0.89420  0.94970  Biso   1.000  H
  H38      1.0000 0.11460  0.39420  0.55030  Biso   1.000  H
  H39      1.0000 0.11460  0.10580  0.05030  Biso   1.000  H
  H40      1.0000 0.88540  0.60580  0.44970  Biso   1.000  H
  C69      1.0000 0.99460  0.15435  0.49850  Biso   1.000  C
  C70      1.0000 0.00540  0.65435  0.00150  Biso   1.000  C
  C71      1.0000 0.00540  0.84565  0.50150  Biso   1.000  C
  C72      1.0000 0.99460  0.34565  0.99850  Biso   1.000  C
  H41      1.0000 0.91710  0.15550  0.51830  Biso   1.000  H
  H42      1.0000 0.08290  0.65550  0.98170  Biso   1.000  H
  H43      1.0000 0.08290  0.84450  0.48170  Biso   1.000  H
  H44      1.0000 0.91710  0.34450  0.01830  Biso   1.000  H
  C73      1.0000 0.18440  0.99323  0.57000  Biso   1.000  C
  C74      1.0000 0.81560  0.49323  0.93000  Biso   1.000  C
  C75      1.0000 0.81560  0.00677  0.43000  Biso   1.000  C
  C76      1.0000 0.18440  0.50677  0.07000  Biso   1.000  C
  H45      1.0000 0.17890  0.97210  0.63250  Biso   1.000  H
  H46      1.0000 0.82110  0.47210  0.86750  Biso   1.000  H
  H47      1.0000 0.82110  0.02790  0.36750  Biso   1.000  H
  H48      1.0000 0.17890  0.52790  0.13250  Biso   1.000  H
  H49      1.0000 0.20380  0.97190  0.51310  Biso   1.000  H
  H50      1.0000 0.79620  0.47190  0.98690  Biso   1.000  H
  H51      1.0000 0.79620  0.02810  0.48690  Biso   1.000  H
  H52      1.0000 0.20380  0.52810  0.01310  Biso   1.000  H
  C77      1.0000 0.88860  0.23551  0.74870  Biso   1.000  C
  C78      1.0000 0.11140  0.73551  0.75130  Biso   1.000  C
  C79      1.0000 0.11140  0.76449  0.25130  Biso   1.000  C
  C80      1.0000 0.88860  0.26449  0.24870  Biso   1.000  C
  H53      1.0000 0.89380  0.21290  0.80750  Biso   1.000  H
  H54      1.0000 0.10620  0.71290  0.69250  Biso   1.000  H
  H55      1.0000 0.10620  0.78710  0.19250  Biso   1.000  H
  H56      1.0000 0.89380  0.28710  0.30750  Biso   1.000  H
  C81      1.0000 0.31000  0.25302  0.74490  Biso   1.000  C
  C82      1.0000 0.69000  0.75302  0.75510  Biso   1.000  C
  C83      1.0000 0.69000  0.74698  0.25510  Biso   1.000  C
  C84      1.0000 0.31000  0.24698  0.24490  Biso   1.000  C
  H57      1.0000 0.26890  0.26290  0.67060  Biso   1.000  H
  H58      1.0000 0.73110  0.76290  0.82940  Biso   1.000  H
  H59      1.0000 0.73110  0.73710  0.32940  Biso   1.000  H
  H60      1.0000 0.26890  0.23710  0.17060  Biso   1.000  H
  C85      1.0000 0.99310  0.13949  0.39180  Biso   1.000  C
  C86      1.0000 0.00690  0.63949  0.10820  Biso   1.000  C
  C87      1.0000 0.00690  0.86051  0.60820  Biso   1.000  C
  C88      1.0000 0.99310  0.36051  0.89180  Biso   1.000  C
  H61      1.0000 0.91460  0.13060  0.33910  Biso   1.000  H
  H62      1.0000 0.08540  0.63060  0.16090  Biso   1.000  H
  H63      1.0000 0.08540  0.86940  0.66090  Biso   1.000  H
  H64      1.0000 0.91460  0.36940  0.83910  Biso   1.000  H
  C89      1.0000 0.10630  0.13774  0.36240  Biso   1.000  C
  C90      1.0000 0.89370  0.63774  0.13760  Biso   1.000  C
  C91      1.0000 0.89370  0.86226  0.63760  Biso   1.000  C
  C92      1.0000 0.10630  0.36226  0.86240  Biso   1.000  C
  H65      1.0000 0.10450  0.12810  0.28930  Biso   1.000  H
  H66      1.0000 0.89550  0.62810  0.21070  Biso   1.000  H
  H67      1.0000 0.89550  0.87190  0.71070  Biso   1.000  H
  H68      1.0000 0.10450  0.37190  0.78930  Biso   1.000  H
  C93      1.0000 0.22280  0.15000  0.43940  Biso   1.000  C
  C94      1.0000 0.77720  0.65000  0.06060  Biso   1.000  C
  C95      1.0000 0.77720  0.85000  0.56060  Biso   1.000  C
  C96      1.0000 0.22280  0.35000  0.93940  Biso   1.000  C
  H69      1.0000 0.29970  0.14790  0.41880  Biso   1.000  H
  H70      1.0000 0.70030  0.64790  0.08120  Biso   1.000  H
  H71      1.0000 0.70030  0.85210  0.58120  Biso   1.000  H
  H72      1.0000 0.29970  0.35210  0.91880  Biso   1.000  H
  C97      1.0000 0.57300  0.09026  0.58520  Biso   1.000  C
  C98      1.0000 0.42700  0.59026  0.91480  Biso   1.000  C
  C99      1.0000 0.42700  0.90974  0.41480  Biso   1.000  C
  C100     1.0000 0.57300  0.40974  0.08520  Biso   1.000  C
  H73      1.0000 0.59550  0.08090  0.52050  Biso   1.000  H
  H74      1.0000 0.40450  0.58090  0.97950  Biso   1.000  H
  H75      1.0000 0.40450  0.91910  0.47950  Biso   1.000  H
  H76      1.0000 0.59550  0.41910  0.02050  Biso   1.000  H
  C101     1.0000 0.96880  0.26773  0.59960  Biso   1.000  C
  C102     1.0000 0.03120  0.76773  0.90040  Biso   1.000  C
  C103     1.0000 0.03120  0.73227  0.40040  Biso   1.000  C
  C104     1.0000 0.96880  0.23227  0.09960  Biso   1.000  C
  H77      1.0000 0.02810  0.26620  0.55740  Biso   1.000  H
  H78      1.0000 0.97190  0.76620  0.94260  Biso   1.000  H
  H79      1.0000 0.97190  0.73380  0.44260  Biso   1.000  H
  H80      1.0000 0.02810  0.23380  0.05740  Biso   1.000  H
  C105     1.0000 0.60730  0.13927  0.75580  Biso   1.000  C
  C106     1.0000 0.39270  0.63927  0.74420  Biso   1.000  C
  C107     1.0000 0.39270  0.86073  0.24420  Biso   1.000  C
  C108     1.0000 0.60730  0.36073  0.25580  Biso   1.000  C
  H81      1.0000 0.65780  0.16310  0.80430  Biso   1.000  H
  H82      1.0000 0.34220  0.66310  0.69570  Biso   1.000  H
  H83      1.0000 0.34220  0.83690  0.19570  Biso   1.000  H
  H84      1.0000 0.65780  0.33690  0.30430  Biso   1.000  H
  C109     1.0000 0.31610  0.20193  0.90520  Biso   1.000  C
  C110     1.0000 0.68390  0.70193  0.59480  Biso   1.000  C
  C111     1.0000 0.68390  0.79807  0.09480  Biso   1.000  C
  C112     1.0000 0.31610  0.29807  0.40520  Biso   1.000  C
  H85      1.0000 0.28000  0.17700  0.93950  Biso   1.000  H
  H86      1.0000 0.72000  0.67700  0.56050  Biso   1.000  H
  H87      1.0000 0.72000  0.82300  0.06050  Biso   1.000  H
  H88      1.0000 0.28000  0.32300  0.43950  Biso   1.000  H
  C113     1.0000 0.43120  0.22512  0.96570  Biso   1.000  C
  C114     1.0000 0.56880  0.72512  0.53430  Biso   1.000  C
  C115     1.0000 0.56880  0.77488  0.03430  Biso   1.000  C
  C116     1.0000 0.43120  0.27488  0.46570  Biso   1.000  C
  H89      1.0000 0.47170  0.21610  0.04070  Biso   1.000  H
  H90      1.0000 0.52830  0.71610  0.45930  Biso   1.000  H
  H91      1.0000 0.52830  0.78390  0.95930  Biso   1.000  H
  H92      1.0000 0.47170  0.28390  0.54070  Biso   1.000  H
  C117     1.0000 0.42560  0.27564  0.80500  Biso   1.000  C
  C118     1.0000 0.57440  0.77564  0.69500  Biso   1.000  C
  C119     1.0000 0.57440  0.72436  0.19500  Biso   1.000  C
  C120     1.0000 0.42560  0.22436  0.30500  Biso   1.000  C
  H93      1.0000 0.46280  0.30040  0.77120  Biso   1.000  H
  H94      1.0000 0.53720  0.80040  0.72880  Biso   1.000  H
  H95      1.0000 0.53720  0.69960  0.22880  Biso   1.000  H
  H96      1.0000 0.46280  0.19960  0.27120  Biso   1.000  H
  C121     1.0000 0.64180  0.12502  0.66020  Biso   1.000  C
  C122     1.0000 0.35820  0.62502  0.83980  Biso   1.000  C
  C123     1.0000 0.35820  0.87498  0.33980  Biso   1.000  C
  C124     1.0000 0.64180  0.37498  0.16020  Biso   1.000  C
  H97      1.0000 0.71460  0.13970  0.64660  Biso   1.000  H
  H98      1.0000 0.28540  0.63970  0.85340  Biso   1.000  H
  H99      1.0000 0.28540  0.86030  0.35340  Biso   1.000  H
  H100     1.0000 0.71460  0.36030  0.14660  Biso   1.000  H
  C125     1.0000 0.87190  0.30389  0.57560  Biso   1.000  C
  C126     1.0000 0.12810  0.80389  0.92440  Biso   1.000  C
  C127     1.0000 0.12810  0.69611  0.42440  Biso   1.000  C
  C128     1.0000 0.87190  0.19611  0.07560  Biso   1.000  C
  H101     1.0000 0.86720  0.32720  0.51830  Biso   1.000  H
  H102     1.0000 0.13280  0.82720  0.98170  Biso   1.000  H
  H103     1.0000 0.13280  0.67280  0.48170  Biso   1.000  H
  H104     1.0000 0.86720  0.17280  0.01830  Biso   1.000  H
  C129     1.0000 0.48480  0.26113  0.91490  Biso   1.000  C
  C130     1.0000 0.51520  0.76113  0.58510  Biso   1.000  C
  C131     1.0000 0.51520  0.73887  0.08510  Biso   1.000  C
  C132     1.0000 0.48480  0.23887  0.41490  Biso   1.000  C
  H105     1.0000 0.56290  0.27620  0.95540  Biso   1.000  H
  H106     1.0000 0.43710  0.77620  0.54460  Biso   1.000  H
  H107     1.0000 0.43710  0.72380  0.04460  Biso   1.000  H
  H108     1.0000 0.56290  0.22380  0.45540  Biso   1.000  H
  C133     1.0000 0.79050  0.27207  0.72130  Biso   1.000  C
  C134     1.0000 0.20950  0.77207  0.77870  Biso   1.000  C
  C135     1.0000 0.20950  0.72793  0.27870  Biso   1.000  C
  C136     1.0000 0.79050  0.22793  0.22130  Biso   1.000  C
  H109     1.0000 0.72950  0.27360  0.76190  Biso   1.000  H
  H110     1.0000 0.27050  0.77360  0.73810  Biso   1.000  H
  H111     1.0000 0.27050  0.72640  0.23810  Biso   1.000  H
  H112     1.0000 0.72950  0.22640  0.26190  Biso   1.000  H
  C137     1.0000 0.78370  0.30537  0.63600  Biso   1.000  C
  C138     1.0000 0.21630  0.80537  0.86400  Biso   1.000  C
  C139     1.0000 0.21630  0.69463  0.36400  Biso   1.000  C
  C140     1.0000 0.78370  0.19463  0.13600  Biso   1.000  C
  H113     1.0000 0.71790  0.32940  0.61870  Biso   1.000  H
  H114     1.0000 0.28210  0.82940  0.88130  Biso   1.000  H
  H115     1.0000 0.28210  0.67060  0.38130  Biso   1.000  H
  H116     1.0000 0.71790  0.17060  0.11870  Biso   1.000  H
  C141     1.0000 0.42851  0.00489  0.96833  Biso   1.000  C
  C142     1.0000 0.57149  0.50489  0.53167  Biso   1.000  C
  C143     1.0000 0.57149  0.99511  0.03167  Biso   1.000  C
  C144     1.0000 0.42851  0.49511  0.46833  Biso   1.000  C
  H117     1.0000 0.40540  0.03870  0.98450  Biso   1.000  H
  H118     1.0000 0.59460  0.53870  0.51550  Biso   1.000  H
  H119     1.0000 0.59460  0.96130  0.01550  Biso   1.000  H
  H120     1.0000 0.40540  0.46130  0.48450  Biso   1.000  H
  H121     1.0000 0.41600  0.00230  0.88720  Biso   1.000  H
  H122     1.0000 0.58400  0.50230  0.61280  Biso   1.000  H
  H123     1.0000 0.58400  0.99770  0.11280  Biso   1.000  H
  H124     1.0000 0.41600  0.49770  0.38720  Biso   1.000  H
  F1       1.0000 0.54723  0.05901  0.28993  Biso   1.000  F
  F2       1.0000 0.45277  0.55901  0.21007  Biso   1.000  F
  F3       1.0000 0.45277  0.94099  0.71007  Biso   1.000  F
  F4       1.0000 0.54723  0.44099  0.78993  Biso   1.000  F
  F5       1.0000 0.64676  0.13344  0.34856  Biso   1.000  F
  F6       1.0000 0.35324  0.63344  0.15144  Biso   1.000  F
  F7       1.0000 0.35324  0.86656  0.65144  Biso   1.000  F
  F8       1.0000 0.64676  0.36656  0.84856  Biso   1.000  F
  F9       1.0000 0.71167  0.08604  0.22518  Biso   1.000  F
  F10      1.0000 0.28833  0.58604  0.27482  Biso   1.000  F
  F11      1.0000 0.28833  0.91396  0.77482  Biso   1.000  F
  F12      1.0000 0.71167  0.41396  0.72518  Biso   1.000  F
  F13      1.0000 0.51644  0.12416  0.16783  Biso   1.000  F
  F14      1.0000 0.48356  0.62416  0.33217  Biso   1.000  F
  F15      1.0000 0.48356  0.87584  0.83217  Biso   1.000  F
  F16      1.0000 0.51644  0.37584  0.66783  Biso   1.000  F
  B1       1.0000 0.60320  0.10093  0.25750  Biso   1.000  B
  B2       1.0000 0.39680  0.60093  0.24250  Biso   1.000  B
  B3       1.0000 0.39680  0.89907  0.74250  Biso   1.000  B
  B4       1.0000 0.60320  0.39907  0.75750  Biso   1.000  B
