data_image0
_cell_length_a       16.276
_cell_length_b       14.094
_cell_length_c       10.0491
_cell_angle_alpha    90
_cell_angle_beta     90
_cell_angle_gamma    90

_symmetry_space_group_name_H-M    "P 1"
_symmetry_int_tables_number       1

loop_
  _symmetry_equiv_pos_as_xyz
  'x, y, z'

loop_
  _atom_site_label
  _atom_site_occupancy
  _atom_site_fract_x
  _atom_site_fract_y
  _atom_site_fract_z
  _atom_site_thermal_displace_type
  _atom_site_B_iso_or_equiv
  _atom_site_type_symbol
  F1       1.0000 0.42963  0.25000  0.92030  Biso   1.000  F
  F2       1.0000 0.07037  0.75000  0.42030  Biso   1.000  F
  F3       1.0000 0.57037  0.75000  0.07970  Biso   1.000  F
  F4       1.0000 0.92963  0.25000  0.57970  Biso   1.000  F
  F5       1.0000 0.34473  0.17081  0.05847  Biso   1.000  F
  F6       1.0000 0.15527  0.82919  0.55847  Biso   1.000  F
  F7       1.0000 0.65527  0.67081  0.94153  Biso   1.000  F
  F8       1.0000 0.84473  0.32919  0.44153  Biso   1.000  F
  F9       1.0000 0.65527  0.82919  0.94153  Biso   1.000  F
  F10      1.0000 0.84473  0.17081  0.44153  Biso   1.000  F
  F11      1.0000 0.34473  0.32919  0.05847  Biso   1.000  F
  F12      1.0000 0.15527  0.67081  0.55847  Biso   1.000  F
  F13      1.0000 0.29170  0.25000  0.88580  Biso   1.000  F
  F14      1.0000 0.20830  0.75000  0.38580  Biso   1.000  F
  F15      1.0000 0.70830  0.75000  0.11420  Biso   1.000  F
  F16      1.0000 0.79170  0.25000  0.61420  Biso   1.000  F
  B1       1.0000 0.35390  0.25000  0.97960  Biso   1.000  B
  B2       1.0000 0.14610  0.75000  0.47960  Biso   1.000  B
  B3       1.0000 0.64610  0.75000  0.02040  Biso   1.000  B
  B4       1.0000 0.85390  0.25000  0.52040  Biso   1.000  B
  Cu1      1.0000 0.96619  0.75000  0.91149  Biso   1.000  Cu
  Cu2      1.0000 0.53381  0.25000  0.41149  Biso   1.000  Cu
  Cu3      1.0000 0.03381  0.25000  0.08851  Biso   1.000  Cu
  Cu4      1.0000 0.46619  0.75000  0.58851  Biso   1.000  Cu
  C1       1.0000 0.04007  0.93042  0.79279  Biso   1.000  C
  C2       1.0000 0.45993  0.06958  0.29279  Biso   1.000  C
  C3       1.0000 0.95993  0.43042  0.20721  Biso   1.000  C
  C4       1.0000 0.54007  0.56958  0.70721  Biso   1.000  C
  C5       1.0000 0.95993  0.06958  0.20721  Biso   1.000  C
  C6       1.0000 0.54007  0.93042  0.70721  Biso   1.000  C
  C7       1.0000 0.04007  0.56958  0.79279  Biso   1.000  C
  C8       1.0000 0.45993  0.43042  0.29279  Biso   1.000  C
  N1       1.0000 0.92308  0.75000  0.10130  Biso   1.000  N
  N2       1.0000 0.57692  0.25000  0.60130  Biso   1.000  N
  N3       1.0000 0.07692  0.25000  0.89870  Biso   1.000  N
  N4       1.0000 0.42308  0.75000  0.39870  Biso   1.000  N
  C9       1.0000 0.08762  0.91014  0.99009  Biso   1.000  C
  C10      1.0000 0.41238  0.08986  0.49009  Biso   1.000  C
  C11      1.0000 0.91238  0.41014  0.00991  Biso   1.000  C
  C12      1.0000 0.58762  0.58986  0.50991  Biso   1.000  C
  C13      1.0000 0.91238  0.08986  0.00991  Biso   1.000  C
  C14      1.0000 0.58762  0.91014  0.50991  Biso   1.000  C
  C15      1.0000 0.08762  0.58986  0.99009  Biso   1.000  C
  C16      1.0000 0.41238  0.41014  0.49009  Biso   1.000  C
  N5       1.0000 0.03313  0.87380  0.89343  Biso   1.000  N
  N6       1.0000 0.46687  0.12620  0.39343  Biso   1.000  N
  N7       1.0000 0.96687  0.37380  0.10657  Biso   1.000  N
  N8       1.0000 0.53313  0.62620  0.60657  Biso   1.000  N
  N9       1.0000 0.96687  0.12620  0.10657  Biso   1.000  N
  N10      1.0000 0.53313  0.87380  0.60657  Biso   1.000  N
  N11      1.0000 0.03313  0.62620  0.89343  Biso   1.000  N
  N12      1.0000 0.46687  0.37380  0.39343  Biso   1.000  N
  O1       1.0000 0.09487  0.00268  0.81053  Biso   1.000  O
  O2       1.0000 0.40513  0.99732  0.31053  Biso   1.000  O
  O3       1.0000 0.90513  0.50268  0.18947  Biso   1.000  O
  O4       1.0000 0.59487  0.49732  0.68947  Biso   1.000  O
  O5       1.0000 0.90513  0.99732  0.18947  Biso   1.000  O
  O6       1.0000 0.59487  0.00268  0.68947  Biso   1.000  O
  O7       1.0000 0.09487  0.49732  0.81053  Biso   1.000  O
  O8       1.0000 0.40513  0.50268  0.31053  Biso   1.000  O
  N13      1.0000 0.86920  0.75000  0.79010  Biso   1.000  N
  N14      1.0000 0.63080  0.25000  0.29010  Biso   1.000  N
  N15      1.0000 0.13080  0.25000  0.20990  Biso   1.000  N
  N16      1.0000 0.36920  0.75000  0.70990  Biso   1.000  N
  C17      1.0000 0.02185  0.00509  0.56679  Biso   1.000  C
  C18      1.0000 0.47815  0.99491  0.06679  Biso   1.000  C
  C19      1.0000 0.97815  0.50509  0.43321  Biso   1.000  C
  C20      1.0000 0.52185  0.49491  0.93321  Biso   1.000  C
  C21      1.0000 0.97815  0.99491  0.43321  Biso   1.000  C
  C22      1.0000 0.52185  0.00509  0.93321  Biso   1.000  C
  C23      1.0000 0.02185  0.49491  0.56679  Biso   1.000  C
  C24      1.0000 0.47815  0.50509  0.06679  Biso   1.000  C
  H1       1.0000 0.08080  0.00250  0.55300  Biso   1.000  H
  H2       1.0000 0.41920  0.99750  0.05300  Biso   1.000  H
  H3       1.0000 0.91920  0.50250  0.44700  Biso   1.000  H
  H4       1.0000 0.58080  0.49750  0.94700  Biso   1.000  H
  H5       1.0000 0.91920  0.99750  0.44700  Biso   1.000  H
  H6       1.0000 0.58080  0.00250  0.94700  Biso   1.000  H
  H7       1.0000 0.08080  0.49750  0.55300  Biso   1.000  H
  H8       1.0000 0.41920  0.50250  0.05300  Biso   1.000  H
  H9       1.0000 0.00870  0.06640  0.60520  Biso   1.000  H
  H10      1.0000 0.49130  0.93360  0.10520  Biso   1.000  H
  H11      1.0000 0.99130  0.56640  0.39480  Biso   1.000  H
  H12      1.0000 0.50870  0.43360  0.89480  Biso   1.000  H
  H13      1.0000 0.99130  0.93360  0.39480  Biso   1.000  H
  H14      1.0000 0.50870  0.06640  0.89480  Biso   1.000  H
  H15      1.0000 0.00870  0.43360  0.60520  Biso   1.000  H
  H16      1.0000 0.49130  0.56640  0.10520  Biso   1.000  H
  C25      1.0000 0.12602  0.98894  0.93734  Biso   1.000  C
  C26      1.0000 0.37398  0.01106  0.43734  Biso   1.000  C
  C27      1.0000 0.87398  0.48894  0.06266  Biso   1.000  C
  C28      1.0000 0.62602  0.51106  0.56266  Biso   1.000  C
  C29      1.0000 0.87398  0.01106  0.06266  Biso   1.000  C
  C30      1.0000 0.62602  0.98894  0.56266  Biso   1.000  C
  C31      1.0000 0.12602  0.51106  0.93734  Biso   1.000  C
  C32      1.0000 0.37398  0.48894  0.43734  Biso   1.000  C
  C33      1.0000 0.99653  0.92706  0.66295  Biso   1.000  C
  C34      1.0000 0.50347  0.07294  0.16295  Biso   1.000  C
  C35      1.0000 0.00347  0.42706  0.33705  Biso   1.000  C
  C36      1.0000 0.49653  0.57294  0.83705  Biso   1.000  C
  C37      1.0000 0.00347  0.07294  0.33705  Biso   1.000  C
  C38      1.0000 0.49653  0.92706  0.83705  Biso   1.000  C
  C39      1.0000 0.99653  0.57294  0.66295  Biso   1.000  C
  C40      1.0000 0.50347  0.42706  0.16295  Biso   1.000  C
  H17      1.0000 0.93790  0.93180  0.67890  Biso   1.000  H
  H18      1.0000 0.56210  0.06820  0.17890  Biso   1.000  H
  H19      1.0000 0.06210  0.43180  0.32110  Biso   1.000  H
  H20      1.0000 0.43790  0.56820  0.82110  Biso   1.000  H
  H21      1.0000 0.06210  0.06820  0.32110  Biso   1.000  H
  H22      1.0000 0.43790  0.93180  0.82110  Biso   1.000  H
  H23      1.0000 0.93790  0.56820  0.67890  Biso   1.000  H
  H24      1.0000 0.56210  0.43180  0.17890  Biso   1.000  H
  H25      1.0000 0.00690  0.86600  0.62160  Biso   1.000  H
  H26      1.0000 0.49310  0.13400  0.12160  Biso   1.000  H
  H27      1.0000 0.99310  0.36600  0.37840  Biso   1.000  H
  H28      1.0000 0.50690  0.63400  0.87840  Biso   1.000  H
  H29      1.0000 0.99310  0.13400  0.37840  Biso   1.000  H
  H30      1.0000 0.50690  0.86600  0.87840  Biso   1.000  H
  H31      1.0000 0.00690  0.63400  0.62160  Biso   1.000  H
  H32      1.0000 0.49310  0.36600  0.12160  Biso   1.000  H
  C41      1.0000 0.18553  0.04094  0.00100  Biso   1.000  C
  C42      1.0000 0.31447  0.95906  0.50100  Biso   1.000  C
  C43      1.0000 0.81447  0.54094  0.99900  Biso   1.000  C
  C44      1.0000 0.68553  0.45906  0.49900  Biso   1.000  C
  C45      1.0000 0.81447  0.95906  0.99900  Biso   1.000  C
  C46      1.0000 0.68553  0.04094  0.49900  Biso   1.000  C
  C47      1.0000 0.18553  0.45906  0.00100  Biso   1.000  C
  C48      1.0000 0.31447  0.54094  0.50100  Biso   1.000  C
  H33      1.0000 0.21030  0.09360  0.96210  Biso   1.000  H
  H34      1.0000 0.28970  0.90640  0.46210  Biso   1.000  H
  H35      1.0000 0.78970  0.59360  0.03790  Biso   1.000  H
  H36      1.0000 0.71030  0.40640  0.53790  Biso   1.000  H
  H37      1.0000 0.78970  0.90640  0.03790  Biso   1.000  H
  H38      1.0000 0.71030  0.09360  0.53790  Biso   1.000  H
  H39      1.0000 0.21030  0.40640  0.96210  Biso   1.000  H
  H40      1.0000 0.28970  0.59360  0.46210  Biso   1.000  H
  C49      1.0000 0.10684  0.88131  0.11829  Biso   1.000  C
  C50      1.0000 0.39316  0.11869  0.61829  Biso   1.000  C
  C51      1.0000 0.89316  0.38131  0.88171  Biso   1.000  C
  C52      1.0000 0.60684  0.61869  0.38171  Biso   1.000  C
  C53      1.0000 0.89316  0.11869  0.88171  Biso   1.000  C
  C54      1.0000 0.60684  0.88131  0.38171  Biso   1.000  C
  C55      1.0000 0.10684  0.61869  0.11829  Biso   1.000  C
  C56      1.0000 0.39316  0.38131  0.61829  Biso   1.000  C
  H41      1.0000 0.08030  0.83020  0.15810  Biso   1.000  H
  H42      1.0000 0.41970  0.16980  0.65810  Biso   1.000  H
  H43      1.0000 0.91970  0.33020  0.84190  Biso   1.000  H
  H44      1.0000 0.58030  0.66980  0.34190  Biso   1.000  H
  H45      1.0000 0.91970  0.16980  0.84190  Biso   1.000  H
  H46      1.0000 0.58030  0.83020  0.34190  Biso   1.000  H
  H47      1.0000 0.08030  0.66980  0.15810  Biso   1.000  H
  H48      1.0000 0.41970  0.33020  0.65810  Biso   1.000  H
  C57      1.0000 0.81074  0.75000  0.73050  Biso   1.000  C
  C58      1.0000 0.68926  0.25000  0.23050  Biso   1.000  C
  C59      1.0000 0.18926  0.25000  0.26950  Biso   1.000  C
  C60      1.0000 0.31074  0.75000  0.76950  Biso   1.000  C
  C61      1.0000 0.20609  0.00957  0.12710  Biso   1.000  C
  C62      1.0000 0.29391  0.99043  0.62710  Biso   1.000  C
  C63      1.0000 0.79391  0.50957  0.87290  Biso   1.000  C
  C64      1.0000 0.70609  0.49043  0.37290  Biso   1.000  C
  C65      1.0000 0.79391  0.99043  0.87290  Biso   1.000  C
  C66      1.0000 0.70609  0.00957  0.37290  Biso   1.000  C
  C67      1.0000 0.20609  0.49043  0.12710  Biso   1.000  C
  C68      1.0000 0.29391  0.50957  0.62710  Biso   1.000  C
  H49      1.0000 0.24680  0.04110  0.17460  Biso   1.000  H
  H50      1.0000 0.25320  0.95890  0.67460  Biso   1.000  H
  H51      1.0000 0.75320  0.54110  0.82540  Biso   1.000  H
  H52      1.0000 0.74680  0.45890  0.32540  Biso   1.000  H
  H53      1.0000 0.75320  0.95890  0.82540  Biso   1.000  H
  H54      1.0000 0.74680  0.04110  0.32540  Biso   1.000  H
  H55      1.0000 0.24680  0.45890  0.17460  Biso   1.000  H
  H56      1.0000 0.25320  0.54110  0.67460  Biso   1.000  H
  C69      1.0000 0.85790  0.75000  0.33520  Biso   1.000  C
  C70      1.0000 0.64210  0.25000  0.83520  Biso   1.000  C
  C71      1.0000 0.14210  0.25000  0.66480  Biso   1.000  C
  C72      1.0000 0.35790  0.75000  0.16480  Biso   1.000  C
  C73      1.0000 0.89479  0.75000  0.20360  Biso   1.000  C
  C74      1.0000 0.60521  0.25000  0.70360  Biso   1.000  C
  C75      1.0000 0.10521  0.25000  0.79640  Biso   1.000  C
  C76      1.0000 0.39479  0.75000  0.29640  Biso   1.000  C
  C77      1.0000 0.16713  0.93181  0.18440  Biso   1.000  C
  C78      1.0000 0.33287  0.06819  0.68440  Biso   1.000  C
  C79      1.0000 0.83287  0.43181  0.81560  Biso   1.000  C
  C80      1.0000 0.66713  0.56819  0.31560  Biso   1.000  C
  C81      1.0000 0.83287  0.06819  0.81560  Biso   1.000  C
  C82      1.0000 0.66713  0.93181  0.31560  Biso   1.000  C
  C83      1.0000 0.16713  0.56819  0.18440  Biso   1.000  C
  C84      1.0000 0.33287  0.43181  0.68440  Biso   1.000  C
  H57      1.0000 0.18210  0.91320  0.26980  Biso   1.000  H
  H58      1.0000 0.31790  0.08680  0.76980  Biso   1.000  H
  H59      1.0000 0.81790  0.41320  0.73020  Biso   1.000  H
  H60      1.0000 0.68210  0.58680  0.23020  Biso   1.000  H
  H61      1.0000 0.81790  0.08680  0.73020  Biso   1.000  H
  H62      1.0000 0.68210  0.91320  0.23020  Biso   1.000  H
  H63      1.0000 0.18210  0.58680  0.26980  Biso   1.000  H
  H64      1.0000 0.31790  0.41320  0.76980  Biso   1.000  H
  C85      1.0000 0.73480  0.75000  0.65360  Biso   1.000  C
  C86      1.0000 0.76520  0.25000  0.15360  Biso   1.000  C
  C87      1.0000 0.26520  0.25000  0.34640  Biso   1.000  C
  C88      1.0000 0.23480  0.75000  0.84640  Biso   1.000  C
  H65      1.0000 0.72820  0.81030  0.61050  Biso   1.000  H
  H66      1.0000 0.77180  0.18970  0.11050  Biso   1.000  H
  H67      1.0000 0.27180  0.31030  0.38950  Biso   1.000  H
  H68      1.0000 0.22820  0.68970  0.88950  Biso   1.000  H
  H69      1.0000 0.27180  0.18970  0.38950  Biso   1.000  H
  H70      1.0000 0.22820  0.81030  0.88950  Biso   1.000  H
  H71      1.0000 0.72820  0.68970  0.61050  Biso   1.000  H
  H72      1.0000 0.77180  0.31030  0.11050  Biso   1.000  H
  H73      1.0000 0.68910  0.73890  0.71190  Biso   1.000  H
  H74      1.0000 0.81090  0.26110  0.21190  Biso   1.000  H
  H75      1.0000 0.31090  0.23890  0.28810  Biso   1.000  H
  H76      1.0000 0.18910  0.76110  0.78810  Biso   1.000  H
  H77      1.0000 0.31090  0.26110  0.28810  Biso   1.000  H
  H78      1.0000 0.18910  0.73890  0.78810  Biso   1.000  H
  H79      1.0000 0.68910  0.76110  0.71190  Biso   1.000  H
  H80      1.0000 0.81090  0.23890  0.21190  Biso   1.000  H
  H81      1.0000 0.73700  0.70080  0.58760  Biso   1.000  H
  H82      1.0000 0.76300  0.29920  0.08760  Biso   1.000  H
  H83      1.0000 0.26300  0.20080  0.41240  Biso   1.000  H
  H84      1.0000 0.23700  0.79920  0.91240  Biso   1.000  H
  H85      1.0000 0.26300  0.29920  0.41240  Biso   1.000  H
  H86      1.0000 0.23700  0.70080  0.91240  Biso   1.000  H
  H87      1.0000 0.73700  0.79920  0.58760  Biso   1.000  H
  H88      1.0000 0.76300  0.20080  0.08760  Biso   1.000  H
  H89      1.0000 0.80860  0.78740  0.33400  Biso   1.000  H
  H90      1.0000 0.69140  0.21260  0.83400  Biso   1.000  H
  H91      1.0000 0.19140  0.28740  0.66600  Biso   1.000  H
  H92      1.0000 0.30860  0.71260  0.16600  Biso   1.000  H
  H93      1.0000 0.19140  0.21260  0.66600  Biso   1.000  H
  H94      1.0000 0.30860  0.78740  0.16600  Biso   1.000  H
  H95      1.0000 0.80860  0.71260  0.33400  Biso   1.000  H
  H96      1.0000 0.69140  0.28740  0.83400  Biso   1.000  H
  H97      1.0000 0.89590  0.77650  0.39810  Biso   1.000  H
  H98      1.0000 0.60410  0.22350  0.89810  Biso   1.000  H
  H99      1.0000 0.10410  0.27650  0.60190  Biso   1.000  H
  H100     1.0000 0.39590  0.72350  0.10190  Biso   1.000  H
  H101     1.0000 0.10410  0.22350  0.60190  Biso   1.000  H
  H102     1.0000 0.39590  0.77650  0.10190  Biso   1.000  H
  H103     1.0000 0.89590  0.72350  0.39810  Biso   1.000  H
  H104     1.0000 0.60410  0.27650  0.89810  Biso   1.000  H
  H105     1.0000 0.84480  0.68610  0.36050  Biso   1.000  H
  H106     1.0000 0.65520  0.31390  0.86050  Biso   1.000  H
  H107     1.0000 0.15520  0.18610  0.63950  Biso   1.000  H
  H108     1.0000 0.34480  0.81390  0.13950  Biso   1.000  H
  H109     1.0000 0.15520  0.31390  0.63950  Biso   1.000  H
  H110     1.0000 0.34480  0.68610  0.13950  Biso   1.000  H
  H111     1.0000 0.84480  0.81390  0.36050  Biso   1.000  H
  H112     1.0000 0.65520  0.18610  0.86050  Biso   1.000  H
