data_image0
_cell_length_a       6.3467
_cell_length_b       12.237
_cell_length_c       13.363
_cell_angle_alpha    97.447
_cell_angle_beta     93.032
_cell_angle_gamma    95.62

_symmetry_space_group_name_H-M    "P 1"
_symmetry_int_tables_number       1

loop_
  _symmetry_equiv_pos_as_xyz
  'x, y, z'

loop_
  _atom_site_label
  _atom_site_occupancy
  _atom_site_fract_x
  _atom_site_fract_y
  _atom_site_fract_z
  _atom_site_thermal_displace_type
  _atom_site_B_iso_or_equiv
  _atom_site_type_symbol
  O1       1.0000 0.05640  0.67530  0.49700  Biso   1.000  O
  O2       1.0000 0.94360  0.32470  0.50300  Biso   1.000  O
  O3       1.0000 0.00930  0.54280  0.35240  Biso   1.000  O
  O4       1.0000 0.99070  0.45720  0.64760  Biso   1.000  O
  Sm1      1.0000 0.68260  0.62180  0.42820  Biso   1.000  Sm
  Sm2      1.0000 0.31740  0.37820  0.57180  Biso   1.000  Sm
  Cu1      1.0000 0.74590  0.76889  0.05788  Biso   1.000  Cu
  Cu2      1.0000 0.25410  0.23111  0.94212  Biso   1.000  Cu
  N1       1.0000 0.71520  0.83000  0.46670  Biso   1.000  N
  N2       1.0000 0.28480  0.17000  0.53330  Biso   1.000  N
  N3       1.0000 0.48600  0.67300  0.03730  Biso   1.000  N
  N4       1.0000 0.51400  0.32700  0.96270  Biso   1.000  N
  N5       1.0000 0.01600  0.84500  0.03240  Biso   1.000  N
  N6       1.0000 0.98400  0.15500  0.96760  Biso   1.000  N
  O5       1.0000 0.75520  0.72060  0.29000  Biso   1.000  O
  O6       1.0000 0.24480  0.27940  0.71000  Biso   1.000  O
  O7       1.0000 0.73390  0.87030  0.21220  Biso   1.000  O
  O8       1.0000 0.26610  0.12970  0.78780  Biso   1.000  O
  O9       1.0000 0.64670  0.69700  0.59980  Biso   1.000  O
  O10      1.0000 0.35330  0.30300  0.40020  Biso   1.000  O
  O11      1.0000 0.62400  0.83350  0.72240  Biso   1.000  O
  O12      1.0000 0.37600  0.16650  0.27760  Biso   1.000  O
  O13      1.0000 0.32840  0.67570  0.37460  Biso   1.000  O
  O14      1.0000 0.67160  0.32430  0.62540  Biso   1.000  O
  O15      1.0000 0.30420  0.53430  0.47600  Biso   1.000  O
  O16      1.0000 0.69580  0.46570  0.52400  Biso   1.000  O
  O17      1.0000 0.56310  0.46230  0.29990  Biso   1.000  O
  O18      1.0000 0.43690  0.53770  0.70010  Biso   1.000  O
  H1       1.0000 0.50220  0.40660  0.32420  Biso   1.000  H
  H2       1.0000 0.49780  0.59340  0.67580  Biso   1.000  H
  H3       1.0000 0.68920  0.44580  0.28890  Biso   1.000  H
  H4       1.0000 0.31080  0.55420  0.71110  Biso   1.000  H
  O19      1.0000 0.84250  0.29190  0.28430  Biso   1.000  O
  O20      1.0000 0.15750  0.70810  0.71570  Biso   1.000  O
  H5       1.0000 0.88440  0.28790  0.34590  Biso   1.000  H
  H6       1.0000 0.11560  0.71210  0.65410  Biso   1.000  H
  H7       1.0000 0.80180  0.35710  0.28650  Biso   1.000  H
  H8       1.0000 0.19820  0.64290  0.71350  Biso   1.000  H
  S1       1.0000 0.17240  0.60709  0.42337  Biso   1.000  S
  S2       1.0000 0.82760  0.39291  0.57663  Biso   1.000  S
  C1       1.0000 0.74590  0.82280  0.28950  Biso   1.000  C
  C2       1.0000 0.25410  0.17720  0.71050  Biso   1.000  C
  C3       1.0000 0.74210  0.89040  0.39160  Biso   1.000  C
  C4       1.0000 0.25790  0.10960  0.60840  Biso   1.000  C
  C5       1.0000 0.76170  0.00520  0.40960  Biso   1.000  C
  C6       1.0000 0.23830  0.99480  0.59040  Biso   1.000  C
  H9       1.0000 0.77500  0.04650  0.35610  Biso   1.000  H
  H10      1.0000 0.22500  0.95350  0.64390  Biso   1.000  H
  C7       1.0000 0.76130  0.05720  0.50600  Biso   1.000  C
  C8       1.0000 0.23870  0.94280  0.49400  Biso   1.000  C
  H11      1.0000 0.77940  0.13410  0.51950  Biso   1.000  H
  H12      1.0000 0.22060  0.86590  0.48050  Biso   1.000  H
  C9       1.0000 0.73320  0.99300  0.58440  Biso   1.000  C
  C10      1.0000 0.26680  0.00700  0.41560  Biso   1.000  C
  H13      1.0000 0.73410  0.02670  0.65100  Biso   1.000  H
  H14      1.0000 0.26590  0.97330  0.34900  Biso   1.000  H
  C11      1.0000 0.70390  0.87770  0.56170  Biso   1.000  C
  C12      1.0000 0.29610  0.12230  0.43830  Biso   1.000  C
  C13      1.0000 0.65790  0.79740  0.63420  Biso   1.000  C
  C14      1.0000 0.34210  0.20260  0.36580  Biso   1.000  C
  C15      1.0000 0.37900  0.64450  0.11250  Biso   1.000  C
  C16      1.0000 0.62100  0.35550  0.88750  Biso   1.000  C
  H15      1.0000 0.43560  0.67060  0.17790  Biso   1.000  H
  H16      1.0000 0.56440  0.32940  0.82210  Biso   1.000  H
  C17      1.0000 0.18000  0.57580  0.10130  Biso   1.000  C
  C18      1.0000 0.82000  0.42420  0.89870  Biso   1.000  C
  H17      1.0000 0.10840  0.56030  0.15770  Biso   1.000  H
  H18      1.0000 0.89160  0.43970  0.84230  Biso   1.000  H
  C19      1.0000 0.09900  0.53470  0.00810  Biso   1.000  C
  C20      1.0000 0.90100  0.46530  0.99190  Biso   1.000  C
  C21      1.0000 0.21400  0.56520  0.92940  Biso   1.000  C
  C22      1.0000 0.78600  0.43480  0.07060  Biso   1.000  C
  H19      1.0000 0.16620  0.53730  0.86320  Biso   1.000  H
  H20      1.0000 0.83380  0.46270  0.13680  Biso   1.000  H
  C23      1.0000 0.39900  0.63680  0.94760  Biso   1.000  C
  C24      1.0000 0.60100  0.36320  0.05240  Biso   1.000  C
  H21      1.0000 0.46420  0.66040  0.89230  Biso   1.000  H
  H22      1.0000 0.53580  0.33960  0.10770  Biso   1.000  H
  C25      1.0000 0.14200  0.89510  0.10680  Biso   1.000  C
  C26      1.0000 0.85800  0.10490  0.89320  Biso   1.000  C
  H23      1.0000 0.10450  0.88700  0.17190  Biso   1.000  H
  H24      1.0000 0.89550  0.11300  0.82810  Biso   1.000  H
  C27      1.0000 0.32900  0.95990  0.09730  Biso   1.000  C
  C28      1.0000 0.67100  0.04010  0.90270  Biso   1.000  C
  H25      1.0000 0.40690  0.99800  0.15440  Biso   1.000  H
  H26      1.0000 0.59310  0.00200  0.84560  Biso   1.000  H
  C29      1.0000 0.39700  0.96720  0.00670  Biso   1.000  C
  C30      1.0000 0.60300  0.03280  0.99330  Biso   1.000  C
  C31      1.0000 0.27300  0.91150  0.92790  Biso   1.000  C
  C32      1.0000 0.72700  0.08850  0.07210  Biso   1.000  C
  H27      1.0000 0.31720  0.91300  0.86280  Biso   1.000  H
  H28      1.0000 0.68280  0.08700  0.13720  Biso   1.000  H
  C33      1.0000 0.08700  0.85360  0.94080  Biso   1.000  C
  C34      1.0000 0.91300  0.14640  0.05920  Biso   1.000  C
  H29      1.0000 0.00490  0.81840  0.88400  Biso   1.000  H
  H30      1.0000 0.99510  0.18160  0.11600  Biso   1.000  H
