data_image0
_cell_length_a       12.648
_cell_length_b       13.225
_cell_length_c       14.475
_cell_angle_alpha    87.804
_cell_angle_beta     67.298
_cell_angle_gamma    66.926

_symmetry_space_group_name_H-M    "P 1"
_symmetry_int_tables_number       1

loop_
  _symmetry_equiv_pos_as_xyz
  'x, y, z'

loop_
  _atom_site_label
  _atom_site_occupancy
  _atom_site_fract_x
  _atom_site_fract_y
  _atom_site_fract_z
  _atom_site_thermal_displace_type
  _atom_site_B_iso_or_equiv
  _atom_site_type_symbol
  Cu1      1.0000 0.47552  0.77758  0.05309  Biso   1.000  Cu
  Cu2      1.0000 0.52448  0.22242  0.94691  Biso   1.000  Cu
  Cu3      1.0000 0.05591  0.24030  0.93612  Biso   1.000  Cu
  Cu4      1.0000 0.94409  0.75970  0.06388  Biso   1.000  Cu
  Gd1      1.0000 0.31286  0.62441  0.43283  Biso   1.000  Gd
  Gd2      1.0000 0.68714  0.37559  0.56717  Biso   1.000  Gd
  Gd3      1.0000 0.81718  0.62062  0.42592  Biso   1.000  Gd
  Gd4      1.0000 0.18282  0.37938  0.57408  Biso   1.000  Gd
  N1       1.0000 0.20920  0.83070  0.46940  Biso   1.000  N
  N2       1.0000 0.79080  0.16930  0.53060  Biso   1.000  N
  N3       1.0000 0.70840  0.82550  0.46540  Biso   1.000  N
  N4       1.0000 0.29160  0.17450  0.53460  Biso   1.000  N
  N5       1.0000 0.57880  0.85900  0.02810  Biso   1.000  N
  N6       1.0000 0.42120  0.14100  0.97190  Biso   1.000  N
  N7       1.0000 0.94120  0.17060  0.96320  Biso   1.000  N
  N8       1.0000 0.05880  0.82940  0.03680  Biso   1.000  N
  N9       1.0000 0.40700  0.67990  0.03210  Biso   1.000  N
  N10      1.0000 0.59300  0.32010  0.96790  Biso   1.000  N
  N11      1.0000 0.13020  0.33480  0.95510  Biso   1.000  N
  N12      1.0000 0.86980  0.66520  0.04490  Biso   1.000  N
  O1       1.0000 0.13780  0.67780  0.37890  Biso   1.000  O
  O2       1.0000 0.86220  0.32220  0.62110  Biso   1.000  O
  O3       1.0000 0.14190  0.53450  0.48050  Biso   1.000  O
  O4       1.0000 0.85810  0.46550  0.51950  Biso   1.000  O
  O5       1.0000 0.93870  0.67650  0.49770  Biso   1.000  O
  O6       1.0000 0.06130  0.32350  0.50230  Biso   1.000  O
  O7       1.0000 0.05720  0.54420  0.35290  Biso   1.000  O
  O8       1.0000 0.94280  0.45580  0.64710  Biso   1.000  O
  O9       1.0000 0.64780  0.53180  0.47590  Biso   1.000  O
  O10      1.0000 0.35220  0.46820  0.52410  Biso   1.000  O
  O11      1.0000 0.63810  0.67390  0.37470  Biso   1.000  O
  O12      1.0000 0.36190  0.32610  0.62530  Biso   1.000  O
  O13      1.0000 0.55380  0.54130  0.35530  Biso   1.000  O
  O14      1.0000 0.44620  0.45870  0.64470  Biso   1.000  O
  O15      1.0000 0.44280  0.67400  0.49900  Biso   1.000  O
  O16      1.0000 0.55720  0.32600  0.50100  Biso   1.000  O
  O17      1.0000 0.37600  0.71780  0.29350  Biso   1.000  O
  O18      1.0000 0.62400  0.28220  0.70650  Biso   1.000  O
  O19      1.0000 0.34020  0.86800  0.21430  Biso   1.000  O
  O20      1.0000 0.65980  0.13200  0.78570  Biso   1.000  O
  O21      1.0000 0.17020  0.69900  0.60260  Biso   1.000  O
  O22      1.0000 0.82980  0.30100  0.39740  Biso   1.000  O
  O23      1.0000 0.03150  0.83960  0.72570  Biso   1.000  O
  O24      1.0000 0.96850  0.16040  0.27430  Biso   1.000  O
  O25      1.0000 0.86760  0.71910  0.28720  Biso   1.000  O
  O26      1.0000 0.13240  0.28090  0.71280  Biso   1.000  O
  O27      1.0000 0.81180  0.87020  0.21250  Biso   1.000  O
  O28      1.0000 0.18820  0.12980  0.78750  Biso   1.000  O
  O29      1.0000 0.67670  0.69040  0.59690  Biso   1.000  O
  O30      1.0000 0.32330  0.30960  0.40310  Biso   1.000  O
  O31      1.0000 0.52870  0.82660  0.71950  Biso   1.000  O
  O32      1.0000 0.47130  0.17340  0.28050  Biso   1.000  O
  O33      1.0000 0.39290  0.46860  0.30430  Biso   1.000  O
  O34      1.0000 0.60710  0.53140  0.69570  Biso   1.000  O
  H1       1.0000 0.35110  0.43240  0.33720  Biso   1.000  H
  H2       1.0000 0.64890  0.56760  0.66280  Biso   1.000  H
  H3       1.0000 0.46900  0.42780  0.29300  Biso   1.000  H
  H4       1.0000 0.53100  0.57220  0.70700  Biso   1.000  H
  O35      1.0000 0.90190  0.46370  0.29840  Biso   1.000  O
  O36      1.0000 0.09810  0.53630  0.70160  Biso   1.000  O
  H5       1.0000 0.86490  0.42000  0.31090  Biso   1.000  H
  H6       1.0000 0.13510  0.58000  0.68910  Biso   1.000  H
  H7       1.0000 0.96850  0.43090  0.30850  Biso   1.000  H
  H8       1.0000 0.03150  0.56910  0.69150  Biso   1.000  H
  O37      1.0000 0.63280  0.29030  0.28190  Biso   1.000  O
  O38      1.0000 0.36720  0.70970  0.71810  Biso   1.000  O
  H9       1.0000 0.59720  0.24770  0.28140  Biso   1.000  H
  H10      1.0000 0.40280  0.75230  0.71860  Biso   1.000  H
  H11      1.0000 0.63220  0.29230  0.34080  Biso   1.000  H
  H12      1.0000 0.36780  0.70770  0.65920  Biso   1.000  H
  O39      1.0000 0.13460  0.30100  0.28290  Biso   1.000  O
  O40      1.0000 0.86540  0.69900  0.71710  Biso   1.000  O
  H13      1.0000 0.12440  0.28200  0.34140  Biso   1.000  H
  H14      1.0000 0.87560  0.71800  0.65860  Biso   1.000  H
  H15      1.0000 0.11360  0.37060  0.29010  Biso   1.000  H
  H16      1.0000 0.88640  0.62940  0.70990  Biso   1.000  H
  S1       1.0000 0.06870  0.60865  0.42599  Biso   1.000  S
  S2       1.0000 0.93130  0.39135  0.57401  Biso   1.000  S
  S3       1.0000 0.56970  0.60565  0.42501  Biso   1.000  S
  S4       1.0000 0.43030  0.39435  0.57499  Biso   1.000  S
  C1       1.0000 0.32290  0.82090  0.29170  Biso   1.000  C
  C2       1.0000 0.67710  0.17910  0.70830  Biso   1.000  C
  C3       1.0000 0.23220  0.89150  0.39210  Biso   1.000  C
  C4       1.0000 0.76780  0.10850  0.60790  Biso   1.000  C
  C5       1.0000 0.17710  0.00620  0.40730  Biso   1.000  C
  C6       1.0000 0.82290  0.99380  0.59270  Biso   1.000  C
  H17      1.0000 0.19130  0.04700  0.35360  Biso   1.000  H
  H18      1.0000 0.80870  0.95300  0.64640  Biso   1.000  H
  C7       1.0000 0.09950  0.05860  0.50630  Biso   1.000  C
  C8       1.0000 0.90050  0.94140  0.49370  Biso   1.000  C
  H19      1.0000 0.06350  0.13560  0.51970  Biso   1.000  H
  H20      1.0000 0.93650  0.86440  0.48030  Biso   1.000  H
  C9       1.0000 0.07630  0.99530  0.58450  Biso   1.000  C
  C10      1.0000 0.92370  0.00470  0.41550  Biso   1.000  C
  H21      1.0000 0.02380  0.02960  0.65040  Biso   1.000  H
  H22      1.0000 0.97620  0.97040  0.34960  Biso   1.000  H
  C11      1.0000 0.13220  0.88050  0.56330  Biso   1.000  C
  C12      1.0000 0.86780  0.11950  0.43670  Biso   1.000  C
  C13      1.0000 0.10710  0.80270  0.63700  Biso   1.000  C
  C14      1.0000 0.89290  0.19730  0.36300  Biso   1.000  C
  C15      1.0000 0.80800  0.82280  0.28830  Biso   1.000  C
  C16      1.0000 0.19200  0.17720  0.71170  Biso   1.000  C
  C17      1.0000 0.72750  0.88850  0.39110  Biso   1.000  C
  C18      1.0000 0.27250  0.11150  0.60890  Biso   1.000  C
  C19      1.0000 0.67160  0.00410  0.41180  Biso   1.000  C
  C20      1.0000 0.32840  0.99590  0.58820  Biso   1.000  C
  H23      1.0000 0.68380  0.04730  0.35960  Biso   1.000  H
  H24      1.0000 0.31620  0.95270  0.64040  Biso   1.000  H
  C21      1.0000 0.59720  0.05420  0.51180  Biso   1.000  C
  C22      1.0000 0.40280  0.94580  0.48820  Biso   1.000  C
  H25      1.0000 0.56180  0.13100  0.52700  Biso   1.000  H
  H26      1.0000 0.43820  0.86900  0.47300  Biso   1.000  H
  C23      1.0000 0.57610  0.98850  0.58880  Biso   1.000  C
  C24      1.0000 0.42390  0.01150  0.41120  Biso   1.000  C
  H27      1.0000 0.52600  0.02000  0.65580  Biso   1.000  H
  H28      1.0000 0.47400  0.98000  0.34420  Biso   1.000  H
  C25      1.0000 0.63330  0.87320  0.56130  Biso   1.000  C
  C26      1.0000 0.36670  0.12680  0.43870  Biso   1.000  C
  C27      1.0000 0.60940  0.79280  0.63400  Biso   1.000  C
  C28      1.0000 0.39060  0.20720  0.36600  Biso   1.000  C
  C29      1.0000 0.55850  0.93020  0.10340  Biso   1.000  C
  C30      1.0000 0.44150  0.06980  0.89660  Biso   1.000  C
  H29      1.0000 0.49270  0.94010  0.16560  Biso   1.000  H
  H30      1.0000 0.50730  0.05990  0.83440  Biso   1.000  H
  C31      1.0000 0.63060  0.98930  0.09290  Biso   1.000  C
  C32      1.0000 0.36940  0.01070  0.90710  Biso   1.000  C
  H31      1.0000 0.61270  0.03800  0.14690  Biso   1.000  H
  H32      1.0000 0.38730  0.96200  0.85310  Biso   1.000  H
  C33      1.0000 0.72970  0.97560  0.00160  Biso   1.000  C
  C34      1.0000 0.27030  0.02440  0.99840  Biso   1.000  C
  C35      1.0000 0.74890  0.90420  0.92470  Biso   1.000  C
  C36      1.0000 0.25110  0.09580  0.07530  Biso   1.000  C
  H33      1.0000 0.81260  0.89470  0.86130  Biso   1.000  H
  H34      1.0000 0.18740  0.10530  0.13870  Biso   1.000  H
  C37      1.0000 0.67500  0.84650  0.94020  Biso   1.000  C
  C38      1.0000 0.32500  0.15350  0.05980  Biso   1.000  C
  H35      1.0000 0.69270  0.79660  0.88720  Biso   1.000  H
  H36      1.0000 0.30730  0.20340  0.11280  Biso   1.000  H
  C39      1.0000 0.91930  0.14210  0.88740  Biso   1.000  C
  C40      1.0000 0.08070  0.85790  0.11260  Biso   1.000  C
  H37      1.0000 0.94960  0.16680  0.82560  Biso   1.000  H
  H38      1.0000 0.05040  0.83320  0.17440  Biso   1.000  H
  C41      1.0000 0.85300  0.07700  0.89680  Biso   1.000  C
  C42      1.0000 0.14700  0.92300  0.10320  Biso   1.000  C
  H39      1.0000 0.84270  0.05590  0.84140  Biso   1.000  H
  H40      1.0000 0.15730  0.94410  0.15860  Biso   1.000  H
  C43      1.0000 0.80330  0.04450  0.98810  Biso   1.000  C
  C44      1.0000 0.19670  0.95550  0.01190  Biso   1.000  C
  C45      1.0000 0.82450  0.07510  0.06730  Biso   1.000  C
  C46      1.0000 0.17550  0.92490  0.93270  Biso   1.000  C
  H41      1.0000 0.79300  0.05250  0.13010  Biso   1.000  H
  H42      1.0000 0.20700  0.94750  0.86990  Biso   1.000  H
  C47      1.0000 0.89210  0.13880  0.05390  Biso   1.000  C
  C48      1.0000 0.10790  0.86120  0.94610  Biso   1.000  C
  H43      1.0000 0.90400  0.16020  0.10830  Biso   1.000  H
  H44      1.0000 0.09600  0.83980  0.89170  Biso   1.000  H
  C49      1.0000 0.35780  0.62640  0.10320  Biso   1.000  C
  C50      1.0000 0.64220  0.37360  0.89680  Biso   1.000  C
  H45      1.0000 0.36280  0.63350  0.16480  Biso   1.000  H
  H46      1.0000 0.63720  0.36650  0.83520  Biso   1.000  H
  C51      1.0000 0.30050  0.56200  0.09360  Biso   1.000  C
  C52      1.0000 0.69950  0.43800  0.90640  Biso   1.000  C
  H47      1.0000 0.26430  0.53000  0.14840  Biso   1.000  H
  H48      1.0000 0.73570  0.47000  0.85160  Biso   1.000  H
  C53      1.0000 0.29640  0.54430  0.00240  Biso   1.000  C
  C54      1.0000 0.70360  0.45570  0.99760  Biso   1.000  C
  C55      1.0000 0.34580  0.60000  0.92630  Biso   1.000  C
  C56      1.0000 0.65420  0.40000  0.07370  Biso   1.000  C
  H49      1.0000 0.34170  0.59380  0.86410  Biso   1.000  H
  H50      1.0000 0.65830  0.40620  0.13590  Biso   1.000  H
  C57      1.0000 0.40040  0.66390  0.94310  Biso   1.000  C
  C58      1.0000 0.59960  0.33610  0.05690  Biso   1.000  C
  H51      1.0000 0.43530  0.69870  0.89020  Biso   1.000  H
  H52      1.0000 0.56470  0.30130  0.10980  Biso   1.000  H
  C59      1.0000 0.08780  0.39240  0.04590  Biso   1.000  C
  C60      1.0000 0.91220  0.60760  0.95410  Biso   1.000  C
  H53      1.0000 0.02090  0.38580  0.09900  Biso   1.000  H
  H54      1.0000 0.97910  0.61420  0.90100  Biso   1.000  H
  C61      1.0000 0.13770  0.45980  0.06400  Biso   1.000  C
  C62      1.0000 0.86230  0.54020  0.93600  Biso   1.000  C
  H55      1.0000 0.10530  0.49820  0.12800  Biso   1.000  H
  H56      1.0000 0.89470  0.50180  0.87200  Biso   1.000  H
  C63      1.0000 0.23920  0.47050  0.98440  Biso   1.000  C
  C64      1.0000 0.76080  0.52950  0.01560  Biso   1.000  C
  C65      1.0000 0.28160  0.41320  0.89140  Biso   1.000  C
  C66      1.0000 0.71840  0.58680  0.10860  Biso   1.000  C
  H57      1.0000 0.34680  0.41970  0.83630  Biso   1.000  H
  H58      1.0000 0.65320  0.58030  0.16370  Biso   1.000  H
  C67      1.0000 0.22600  0.34610  0.88080  Biso   1.000  C
  C68      1.0000 0.77400  0.65390  0.11920  Biso   1.000  C
  H59      1.0000 0.25720  0.30610  0.81770  Biso   1.000  H
  H60      1.0000 0.74280  0.69390  0.18230  Biso   1.000  H
