data_image0
_cell_length_a       6.383
_cell_length_b       12.333
_cell_length_c       13.507
_cell_angle_alpha    97.427
_cell_angle_beta     93.019
_cell_angle_gamma    95.519

_symmetry_space_group_name_H-M    "P 1"
_symmetry_int_tables_number       1

loop_
  _symmetry_equiv_pos_as_xyz
  'x, y, z'

loop_
  _atom_site_label
  _atom_site_occupancy
  _atom_site_fract_x
  _atom_site_fract_y
  _atom_site_fract_z
  _atom_site_thermal_displace_type
  _atom_site_B_iso_or_equiv
  _atom_site_type_symbol
  Cu1      1.0000 0.74670  0.76890  0.55870  Biso   1.000  Cu
  Cu2      1.0000 0.25330  0.23110  0.44130  Biso   1.000  Cu
  Eu1      1.0000 0.68249  0.62215  0.92878  Biso   1.000  Eu
  Eu2      1.0000 0.31751  0.37785  0.07122  Biso   1.000  Eu
  N1       1.0000 0.71500  0.82640  0.96710  Biso   1.000  N
  N2       1.0000 0.28500  0.17360  0.03290  Biso   1.000  N
  N3       1.0000 0.48200  0.67600  0.53700  Biso   1.000  N
  N4       1.0000 0.51800  0.32400  0.46300  Biso   1.000  N
  N5       1.0000 0.01800  0.84200  0.53220  Biso   1.000  N
  N6       1.0000 0.98200  0.15800  0.46780  Biso   1.000  N
  O1       1.0000 0.75500  0.72060  0.79140  Biso   1.000  O
  O2       1.0000 0.24500  0.27940  0.20860  Biso   1.000  O
  O3       1.0000 0.73900  0.87140  0.71350  Biso   1.000  O
  O4       1.0000 0.26100  0.12860  0.28650  Biso   1.000  O
  O5       1.0000 0.63400  0.69250  0.09490  Biso   1.000  O
  O6       1.0000 0.36600  0.30750  0.90510  Biso   1.000  O
  O7       1.0000 0.62000  0.83620  0.21930  Biso   1.000  O
  O8       1.0000 0.38000  0.16380  0.78070  Biso   1.000  O
  O9       1.0000 0.30210  0.53160  0.97660  Biso   1.000  O
  O10      1.0000 0.69790  0.46840  0.02340  Biso   1.000  O
  O11      1.0000 0.05700  0.67750  0.99710  Biso   1.000  O
  O12      1.0000 0.94300  0.32250  0.00290  Biso   1.000  O
  O13      1.0000 0.32800  0.67700  0.87560  Biso   1.000  O
  O14      1.0000 0.67200  0.32300  0.12440  Biso   1.000  O
  O15      1.0000 0.01000  0.54280  0.85430  Biso   1.000  O
  O16      1.0000 0.99000  0.45720  0.14570  Biso   1.000  O
  O17      1.0000 0.56400  0.46330  0.80210  Biso   1.000  O
  O18      1.0000 0.43600  0.53670  0.19790  Biso   1.000  O
  H1       1.0000 0.43660  0.44250  0.81140  Biso   1.000  H
  H2       1.0000 0.56340  0.55750  0.18860  Biso   1.000  H
  H3       1.0000 0.60330  0.41230  0.83340  Biso   1.000  H
  H4       1.0000 0.39670  0.58770  0.16660  Biso   1.000  H
  O19      1.0000 0.84000  0.29670  0.78140  Biso   1.000  O
  O20      1.0000 0.16000  0.70330  0.21860  Biso   1.000  O
  H5       1.0000 0.85750  0.28170  0.84070  Biso   1.000  H
  H6       1.0000 0.14250  0.71830  0.15930  Biso   1.000  H
  H7       1.0000 0.73000  0.33040  0.77990  Biso   1.000  H
  H8       1.0000 0.27000  0.66960  0.22010  Biso   1.000  H
  S1       1.0000 0.17400  0.60730  0.92580  Biso   1.000  S
  S2       1.0000 0.82600  0.39270  0.07420  Biso   1.000  S
  C1       1.0000 0.74100  0.82010  0.78940  Biso   1.000  C
  C2       1.0000 0.25900  0.17990  0.21060  Biso   1.000  C
  C3       1.0000 0.74000  0.89130  0.89110  Biso   1.000  C
  C4       1.0000 0.26000  0.10870  0.10890  Biso   1.000  C
  C5       1.0000 0.76400  0.00530  0.90820  Biso   1.000  C
  C6       1.0000 0.23600  0.99470  0.09180  Biso   1.000  C
  H9       1.0000 0.78050  0.04690  0.85590  Biso   1.000  H
  H10      1.0000 0.21950  0.95310  0.14410  Biso   1.000  H
  C7       1.0000 0.76300  0.05670  0.01030  Biso   1.000  C
  C8       1.0000 0.23700  0.94330  0.98970  Biso   1.000  C
  H11      1.0000 0.78010  0.13300  0.02450  Biso   1.000  H
  H12      1.0000 0.21990  0.86700  0.97550  Biso   1.000  H
  C9       1.0000 0.73700  0.99200  0.08940  Biso   1.000  C
  C10      1.0000 0.26300  0.00800  0.91060  Biso   1.000  C
  H13      1.0000 0.74080  0.02460  0.15560  Biso   1.000  H
  H14      1.0000 0.25920  0.97540  0.84440  Biso   1.000  H
  C11      1.0000 0.70500  0.87900  0.06460  Biso   1.000  C
  C12      1.0000 0.29500  0.12100  0.93540  Biso   1.000  C
  C13      1.0000 0.65700  0.79480  0.13400  Biso   1.000  C
  C14      1.0000 0.34300  0.20520  0.86600  Biso   1.000  C
  C15      1.0000 0.39300  0.64200  0.61200  Biso   1.000  C
  C16      1.0000 0.60700  0.35800  0.38800  Biso   1.000  C
  H15      1.0000 0.46390  0.65970  0.67490  Biso   1.000  H
  H16      1.0000 0.53610  0.34030  0.32510  Biso   1.000  H
  C17      1.0000 0.18300  0.57600  0.60500  Biso   1.000  C
  C18      1.0000 0.81700  0.42400  0.39500  Biso   1.000  C
  H17      1.0000 0.11160  0.56300  0.66100  Biso   1.000  H
  H18      1.0000 0.88840  0.43700  0.33900  Biso   1.000  H
  C19      1.0000 0.09800  0.53500  0.50500  Biso   1.000  C
  C20      1.0000 0.90200  0.46500  0.49500  Biso   1.000  C
  C21      1.0000 0.21200  0.57600  0.42900  Biso   1.000  C
  C22      1.0000 0.78800  0.42400  0.57100  Biso   1.000  C
  H19      1.0000 0.15970  0.55580  0.36290  Biso   1.000  H
  H20      1.0000 0.84030  0.44420  0.63710  Biso   1.000  H
  C23      1.0000 0.40200  0.64700  0.44700  Biso   1.000  C
  C24      1.0000 0.59800  0.35300  0.55300  Biso   1.000  C
  H21      1.0000 0.46830  0.67340  0.39430  Biso   1.000  H
  H22      1.0000 0.53170  0.32660  0.60570  Biso   1.000  H
  C25      1.0000 0.15000  0.87600  0.61800  Biso   1.000  C
  C26      1.0000 0.85000  0.12400  0.38200  Biso   1.000  C
  H23      1.0000 0.12050  0.85630  0.68010  Biso   1.000  H
  H24      1.0000 0.87950  0.14370  0.31990  Biso   1.000  H
  C27      1.0000 0.33300  0.94200  0.60100  Biso   1.000  C
  C28      1.0000 0.66700  0.05800  0.39900  Biso   1.000  C
  H25      1.0000 0.42010  0.97240  0.65670  Biso   1.000  H
  H26      1.0000 0.57990  0.02760  0.34330  Biso   1.000  H
  C29      1.0000 0.39700  0.96700  0.50740  Biso   1.000  C
  C30      1.0000 0.60300  0.03300  0.49260  Biso   1.000  C
  C31      1.0000 0.25800  0.91800  0.42700  Biso   1.000  C
  C32      1.0000 0.74200  0.08200  0.57300  Biso   1.000  C
  H27      1.0000 0.29330  0.92860  0.36230  Biso   1.000  H
  H28      1.0000 0.70670  0.07140  0.63770  Biso   1.000  H
  C33      1.0000 0.07100  0.85500  0.43690  Biso   1.000  C
  C34      1.0000 0.92900  0.14500  0.56310  Biso   1.000  C
  H29      1.0000 0.98430  0.82230  0.38140  Biso   1.000  H
  H30      1.0000 0.01570  0.17770  0.61860  Biso   1.000  H
