data_image0
_cell_length_a       12.624
_cell_length_b       13.208
_cell_length_c       14.457
_cell_angle_alpha    87.744
_cell_angle_beta     67.324
_cell_angle_gamma    66.785

_symmetry_space_group_name_H-M    "P 1"
_symmetry_int_tables_number       1

loop_
  _symmetry_equiv_pos_as_xyz
  'x, y, z'

loop_
  _atom_site_label
  _atom_site_occupancy
  _atom_site_fract_x
  _atom_site_fract_y
  _atom_site_fract_z
  _atom_site_thermal_displace_type
  _atom_site_B_iso_or_equiv
  _atom_site_type_symbol
  Tb1      1.0000 0.68307  0.87891  0.07347  Biso   1.000  Tb
  Tb2      1.0000 0.31693  0.12109  0.92653  Biso   1.000  Tb
  Tb3      1.0000 0.18710  0.87527  0.06661  Biso   1.000  Tb
  Tb4      1.0000 0.81290  0.12473  0.93339  Biso   1.000  Tb
  Cu1      1.0000 0.55518  0.74051  0.43639  Biso   1.000  Cu
  Cu2      1.0000 0.44482  0.25949  0.56361  Biso   1.000  Cu
  Cu3      1.0000 0.97563  0.27718  0.55342  Biso   1.000  Cu
  Cu4      1.0000 0.02437  0.72282  0.44658  Biso   1.000  Cu
  N1       1.0000 0.79210  0.67410  0.03270  Biso   1.000  N
  N2       1.0000 0.20790  0.32590  0.96730  Biso   1.000  N
  N3       1.0000 0.29060  0.67040  0.03040  Biso   1.000  N
  N4       1.0000 0.70940  0.32960  0.96960  Biso   1.000  N
  N5       1.0000 0.62950  0.83440  0.45550  Biso   1.000  N
  N6       1.0000 0.37050  0.16560  0.54450  Biso   1.000  N
  N7       1.0000 0.44050  0.67150  0.46300  Biso   1.000  N
  N8       1.0000 0.55950  0.32850  0.53700  Biso   1.000  N
  N9       1.0000 0.07930  0.35820  0.52920  Biso   1.000  N
  N10      1.0000 0.92070  0.64180  0.47080  Biso   1.000  N
  N11      1.0000 0.90670  0.17960  0.53110  Biso   1.000  N
  N12      1.0000 0.09330  0.82040  0.46890  Biso   1.000  N
  O1       1.0000 0.63200  0.78230  0.21210  Biso   1.000  O
  O2       1.0000 0.36800  0.21770  0.78790  Biso   1.000  O
  O3       1.0000 0.68800  0.62990  0.28660  Biso   1.000  O
  O4       1.0000 0.31200  0.37010  0.71340  Biso   1.000  O
  O5       1.0000 0.82320  0.81040  0.90300  Biso   1.000  O
  O6       1.0000 0.17680  0.18960  0.09700  Biso   1.000  O
  O7       1.0000 0.97120  0.67450  0.77970  Biso   1.000  O
  O8       1.0000 0.02880  0.32550  0.22030  Biso   1.000  O
  O9       1.0000 0.12540  0.78290  0.20480  Biso   1.000  O
  O10      1.0000 0.87460  0.21710  0.79520  Biso   1.000  O
  O11      1.0000 0.16000  0.63190  0.28540  Biso   1.000  O
  O12      1.0000 0.84000  0.36810  0.71460  Biso   1.000  O
  O13      1.0000 0.32870  0.80270  0.89760  Biso   1.000  O
  O14      1.0000 0.67130  0.19730  0.10240  Biso   1.000  O
  O15      1.0000 0.46740  0.66340  0.77450  Biso   1.000  O
  O16      1.0000 0.53260  0.33660  0.22550  Biso   1.000  O
  O17      1.0000 0.86250  0.82520  0.12360  Biso   1.000  O
  O18      1.0000 0.13750  0.17480  0.87640  Biso   1.000  O
  O19      1.0000 0.85290  0.96920  0.02300  Biso   1.000  O
  O20      1.0000 0.14710  0.03080  0.97700  Biso   1.000  O
  O21      1.0000 0.94630  0.95830  0.14500  Biso   1.000  O
  O22      1.0000 0.05370  0.04170  0.85500  Biso   1.000  O
  O23      1.0000 0.05860  0.82560  0.00070  Biso   1.000  O
  O24      1.0000 0.94140  0.17440  0.99930  Biso   1.000  O
  O25      1.0000 0.44250  0.95490  0.14780  Biso   1.000  O
  O26      1.0000 0.55750  0.04510  0.85220  Biso   1.000  O
  O27      1.0000 0.56190  0.82410  0.00190  Biso   1.000  O
  O28      1.0000 0.43810  0.17590  0.99810  Biso   1.000  O
  O29      1.0000 0.36400  0.82170  0.11850  Biso   1.000  O
  O30      1.0000 0.63600  0.17830  0.88150  Biso   1.000  O
  O31      1.0000 0.35930  0.96590  0.01850  Biso   1.000  O
  O32      1.0000 0.64070  0.03410  0.98150  Biso   1.000  O
  O33      1.0000 0.59900  0.03340  0.20020  Biso   1.000  O
  O34      1.0000 0.40100  0.96660  0.79980  Biso   1.000  O
  H1       1.0000 0.55860  0.07340  0.16720  Biso   1.000  H
  H2       1.0000 0.44140  0.92660  0.83280  Biso   1.000  H
  H3       1.0000 0.64420  0.06800  0.19750  Biso   1.000  H
  H4       1.0000 0.35580  0.93200  0.80250  Biso   1.000  H
  O35      1.0000 0.10700  0.02910  0.19470  Biso   1.000  O
  O36      1.0000 0.89300  0.97090  0.80530  Biso   1.000  O
  H5       1.0000 0.06750  0.06970  0.16140  Biso   1.000  H
  H6       1.0000 0.93250  0.93030  0.83860  Biso   1.000  H
  H7       1.0000 0.15720  0.05950  0.18750  Biso   1.000  H
  H8       1.0000 0.84280  0.94050  0.81250  Biso   1.000  H
  O37      1.0000 0.86550  0.21060  0.21820  Biso   1.000  O
  O38      1.0000 0.13450  0.78940  0.78180  Biso   1.000  O
  H9       1.0000 0.93280  0.15160  0.19390  Biso   1.000  H
  H10      1.0000 0.06720  0.84840  0.80610  Biso   1.000  H
  H11      1.0000 0.89140  0.26060  0.22000  Biso   1.000  H
  H12      1.0000 0.10860  0.73940  0.78000  Biso   1.000  H
  O39      1.0000 0.36550  0.19760  0.21800  Biso   1.000  O
  O40      1.0000 0.63450  0.80240  0.78200  Biso   1.000  O
  H13      1.0000 0.37490  0.21330  0.15860  Biso   1.000  H
  H14      1.0000 0.62510  0.78670  0.84140  Biso   1.000  H
  H15      1.0000 0.42700  0.13580  0.21040  Biso   1.000  H
  H16      1.0000 0.57300  0.86420  0.78960  Biso   1.000  H
  S1       1.0000 0.93027  0.89463  0.07439  Biso   1.000  S
  S2       1.0000 0.06973  0.10537  0.92561  Biso   1.000  S
  S3       1.0000 0.43141  0.89184  0.07319  Biso   1.000  S
  S4       1.0000 0.56859  0.10816  0.92681  Biso   1.000  S
  C1       1.0000 0.69160  0.67840  0.21100  Biso   1.000  C
  C2       1.0000 0.30840  0.32160  0.78900  Biso   1.000  C
  C3       1.0000 0.77300  0.61210  0.10810  Biso   1.000  C
  C4       1.0000 0.22700  0.38790  0.89190  Biso   1.000  C
  C5       1.0000 0.82810  0.49550  0.08800  Biso   1.000  C
  C6       1.0000 0.17190  0.50450  0.91200  Biso   1.000  C
  H17      1.0000 0.81520  0.45230  0.14010  Biso   1.000  H
  H18      1.0000 0.18480  0.54770  0.85990  Biso   1.000  H
  C7       1.0000 0.90290  0.44610  0.98770  Biso   1.000  C
  C8       1.0000 0.09710  0.55390  0.01230  Biso   1.000  C
  H19      1.0000 0.93850  0.36920  0.97220  Biso   1.000  H
  H20      1.0000 0.06150  0.63080  0.02780  Biso   1.000  H
  C9       1.0000 0.92380  0.51100  0.91230  Biso   1.000  C
  C10      1.0000 0.07620  0.48900  0.08770  Biso   1.000  C
  H21      1.0000 0.97480  0.47910  0.84540  Biso   1.000  H
  H22      1.0000 0.02520  0.52090  0.15460  Biso   1.000  H
  C11      1.0000 0.86630  0.62640  0.93840  Biso   1.000  C
  C12      1.0000 0.13370  0.37360  0.06160  Biso   1.000  C
  C13      1.0000 0.88960  0.70880  0.86500  Biso   1.000  C
  C14      1.0000 0.11040  0.29120  0.13500  Biso   1.000  C
  C15      1.0000 0.17820  0.67870  0.20760  Biso   1.000  C
  C16      1.0000 0.82180  0.32130  0.79240  Biso   1.000  C
  C17      1.0000 0.26820  0.61020  0.10770  Biso   1.000  C
  C18      1.0000 0.73180  0.38980  0.89230  Biso   1.000  C
  C19      1.0000 0.32380  0.49450  0.09140  Biso   1.000  C
  C20      1.0000 0.67620  0.50550  0.90860  Biso   1.000  C
  H23      1.0000 0.31010  0.45310  0.14480  Biso   1.000  H
  H24      1.0000 0.68990  0.54690  0.85520  Biso   1.000  H
  C21      1.0000 0.40130  0.44260  0.99180  Biso   1.000  C
  C22      1.0000 0.59870  0.55740  0.00820  Biso   1.000  C
  H25      1.0000 0.43780  0.36550  0.97800  Biso   1.000  H
  H26      1.0000 0.56220  0.63450  0.02200  Biso   1.000  H
  C23      1.0000 0.42350  0.50500  0.91480  Biso   1.000  C
  C24      1.0000 0.57650  0.49500  0.08520  Biso   1.000  C
  H27      1.0000 0.47560  0.47080  0.84870  Biso   1.000  H
  H28      1.0000 0.52440  0.52920  0.15130  Biso   1.000  H
  C25      1.0000 0.36690  0.62100  0.93650  Biso   1.000  C
  C26      1.0000 0.63310  0.37900  0.06350  Biso   1.000  C
  C27      1.0000 0.39130  0.69950  0.86140  Biso   1.000  C
  C28      1.0000 0.60870  0.30050  0.13860  Biso   1.000  C
  C29      1.0000 0.58710  0.89170  0.54680  Biso   1.000  C
  C30      1.0000 0.41290  0.10830  0.45320  Biso   1.000  C
  H29      1.0000 0.52060  0.88440  0.60010  Biso   1.000  H
  H30      1.0000 0.47940  0.11560  0.39990  Biso   1.000  H
  C31      1.0000 0.63710  0.95990  0.56500  Biso   1.000  C
  C32      1.0000 0.36290  0.04010  0.43500  Biso   1.000  C
  H31      1.0000 0.60440  0.99810  0.62930  Biso   1.000  H
  H32      1.0000 0.39560  0.00190  0.37070  Biso   1.000  H
  C33      1.0000 0.73770  0.97200  0.48620  Biso   1.000  C
  C34      1.0000 0.26230  0.02800  0.51380  Biso   1.000  C
  C35      1.0000 0.78020  0.91420  0.39260  Biso   1.000  C
  C36      1.0000 0.21980  0.08580  0.60740  Biso   1.000  C
  H33      1.0000 0.84600  0.92060  0.33800  Biso   1.000  H
  H34      1.0000 0.15400  0.07940  0.66200  Biso   1.000  H
  C37      1.0000 0.72510  0.84640  0.37970  Biso   1.000  C
  C38      1.0000 0.27490  0.15360  0.62030  Biso   1.000  C
  H35      1.0000 0.75550  0.80780  0.31600  Biso   1.000  H
  H36      1.0000 0.24450  0.19220  0.68400  Biso   1.000  H
  C39      1.0000 0.39250  0.63720  0.55400  Biso   1.000  C
  C40      1.0000 0.60750  0.36280  0.44600  Biso   1.000  C
  H37      1.0000 0.40640  0.65660  0.60800  Biso   1.000  H
  H38      1.0000 0.59360  0.34340  0.39200  Biso   1.000  H
  C41      1.0000 0.32390  0.57460  0.56800  Biso   1.000  C
  C42      1.0000 0.67610  0.42540  0.43200  Biso   1.000  C
  H39      1.0000 0.29090  0.55360  0.63130  Biso   1.000  H
  H40      1.0000 0.70910  0.44640  0.36870  Biso   1.000  H
  C43      1.0000 0.30380  0.54270  0.48860  Biso   1.000  C
  C44      1.0000 0.69620  0.45730  0.51140  Biso   1.000  C
  C45      1.0000 0.35300  0.57780  0.39700  Biso   1.000  C
  C46      1.0000 0.64700  0.42220  0.60300  Biso   1.000  C
  H41      1.0000 0.34170  0.55800  0.34160  Biso   1.000  H
  H42      1.0000 0.65830  0.44200  0.65840  Biso   1.000  H
  C47      1.0000 0.41860  0.64200  0.38750  Biso   1.000  C
  C48      1.0000 0.58140  0.35800  0.61250  Biso   1.000  C
  H43      1.0000 0.44920  0.66600  0.32530  Biso   1.000  H
  H44      1.0000 0.55080  0.33400  0.67470  Biso   1.000  H
  C49      1.0000 0.17400  0.34660  0.44150  Biso   1.000  C
  C50      1.0000 0.82600  0.65340  0.55850  Biso   1.000  C
  H45      1.0000 0.19050  0.29670  0.38880  Biso   1.000  H
  H46      1.0000 0.80950  0.70330  0.61120  Biso   1.000  H
  C51      1.0000 0.24910  0.40320  0.42340  Biso   1.000  C
  C52      1.0000 0.75090  0.59680  0.57660  Biso   1.000  C
  H47      1.0000 0.31300  0.39320  0.36000  Biso   1.000  H
  H48      1.0000 0.68700  0.60680  0.64000  Biso   1.000  H
  C53      1.0000 0.22740  0.47660  0.50290  Biso   1.000  C
  C54      1.0000 0.77260  0.52340  0.49710  Biso   1.000  C
  C55      1.0000 0.12930  0.48910  0.59430  Biso   1.000  C
  C56      1.0000 0.87070  0.51090  0.40570  Biso   1.000  C
  H49      1.0000 0.11140  0.53710  0.64890  Biso   1.000  H
  H50      1.0000 0.88860  0.46290  0.35110  Biso   1.000  H
  C57      1.0000 0.05870  0.43020  0.60350  Biso   1.000  C
  C58      1.0000 0.94130  0.56980  0.39650  Biso   1.000  C
  H51      1.0000 0.99210  0.44070  0.66540  Biso   1.000  H
  H52      1.0000 0.00790  0.55930  0.33460  Biso   1.000  H
  C59      1.0000 0.90200  0.16400  0.44220  Biso   1.000  C
  C60      1.0000 0.09800  0.83600  0.55780  Biso   1.000  C
  H53      1.0000 0.93730  0.19850  0.38910  Biso   1.000  H
  H54      1.0000 0.06270  0.80150  0.61090  Biso   1.000  H
  C61      1.0000 0.84730  0.09890  0.42660  Biso   1.000  C
  C62      1.0000 0.15270  0.90110  0.57340  Biso   1.000  C
  H55      1.0000 0.84510  0.09110  0.36380  Biso   1.000  H
  H56      1.0000 0.15490  0.90890  0.63620  Biso   1.000  H
  C63      1.0000 0.79490  0.04430  0.50320  Biso   1.000  C
  C64      1.0000 0.20510  0.95570  0.49680  Biso   1.000  C
  C65      1.0000 0.80350  0.05910  0.59350  Biso   1.000  C
  C66      1.0000 0.19650  0.94090  0.40650  Biso   1.000  C
  H57      1.0000 0.77180  0.02320  0.64700  Biso   1.000  H
  H58      1.0000 0.22820  0.97680  0.35300  Biso   1.000  H
  C67      1.0000 0.85820  0.12640  0.60520  Biso   1.000  C
  C68      1.0000 0.14180  0.87360  0.39480  Biso   1.000  C
  H59      1.0000 0.86180  0.13550  0.66730  Biso   1.000  H
  H60      1.0000 0.13820  0.86450  0.33270  Biso   1.000  H
