data_image0
_cell_length_a       12.632
_cell_length_b       13.234
_cell_length_c       14.431
_cell_angle_alpha    87.7
_cell_angle_beta     67.347
_cell_angle_gamma    66.628

_symmetry_space_group_name_H-M    "P 1"
_symmetry_int_tables_number       1

loop_
  _symmetry_equiv_pos_as_xyz
  'x, y, z'

loop_
  _atom_site_label
  _atom_site_occupancy
  _atom_site_fract_x
  _atom_site_fract_y
  _atom_site_fract_z
  _atom_site_thermal_displace_type
  _atom_site_B_iso_or_equiv
  _atom_site_type_symbol
  Dy1      1.0000 0.68317  0.87836  0.07287  Biso   1.000  Dy
  Dy2      1.0000 0.31683  0.12164  0.92713  Biso   1.000  Dy
  Dy3      1.0000 0.18693  0.87491  0.06638  Biso   1.000  Dy
  Dy4      1.0000 0.81307  0.12509  0.93362  Biso   1.000  Dy
  Cu1      1.0000 0.55435  0.74050  0.43627  Biso   1.000  Cu
  Cu2      1.0000 0.44565  0.25950  0.56373  Biso   1.000  Cu
  Cu3      1.0000 0.97549  0.27640  0.55326  Biso   1.000  Cu
  Cu4      1.0000 0.02451  0.72360  0.44674  Biso   1.000  Cu
  N1       1.0000 0.79180  0.67440  0.03320  Biso   1.000  N
  N2       1.0000 0.20820  0.32560  0.96680  Biso   1.000  N
  N3       1.0000 0.29020  0.67050  0.03050  Biso   1.000  N
  N4       1.0000 0.70980  0.32950  0.96950  Biso   1.000  N
  N5       1.0000 0.62830  0.83450  0.45520  Biso   1.000  N
  N6       1.0000 0.37170  0.16550  0.54480  Biso   1.000  N
  N7       1.0000 0.43940  0.67130  0.46290  Biso   1.000  N
  N8       1.0000 0.56060  0.32870  0.53710  Biso   1.000  N
  N9       1.0000 0.07890  0.35800  0.52880  Biso   1.000  N
  N10      1.0000 0.92110  0.64200  0.47120  Biso   1.000  N
  N11      1.0000 0.90590  0.17900  0.53160  Biso   1.000  N
  N12      1.0000 0.09410  0.82100  0.46840  Biso   1.000  N
  O1       1.0000 0.63270  0.78170  0.21030  Biso   1.000  O
  O2       1.0000 0.36730  0.21830  0.78970  Biso   1.000  O
  O3       1.0000 0.68680  0.63070  0.28680  Biso   1.000  O
  O4       1.0000 0.31320  0.36930  0.71320  Biso   1.000  O
  O5       1.0000 0.82380  0.81070  0.90240  Biso   1.000  O
  O6       1.0000 0.17620  0.18930  0.09760  Biso   1.000  O
  O7       1.0000 0.96990  0.67490  0.77890  Biso   1.000  O
  O8       1.0000 0.03010  0.32510  0.22110  Biso   1.000  O
  O9       1.0000 0.12560  0.78380  0.20410  Biso   1.000  O
  O10      1.0000 0.87440  0.21620  0.79590  Biso   1.000  O
  O11      1.0000 0.15940  0.63320  0.28530  Biso   1.000  O
  O12      1.0000 0.84060  0.36680  0.71470  Biso   1.000  O
  O13      1.0000 0.32780  0.80370  0.89770  Biso   1.000  O
  O14      1.0000 0.67220  0.19630  0.10230  Biso   1.000  O
  O15      1.0000 0.46900  0.66300  0.77310  Biso   1.000  O
  O16      1.0000 0.53100  0.33700  0.22690  Biso   1.000  O
  O17      1.0000 0.86310  0.82570  0.12210  Biso   1.000  O
  O18      1.0000 0.13690  0.17430  0.87790  Biso   1.000  O
  O19      1.0000 0.85320  0.97140  0.02190  Biso   1.000  O
  O20      1.0000 0.14680  0.02860  0.97810  Biso   1.000  O
  O21      1.0000 0.94600  0.95860  0.14510  Biso   1.000  O
  O22      1.0000 0.05400  0.04140  0.85490  Biso   1.000  O
  O23      1.0000 0.05890  0.82550  0.99970  Biso   1.000  O
  O24      1.0000 0.94110  0.17450  0.00030  Biso   1.000  O
  O25      1.0000 0.44230  0.95450  0.14710  Biso   1.000  O
  O26      1.0000 0.55770  0.04550  0.85290  Biso   1.000  O
  O27      1.0000 0.56340  0.82310  0.00070  Biso   1.000  O
  O28      1.0000 0.43660  0.17690  0.99930  Biso   1.000  O
  O29      1.0000 0.36330  0.82250  0.11720  Biso   1.000  O
  O30      1.0000 0.63670  0.17750  0.88280  Biso   1.000  O
  O31      1.0000 0.35910  0.96810  0.01820  Biso   1.000  O
  O32      1.0000 0.64090  0.03190  0.98180  Biso   1.000  O
  O33      1.0000 0.60060  0.03220  0.19870  Biso   1.000  O
  O34      1.0000 0.39940  0.96780  0.80130  Biso   1.000  O
  H1       1.0000 0.52250  0.06310  0.23660  Biso   1.000  H
  H2       1.0000 0.47750  0.93690  0.76340  Biso   1.000  H
  H3       1.0000 0.62420  0.08490  0.18490  Biso   1.000  H
  H4       1.0000 0.37580  0.91510  0.81510  Biso   1.000  H
  O35      1.0000 0.10820  0.02760  0.19380  Biso   1.000  O
  O36      1.0000 0.89180  0.97240  0.80620  Biso   1.000  O
  H5       1.0000 0.05440  0.08290  0.18100  Biso   1.000  H
  H6       1.0000 0.94560  0.91710  0.81900  Biso   1.000  H
  H7       1.0000 0.15860  0.05670  0.19000  Biso   1.000  H
  H8       1.0000 0.84140  0.94330  0.81000  Biso   1.000  H
  O37      1.0000 0.86720  0.21150  0.21880  Biso   1.000  O
  O38      1.0000 0.13280  0.78850  0.78120  Biso   1.000  O
  H9       1.0000 0.93450  0.15250  0.19440  Biso   1.000  H
  H10      1.0000 0.06550  0.84750  0.80560  Biso   1.000  H
  H11      1.0000 0.83220  0.21870  0.17750  Biso   1.000  H
  H12      1.0000 0.16780  0.78130  0.82250  Biso   1.000  H
  O39      1.0000 0.36650  0.19820  0.21790  Biso   1.000  O
  O40      1.0000 0.63350  0.80180  0.78210  Biso   1.000  O
  H13      1.0000 0.39110  0.22210  0.16150  Biso   1.000  H
  H14      1.0000 0.60890  0.77790  0.83850  Biso   1.000  H
  H15      1.0000 0.35390  0.14310  0.20440  Biso   1.000  H
  H16      1.0000 0.64610  0.85690  0.79560  Biso   1.000  H
  S1       1.0000 0.93030  0.89502  0.07390  Biso   1.000  S
  S2       1.0000 0.06970  0.10498  0.92610  Biso   1.000  S
  S3       1.0000 0.43180  0.89207  0.07260  Biso   1.000  S
  S4       1.0000 0.56820  0.10793  0.92740  Biso   1.000  S
  C1       1.0000 0.69170  0.67810  0.20970  Biso   1.000  C
  C2       1.0000 0.30830  0.32190  0.79030  Biso   1.000  C
  C3       1.0000 0.77300  0.61310  0.10700  Biso   1.000  C
  C4       1.0000 0.22700  0.38690  0.89300  Biso   1.000  C
  C5       1.0000 0.82870  0.49560  0.08740  Biso   1.000  C
  C6       1.0000 0.17130  0.50440  0.91260  Biso   1.000  C
  H17      1.0000 0.81670  0.45260  0.13980  Biso   1.000  H
  H18      1.0000 0.18330  0.54740  0.86020  Biso   1.000  H
  C7       1.0000 0.90150  0.44700  0.98810  Biso   1.000  C
  C8       1.0000 0.09850  0.55300  0.01190  Biso   1.000  C
  H19      1.0000 0.93550  0.37030  0.97240  Biso   1.000  H
  H20      1.0000 0.06450  0.62970  0.02760  Biso   1.000  H
  C9       1.0000 0.92400  0.51260  0.91150  Biso   1.000  C
  C10      1.0000 0.07600  0.48740  0.08850  Biso   1.000  C
  H21      1.0000 0.97590  0.48050  0.84470  Biso   1.000  H
  H22      1.0000 0.02410  0.51950  0.15530  Biso   1.000  H
  C11      1.0000 0.86690  0.62760  0.93740  Biso   1.000  C
  C12      1.0000 0.13310  0.37240  0.06260  Biso   1.000  C
  C13      1.0000 0.88880  0.70870  0.86600  Biso   1.000  C
  C14      1.0000 0.11120  0.29130  0.13400  Biso   1.000  C
  C15      1.0000 0.17860  0.68000  0.20610  Biso   1.000  C
  C16      1.0000 0.82140  0.32000  0.79390  Biso   1.000  C
  C17      1.0000 0.26860  0.61060  0.10640  Biso   1.000  C
  C18      1.0000 0.73140  0.38940  0.89360  Biso   1.000  C
  C19      1.0000 0.32580  0.49390  0.09010  Biso   1.000  C
  C20      1.0000 0.67420  0.50610  0.90990  Biso   1.000  C
  H23      1.0000 0.31340  0.45230  0.14360  Biso   1.000  H
  H24      1.0000 0.68660  0.54770  0.85640  Biso   1.000  H
  C21      1.0000 0.40200  0.44320  0.99050  Biso   1.000  C
  C22      1.0000 0.59800  0.55680  0.00950  Biso   1.000  C
  H25      1.0000 0.43830  0.36620  0.97580  Biso   1.000  H
  H26      1.0000 0.56170  0.63380  0.02420  Biso   1.000  H
  C23      1.0000 0.42300  0.50720  0.91430  Biso   1.000  C
  C24      1.0000 0.57700  0.49280  0.08570  Biso   1.000  C
  H27      1.0000 0.47460  0.47370  0.84780  Biso   1.000  H
  H28      1.0000 0.52540  0.52630  0.15220  Biso   1.000  H
  C25      1.0000 0.36810  0.62060  0.93590  Biso   1.000  C
  C26      1.0000 0.63190  0.37940  0.06410  Biso   1.000  C
  C27      1.0000 0.39130  0.69980  0.86150  Biso   1.000  C
  C28      1.0000 0.60870  0.30020  0.13850  Biso   1.000  C
  C29      1.0000 0.58710  0.89100  0.54650  Biso   1.000  C
  C30      1.0000 0.41290  0.10900  0.45350  Biso   1.000  C
  H29      1.0000 0.52060  0.88400  0.59990  Biso   1.000  H
  H30      1.0000 0.47940  0.11600  0.40010  Biso   1.000  H
  C31      1.0000 0.63850  0.95940  0.56550  Biso   1.000  C
  C32      1.0000 0.36150  0.04060  0.43450  Biso   1.000  C
  H31      1.0000 0.60820  0.99540  0.63040  Biso   1.000  H
  H32      1.0000 0.39180  0.00460  0.36960  Biso   1.000  H
  C33      1.0000 0.73650  0.97330  0.48560  Biso   1.000  C
  C34      1.0000 0.26350  0.02670  0.51440  Biso   1.000  C
  C35      1.0000 0.78120  0.91440  0.39250  Biso   1.000  C
  C36      1.0000 0.21880  0.08560  0.60750  Biso   1.000  C
  H33      1.0000 0.84790  0.91940  0.33780  Biso   1.000  H
  H34      1.0000 0.15210  0.08060  0.66220  Biso   1.000  H
  C37      1.0000 0.72400  0.84620  0.38130  Biso   1.000  C
  C38      1.0000 0.27600  0.15380  0.61870  Biso   1.000  C
  H35      1.0000 0.75530  0.80660  0.31780  Biso   1.000  H
  H36      1.0000 0.24470  0.19340  0.68220  Biso   1.000  H
  C39      1.0000 0.39090  0.63770  0.55370  Biso   1.000  C
  C40      1.0000 0.60910  0.36230  0.44630  Biso   1.000  C
  H37      1.0000 0.40460  0.65790  0.60770  Biso   1.000  H
  H38      1.0000 0.59540  0.34210  0.39230  Biso   1.000  H
  C41      1.0000 0.32280  0.57550  0.56920  Biso   1.000  C
  C42      1.0000 0.67720  0.42450  0.43080  Biso   1.000  C
  H39      1.0000 0.28980  0.55530  0.63300  Biso   1.000  H
  H40      1.0000 0.71020  0.44470  0.36700  Biso   1.000  H
  C43      1.0000 0.30320  0.54260  0.48930  Biso   1.000  C
  C44      1.0000 0.69680  0.45740  0.51070  Biso   1.000  C
  C45      1.0000 0.35140  0.57720  0.39700  Biso   1.000  C
  C46      1.0000 0.64860  0.42280  0.60300  Biso   1.000  C
  H41      1.0000 0.33930  0.55740  0.34190  Biso   1.000  H
  H42      1.0000 0.66070  0.44260  0.65810  Biso   1.000  H
  C47      1.0000 0.41820  0.64200  0.38690  Biso   1.000  C
  C48      1.0000 0.58180  0.35800  0.61310  Biso   1.000  C
  H43      1.0000 0.44910  0.66570  0.32450  Biso   1.000  H
  H44      1.0000 0.55090  0.33430  0.67550  Biso   1.000  H
  C49      1.0000 0.17290  0.34760  0.43980  Biso   1.000  C
  C50      1.0000 0.82710  0.65240  0.56020  Biso   1.000  C
  H45      1.0000 0.18750  0.30040  0.38600  Biso   1.000  H
  H46      1.0000 0.81250  0.69960  0.61400  Biso   1.000  H
  C51      1.0000 0.24900  0.40270  0.42340  Biso   1.000  C
  C52      1.0000 0.75100  0.59730  0.57660  Biso   1.000  C
  H47      1.0000 0.31410  0.39120  0.36020  Biso   1.000  H
  H48      1.0000 0.68590  0.60880  0.63980  Biso   1.000  H
  C53      1.0000 0.22870  0.47640  0.50200  Biso   1.000  C
  C54      1.0000 0.77130  0.52360  0.49800  Biso   1.000  C
  C55      1.0000 0.13020  0.48790  0.59500  Biso   1.000  C
  C56      1.0000 0.86980  0.51210  0.40500  Biso   1.000  C
  H49      1.0000 0.11340  0.53450  0.65010  Biso   1.000  H
  H50      1.0000 0.88660  0.46550  0.34990  Biso   1.000  H
  C57      1.0000 0.05810  0.42960  0.60430  Biso   1.000  C
  C58      1.0000 0.94190  0.57040  0.39570  Biso   1.000  C
  H51      1.0000 0.99140  0.44020  0.66620  Biso   1.000  H
  H52      1.0000 0.00860  0.55980  0.33380  Biso   1.000  H
  C59      1.0000 0.90170  0.16390  0.44120  Biso   1.000  C
  C60      1.0000 0.09830  0.83610  0.55880  Biso   1.000  C
  H53      1.0000 0.93760  0.19820  0.38820  Biso   1.000  H
  H54      1.0000 0.06240  0.80180  0.61180  Biso   1.000  H
  C61      1.0000 0.84570  0.09920  0.42490  Biso   1.000  C
  C62      1.0000 0.15430  0.90080  0.57510  Biso   1.000  C
  H55      1.0000 0.84160  0.09250  0.36260  Biso   1.000  H
  H56      1.0000 0.15840  0.90750  0.63740  Biso   1.000  H
  C63      1.0000 0.79550  0.04420  0.50240  Biso   1.000  C
  C64      1.0000 0.20450  0.95580  0.49760  Biso   1.000  C
  C65      1.0000 0.80210  0.05890  0.59350  Biso   1.000  C
  C66      1.0000 0.19790  0.94110  0.40650  Biso   1.000  C
  H57      1.0000 0.77010  0.02330  0.64710  Biso   1.000  H
  H58      1.0000 0.22990  0.97670  0.35290  Biso   1.000  H
  C67      1.0000 0.85660  0.12710  0.60470  Biso   1.000  C
  C68      1.0000 0.14340  0.87290  0.39530  Biso   1.000  C
  H59      1.0000 0.85870  0.13710  0.66730  Biso   1.000  H
  H60      1.0000 0.14130  0.86290  0.33270  Biso   1.000  H
