data_image0
_cell_length_a       15.152
_cell_length_b       12.764
_cell_length_c       22.213
_cell_angle_alpha    90
_cell_angle_beta     97.324
_cell_angle_gamma    90

_symmetry_space_group_name_H-M    "P 1"
_symmetry_int_tables_number       1

loop_
  _symmetry_equiv_pos_as_xyz
  'x, y, z'

loop_
  _atom_site_label
  _atom_site_occupancy
  _atom_site_fract_x
  _atom_site_fract_y
  _atom_site_fract_z
  _atom_site_thermal_displace_type
  _atom_site_B_iso_or_equiv
  _atom_site_type_symbol
  Cu1      1.0000 0.12681  0.38980  0.31885  Biso   1.000  Cu
  Cu2      1.0000 0.87319  0.88980  0.18115  Biso   1.000  Cu
  Cu3      1.0000 0.87319  0.61020  0.68115  Biso   1.000  Cu
  Cu4      1.0000 0.12681  0.11020  0.81885  Biso   1.000  Cu
  Cu5      1.0000 0.29583  0.35957  0.39780  Biso   1.000  Cu
  Cu6      1.0000 0.70417  0.85957  0.10220  Biso   1.000  Cu
  Cu7      1.0000 0.70417  0.64043  0.60220  Biso   1.000  Cu
  Cu8      1.0000 0.29583  0.14043  0.89780  Biso   1.000  Cu
  P1       1.0000 0.06962  0.25365  0.27175  Biso   1.000  P
  P2       1.0000 0.93038  0.75365  0.22825  Biso   1.000  P
  P3       1.0000 0.93038  0.74635  0.72825  Biso   1.000  P
  P4       1.0000 0.06962  0.24635  0.77175  Biso   1.000  P
  P5       1.0000 0.36412  0.21709  0.43065  Biso   1.000  P
  P6       1.0000 0.63588  0.71709  0.06935  Biso   1.000  P
  P7       1.0000 0.63588  0.78291  0.56935  Biso   1.000  P
  P8       1.0000 0.36412  0.28291  0.93065  Biso   1.000  P
  O1       1.0000 0.09828  0.47166  0.38817  Biso   1.000  O
  O2       1.0000 0.90172  0.97166  0.11183  Biso   1.000  O
  O3       1.0000 0.90172  0.52834  0.61183  Biso   1.000  O
  O4       1.0000 0.09828  0.02834  0.88817  Biso   1.000  O
  O5       1.0000 0.22678  0.45080  0.44742  Biso   1.000  O
  O6       1.0000 0.77322  0.95080  0.05258  Biso   1.000  O
  O7       1.0000 0.77322  0.54920  0.55258  Biso   1.000  O
  O8       1.0000 0.22678  0.04920  0.94742  Biso   1.000  O
  O9       1.0000 0.20640  0.01065  0.78214  Biso   1.000  O
  O10      1.0000 0.79360  0.51065  0.71786  Biso   1.000  O
  O11      1.0000 0.79360  0.98935  0.21786  Biso   1.000  O
  O12      1.0000 0.20640  0.48935  0.28214  Biso   1.000  O
  O13      1.0000 0.33568  0.04091  0.83792  Biso   1.000  O
  O14      1.0000 0.66432  0.54091  0.66208  Biso   1.000  O
  O15      1.0000 0.66432  0.95909  0.16208  Biso   1.000  O
  O16      1.0000 0.33568  0.45909  0.33792  Biso   1.000  O
  O17      1.0000 0.31160  0.63570  0.61919  Biso   1.000  O
  O18      1.0000 0.68840  0.13570  0.88081  Biso   1.000  O
  O19      1.0000 0.68840  0.36430  0.38081  Biso   1.000  O
  O20      1.0000 0.31160  0.86430  0.11919  Biso   1.000  O
  N1       1.0000 0.20550  0.75890  0.61606  Biso   1.000  N
  N2       1.0000 0.79450  0.25890  0.88394  Biso   1.000  N
  N3       1.0000 0.79450  0.24110  0.38394  Biso   1.000  N
  N4       1.0000 0.20550  0.74110  0.11606  Biso   1.000  N
  N5       1.0000 0.26670  0.72110  0.62897  Biso   1.000  N
  N6       1.0000 0.73330  0.22110  0.87103  Biso   1.000  N
  N7       1.0000 0.73330  0.27890  0.37103  Biso   1.000  N
  N8       1.0000 0.26670  0.77890  0.12897  Biso   1.000  N
  C1       1.0000 0.96200  0.28320  0.22887  Biso   1.000  C
  C2       1.0000 0.03800  0.78320  0.27113  Biso   1.000  C
  C3       1.0000 0.03800  0.71680  0.77113  Biso   1.000  C
  C4       1.0000 0.96200  0.21680  0.72887  Biso   1.000  C
  C5       1.0000 0.90410  0.34130  0.25825  Biso   1.000  C
  C6       1.0000 0.09590  0.84130  0.24175  Biso   1.000  C
  C7       1.0000 0.09590  0.65870  0.74175  Biso   1.000  C
  C8       1.0000 0.90410  0.15870  0.75825  Biso   1.000  C
  H1       1.0000 0.92060  0.36290  0.29810  Biso   1.000  H
  H2       1.0000 0.07940  0.86290  0.20190  Biso   1.000  H
  H3       1.0000 0.07940  0.63710  0.70190  Biso   1.000  H
  H4       1.0000 0.92060  0.13710  0.79810  Biso   1.000  H
  C9       1.0000 0.82260  0.36710  0.22909  Biso   1.000  C
  C10      1.0000 0.17740  0.86710  0.27091  Biso   1.000  C
  C11      1.0000 0.17740  0.63290  0.77091  Biso   1.000  C
  C12      1.0000 0.82260  0.13290  0.72909  Biso   1.000  C
  H5       1.0000 0.78420  0.40650  0.24950  Biso   1.000  H
  H6       1.0000 0.21580  0.90650  0.25050  Biso   1.000  H
  H7       1.0000 0.21580  0.59350  0.75050  Biso   1.000  H
  H8       1.0000 0.78420  0.09350  0.74950  Biso   1.000  H
  C13      1.0000 0.79560  0.33690  0.17068  Biso   1.000  C
  C14      1.0000 0.20440  0.83690  0.32932  Biso   1.000  C
  C15      1.0000 0.20440  0.66310  0.82932  Biso   1.000  C
  C16      1.0000 0.79560  0.16310  0.67068  Biso   1.000  C
  H9       1.0000 0.73970  0.35560  0.15140  Biso   1.000  H
  H10      1.0000 0.26030  0.85560  0.34860  Biso   1.000  H
  H11      1.0000 0.26030  0.64440  0.84860  Biso   1.000  H
  H12      1.0000 0.73970  0.14440  0.65140  Biso   1.000  H
  C17      1.0000 0.85130  0.27970  0.14181  Biso   1.000  C
  C18      1.0000 0.14870  0.77970  0.35819  Biso   1.000  C
  C19      1.0000 0.14870  0.72030  0.85819  Biso   1.000  C
  C20      1.0000 0.85130  0.22030  0.64181  Biso   1.000  C
  H13      1.0000 0.83330  0.25830  0.10210  Biso   1.000  H
  H14      1.0000 0.16670  0.75830  0.39790  Biso   1.000  H
  H15      1.0000 0.16670  0.74170  0.89790  Biso   1.000  H
  H16      1.0000 0.83330  0.24170  0.60210  Biso   1.000  H
  C21      1.0000 0.93580  0.25120  0.16986  Biso   1.000  C
  C22      1.0000 0.06420  0.75120  0.33014  Biso   1.000  C
  C23      1.0000 0.06420  0.74880  0.83014  Biso   1.000  C
  C24      1.0000 0.93580  0.24880  0.66986  Biso   1.000  C
  H17      1.0000 0.97370  0.21150  0.14920  Biso   1.000  H
  H18      1.0000 0.02630  0.71150  0.35080  Biso   1.000  H
  H19      1.0000 0.02630  0.78850  0.85080  Biso   1.000  H
  H20      1.0000 0.97370  0.28850  0.64920  Biso   1.000  H
  C25      1.0000 0.04450  0.14420  0.31835  Biso   1.000  C
  C26      1.0000 0.95550  0.64420  0.18165  Biso   1.000  C
  C27      1.0000 0.95550  0.85580  0.68165  Biso   1.000  C
  C28      1.0000 0.04450  0.35580  0.81835  Biso   1.000  C
  C29      1.0000 0.97130  0.07870  0.30437  Biso   1.000  C
  C30      1.0000 0.02870  0.57870  0.19563  Biso   1.000  C
  C31      1.0000 0.02870  0.92130  0.69563  Biso   1.000  C
  C32      1.0000 0.97130  0.42130  0.80437  Biso   1.000  C
  H21      1.0000 0.93420  0.08920  0.26820  Biso   1.000  H
  H22      1.0000 0.06580  0.58920  0.23180  Biso   1.000  H
  H23      1.0000 0.06580  0.91080  0.73180  Biso   1.000  H
  H24      1.0000 0.93420  0.41080  0.76820  Biso   1.000  H
  C33      1.0000 0.95220  0.99930  0.34205  Biso   1.000  C
  C34      1.0000 0.04780  0.49930  0.15795  Biso   1.000  C
  C35      1.0000 0.04780  0.00070  0.65795  Biso   1.000  C
  C36      1.0000 0.95220  0.50070  0.84205  Biso   1.000  C
  H25      1.0000 0.90300  0.95640  0.33160  Biso   1.000  H
  H26      1.0000 0.09700  0.45640  0.16840  Biso   1.000  H
  H27      1.0000 0.09700  0.04360  0.66840  Biso   1.000  H
  H28      1.0000 0.90300  0.54360  0.83160  Biso   1.000  H
  C37      1.0000 0.00730  0.98400  0.39598  Biso   1.000  C
  C38      1.0000 0.99270  0.48400  0.10402  Biso   1.000  C
  C39      1.0000 0.99270  0.01600  0.60402  Biso   1.000  C
  C40      1.0000 0.00730  0.51600  0.89598  Biso   1.000  C
  H29      1.0000 0.99520  0.93010  0.42190  Biso   1.000  H
  H30      1.0000 0.00480  0.43010  0.07810  Biso   1.000  H
  H31      1.0000 0.00480  0.06990  0.57810  Biso   1.000  H
  H32      1.0000 0.99520  0.56990  0.92190  Biso   1.000  H
  C41      1.0000 0.07980  0.04800  0.41160  Biso   1.000  C
  C42      1.0000 0.92020  0.54800  0.08840  Biso   1.000  C
  C43      1.0000 0.92020  0.95200  0.58840  Biso   1.000  C
  C44      1.0000 0.07980  0.45200  0.91160  Biso   1.000  C
  H33      1.0000 0.11630  0.03770  0.44800  Biso   1.000  H
  H34      1.0000 0.88370  0.53770  0.05200  Biso   1.000  H
  H35      1.0000 0.88370  0.96230  0.55200  Biso   1.000  H
  H36      1.0000 0.11630  0.46230  0.94800  Biso   1.000  H
  C45      1.0000 0.09780  0.12720  0.37309  Biso   1.000  C
  C46      1.0000 0.90220  0.62720  0.12691  Biso   1.000  C
  C47      1.0000 0.90220  0.87280  0.62691  Biso   1.000  C
  C48      1.0000 0.09780  0.37280  0.87309  Biso   1.000  C
  H37      1.0000 0.14670  0.17030  0.38390  Biso   1.000  H
  H38      1.0000 0.85330  0.67030  0.11610  Biso   1.000  H
  H39      1.0000 0.85330  0.82970  0.61610  Biso   1.000  H
  H40      1.0000 0.14670  0.32970  0.88390  Biso   1.000  H
  C49      1.0000 0.13850  0.19530  0.21841  Biso   1.000  C
  C50      1.0000 0.86150  0.69530  0.28159  Biso   1.000  C
  C51      1.0000 0.86150  0.80470  0.78159  Biso   1.000  C
  C52      1.0000 0.13850  0.30470  0.71841  Biso   1.000  C
  C53      1.0000 0.11590  0.10080  0.18889  Biso   1.000  C
  C54      1.0000 0.88410  0.60080  0.31111  Biso   1.000  C
  C55      1.0000 0.88410  0.89920  0.81111  Biso   1.000  C
  C56      1.0000 0.11590  0.39920  0.68889  Biso   1.000  C
  H41      1.0000 0.06500  0.06490  0.19640  Biso   1.000  H
  H42      1.0000 0.93500  0.56490  0.30360  Biso   1.000  H
  H43      1.0000 0.93500  0.93510  0.80360  Biso   1.000  H
  H44      1.0000 0.06500  0.43510  0.69640  Biso   1.000  H
  C57      1.0000 0.16970  0.06060  0.14832  Biso   1.000  C
  C58      1.0000 0.83030  0.56060  0.35168  Biso   1.000  C
  C59      1.0000 0.83030  0.93940  0.85168  Biso   1.000  C
  C60      1.0000 0.16970  0.43940  0.64832  Biso   1.000  C
  H45      1.0000 0.15400  0.99880  0.12760  Biso   1.000  H
  H46      1.0000 0.84600  0.49880  0.37240  Biso   1.000  H
  H47      1.0000 0.84600  0.00120  0.87240  Biso   1.000  H
  H48      1.0000 0.15400  0.50120  0.62760  Biso   1.000  H
  C61      1.0000 0.24720  0.11320  0.13878  Biso   1.000  C
  C62      1.0000 0.75280  0.61320  0.36122  Biso   1.000  C
  C63      1.0000 0.75280  0.88680  0.86122  Biso   1.000  C
  C64      1.0000 0.24720  0.38680  0.63878  Biso   1.000  C
  H49      1.0000 0.28440  0.08500  0.11280  Biso   1.000  H
  H50      1.0000 0.71560  0.58500  0.38720  Biso   1.000  H
  H51      1.0000 0.71560  0.91500  0.88720  Biso   1.000  H
  H52      1.0000 0.28440  0.41500  0.61280  Biso   1.000  H
  C65      1.0000 0.26820  0.20460  0.16712  Biso   1.000  C
  C66      1.0000 0.73180  0.70460  0.33288  Biso   1.000  C
  C67      1.0000 0.73180  0.79540  0.83288  Biso   1.000  C
  C68      1.0000 0.26820  0.29540  0.66712  Biso   1.000  C
  H53      1.0000 0.31910  0.24040  0.15970  Biso   1.000  H
  H54      1.0000 0.68090  0.74040  0.34030  Biso   1.000  H
  H55      1.0000 0.68090  0.75960  0.84030  Biso   1.000  H
  H56      1.0000 0.31910  0.25960  0.65970  Biso   1.000  H
  C69      1.0000 0.21410  0.24620  0.20766  Biso   1.000  C
  C70      1.0000 0.78590  0.74620  0.29234  Biso   1.000  C
  C71      1.0000 0.78590  0.75380  0.79234  Biso   1.000  C
  C72      1.0000 0.21410  0.25380  0.70766  Biso   1.000  C
  H57      1.0000 0.22980  0.30900  0.22740  Biso   1.000  H
  H58      1.0000 0.77020  0.80900  0.27260  Biso   1.000  H
  H59      1.0000 0.77020  0.69100  0.77260  Biso   1.000  H
  H60      1.0000 0.22980  0.19100  0.72740  Biso   1.000  H
  C73      1.0000 0.30860  0.12820  0.47762  Biso   1.000  C
  C74      1.0000 0.69140  0.62820  0.02238  Biso   1.000  C
  C75      1.0000 0.69140  0.87180  0.52238  Biso   1.000  C
  C76      1.0000 0.30860  0.37180  0.97762  Biso   1.000  C
  C77      1.0000 0.25590  0.17050  0.51725  Biso   1.000  C
  C78      1.0000 0.74410  0.67050  0.98275  Biso   1.000  C
  C79      1.0000 0.74410  0.82950  0.48275  Biso   1.000  C
  C80      1.0000 0.25590  0.32950  0.01725  Biso   1.000  C
  H61      1.0000 0.24700  0.24250  0.51790  Biso   1.000  H
  H62      1.0000 0.75300  0.74250  0.98210  Biso   1.000  H
  H63      1.0000 0.75300  0.75750  0.48210  Biso   1.000  H
  H64      1.0000 0.24700  0.25750  0.01790  Biso   1.000  H
  C81      1.0000 0.21510  0.10550  0.55706  Biso   1.000  C
  C82      1.0000 0.78490  0.60550  0.94294  Biso   1.000  C
  C83      1.0000 0.78490  0.89450  0.44294  Biso   1.000  C
  C84      1.0000 0.21510  0.39450  0.05706  Biso   1.000  C
  H65      1.0000 0.17990  0.13530  0.58390  Biso   1.000  H
  H66      1.0000 0.82010  0.63530  0.91610  Biso   1.000  H
  H67      1.0000 0.82010  0.86470  0.41610  Biso   1.000  H
  H68      1.0000 0.17990  0.36470  0.08390  Biso   1.000  H
  C85      1.0000 0.22680  0.99850  0.55658  Biso   1.000  C
  C86      1.0000 0.77320  0.49850  0.94342  Biso   1.000  C
  C87      1.0000 0.77320  0.00150  0.44342  Biso   1.000  C
  C88      1.0000 0.22680  0.50150  0.05658  Biso   1.000  C
  H69      1.0000 0.19890  0.95600  0.58250  Biso   1.000  H
  H70      1.0000 0.80110  0.45600  0.91750  Biso   1.000  H
  H71      1.0000 0.80110  0.04400  0.41750  Biso   1.000  H
  H72      1.0000 0.19890  0.54400  0.08250  Biso   1.000  H
  C89      1.0000 0.27970  0.95540  0.51774  Biso   1.000  C
  C90      1.0000 0.72030  0.45540  0.98226  Biso   1.000  C
  C91      1.0000 0.72030  0.04460  0.48226  Biso   1.000  C
  C92      1.0000 0.27970  0.54460  0.01774  Biso   1.000  C
  H73      1.0000 0.28810  0.88320  0.51690  Biso   1.000  H
  H74      1.0000 0.71190  0.38320  0.98310  Biso   1.000  H
  H75      1.0000 0.71190  0.11680  0.48310  Biso   1.000  H
  H76      1.0000 0.28810  0.61680  0.01690  Biso   1.000  H
  C93      1.0000 0.32040  0.02010  0.47974  Biso   1.000  C
  C94      1.0000 0.67960  0.52010  0.02026  Biso   1.000  C
  C95      1.0000 0.67960  0.97990  0.52026  Biso   1.000  C
  C96      1.0000 0.32040  0.47990  0.97974  Biso   1.000  C
  H77      1.0000 0.35750  0.98990  0.45430  Biso   1.000  H
  H78      1.0000 0.64250  0.48990  0.04570  Biso   1.000  H
  H79      1.0000 0.64250  0.01010  0.54570  Biso   1.000  H
  H80      1.0000 0.35750  0.51010  0.95430  Biso   1.000  H
  C97      1.0000 0.41080  0.12880  0.37988  Biso   1.000  C
  C98      1.0000 0.58920  0.62880  0.12012  Biso   1.000  C
  C99      1.0000 0.58920  0.87120  0.62012  Biso   1.000  C
  C100     1.0000 0.41080  0.37120  0.87988  Biso   1.000  C
  C101     1.0000 0.35920  0.09550  0.32664  Biso   1.000  C
  C102     1.0000 0.64080  0.59550  0.17336  Biso   1.000  C
  C103     1.0000 0.64080  0.90450  0.67336  Biso   1.000  C
  C104     1.0000 0.35920  0.40450  0.82664  Biso   1.000  C
  H81      1.0000 0.30220  0.12250  0.31680  Biso   1.000  H
  H82      1.0000 0.69780  0.62250  0.18320  Biso   1.000  H
  H83      1.0000 0.69780  0.87750  0.68320  Biso   1.000  H
  H84      1.0000 0.30220  0.37750  0.81680  Biso   1.000  H
  C105     1.0000 0.39050  0.02430  0.28868  Biso   1.000  C
  C106     1.0000 0.60950  0.52430  0.21132  Biso   1.000  C
  C107     1.0000 0.60950  0.97570  0.71132  Biso   1.000  C
  C108     1.0000 0.39050  0.47570  0.78868  Biso   1.000  C
  H85      1.0000 0.35520  0.00420  0.25320  Biso   1.000  H
  H86      1.0000 0.64480  0.50420  0.24680  Biso   1.000  H
  H87      1.0000 0.64480  0.99580  0.74680  Biso   1.000  H
  H88      1.0000 0.35520  0.49580  0.75320  Biso   1.000  H
  C109     1.0000 0.47310  0.98280  0.30261  Biso   1.000  C
  C110     1.0000 0.52690  0.48280  0.19739  Biso   1.000  C
  C111     1.0000 0.52690  0.01720  0.69739  Biso   1.000  C
  C112     1.0000 0.47310  0.51720  0.80261  Biso   1.000  C
  H89      1.0000 0.49390  0.93370  0.27690  Biso   1.000  H
  H90      1.0000 0.50610  0.43370  0.22310  Biso   1.000  H
  H91      1.0000 0.50610  0.06630  0.72310  Biso   1.000  H
  H92      1.0000 0.49390  0.56630  0.77690  Biso   1.000  H
  C113     1.0000 0.52620  0.01310  0.35464  Biso   1.000  C
  C114     1.0000 0.47380  0.51310  0.14536  Biso   1.000  C
  C115     1.0000 0.47380  0.98690  0.64536  Biso   1.000  C
  C116     1.0000 0.52620  0.48690  0.85464  Biso   1.000  C
  H93      1.0000 0.58310  0.98550  0.36370  Biso   1.000  H
  H94      1.0000 0.41690  0.48550  0.13630  Biso   1.000  H
  H95      1.0000 0.41690  0.01450  0.63630  Biso   1.000  H
  H96      1.0000 0.58310  0.51450  0.86370  Biso   1.000  H
  C117     1.0000 0.49460  0.08460  0.39348  Biso   1.000  C
  C118     1.0000 0.50540  0.58460  0.10652  Biso   1.000  C
  C119     1.0000 0.50540  0.91540  0.60652  Biso   1.000  C
  C120     1.0000 0.49460  0.41540  0.89348  Biso   1.000  C
  H97      1.0000 0.53000  0.10340  0.42920  Biso   1.000  H
  H98      1.0000 0.47000  0.60340  0.07080  Biso   1.000  H
  H99      1.0000 0.47000  0.89660  0.57080  Biso   1.000  H
  H100     1.0000 0.53000  0.39660  0.92920  Biso   1.000  H
  C121     1.0000 0.45850  0.26110  0.48153  Biso   1.000  C
  C122     1.0000 0.54150  0.76110  0.01847  Biso   1.000  C
  C123     1.0000 0.54150  0.73890  0.51847  Biso   1.000  C
  C124     1.0000 0.45850  0.23890  0.98153  Biso   1.000  C
  C125     1.0000 0.49300  0.21030  0.53477  Biso   1.000  C
  C126     1.0000 0.50700  0.71030  0.96523  Biso   1.000  C
  C127     1.0000 0.50700  0.78970  0.46523  Biso   1.000  C
  C128     1.0000 0.49300  0.28970  0.03477  Biso   1.000  C
  H101     1.0000 0.46520  0.14970  0.54600  Biso   1.000  H
  H102     1.0000 0.53480  0.64970  0.95400  Biso   1.000  H
  H103     1.0000 0.53480  0.85030  0.45400  Biso   1.000  H
  H104     1.0000 0.46520  0.35030  0.04600  Biso   1.000  H
  C129     1.0000 0.56750  0.24680  0.57179  Biso   1.000  C
  C130     1.0000 0.43250  0.74680  0.92821  Biso   1.000  C
  C131     1.0000 0.43250  0.75320  0.42821  Biso   1.000  C
  C132     1.0000 0.56750  0.25320  0.07179  Biso   1.000  C
  H105     1.0000 0.58890  0.21100  0.60710  Biso   1.000  H
  H106     1.0000 0.41110  0.71100  0.89290  Biso   1.000  H
  H107     1.0000 0.41110  0.78900  0.39290  Biso   1.000  H
  H108     1.0000 0.58890  0.28900  0.10710  Biso   1.000  H
  C133     1.0000 0.60920  0.33560  0.55602  Biso   1.000  C
  C134     1.0000 0.39080  0.83560  0.94398  Biso   1.000  C
  C135     1.0000 0.39080  0.66440  0.44398  Biso   1.000  C
  C136     1.0000 0.60920  0.16440  0.05602  Biso   1.000  C
  H109     1.0000 0.65960  0.36020  0.58020  Biso   1.000  H
  H110     1.0000 0.34040  0.86020  0.91980  Biso   1.000  H
  H111     1.0000 0.34040  0.63980  0.41980  Biso   1.000  H
  H112     1.0000 0.65960  0.13980  0.08020  Biso   1.000  H
  C137     1.0000 0.57680  0.38750  0.50483  Biso   1.000  C
  C138     1.0000 0.42320  0.88750  0.99517  Biso   1.000  C
  C139     1.0000 0.42320  0.61250  0.49517  Biso   1.000  C
  C140     1.0000 0.57680  0.11250  0.00483  Biso   1.000  C
  H113     1.0000 0.60450  0.44890  0.49470  Biso   1.000  H
  H114     1.0000 0.39550  0.94890  0.00530  Biso   1.000  H
  H115     1.0000 0.39550  0.55110  0.50530  Biso   1.000  H
  H116     1.0000 0.60450  0.05110  0.99470  Biso   1.000  H
  C141     1.0000 0.50310  0.35110  0.46726  Biso   1.000  C
  C142     1.0000 0.49690  0.85110  0.03274  Biso   1.000  C
  C143     1.0000 0.49690  0.64890  0.53274  Biso   1.000  C
  C144     1.0000 0.50310  0.14890  0.96726  Biso   1.000  C
  H117     1.0000 0.48320  0.38750  0.43190  Biso   1.000  H
  H118     1.0000 0.51680  0.88750  0.06810  Biso   1.000  H
  H119     1.0000 0.51680  0.61250  0.56810  Biso   1.000  H
  H120     1.0000 0.48320  0.11250  0.93190  Biso   1.000  H
  C145     1.0000 0.15200  0.49240  0.43579  Biso   1.000  C
  C146     1.0000 0.84800  0.99240  0.06421  Biso   1.000  C
  C147     1.0000 0.84800  0.50760  0.56421  Biso   1.000  C
  C148     1.0000 0.15200  0.00760  0.93579  Biso   1.000  C
  C149     1.0000 0.12440  0.57430  0.47689  Biso   1.000  C
  C150     1.0000 0.87560  0.07430  0.02311  Biso   1.000  C
  C151     1.0000 0.87560  0.42570  0.52311  Biso   1.000  C
  C152     1.0000 0.12440  0.92570  0.97689  Biso   1.000  C
  C153     1.0000 0.18490  0.61380  0.52367  Biso   1.000  C
  C154     1.0000 0.81510  0.11380  0.97633  Biso   1.000  C
  C155     1.0000 0.81510  0.38620  0.47633  Biso   1.000  C
  C156     1.0000 0.18490  0.88620  0.02367  Biso   1.000  C
  H121     1.0000 0.24310  0.58900  0.52980  Biso   1.000  H
  H122     1.0000 0.75690  0.08900  0.97020  Biso   1.000  H
  H123     1.0000 0.75690  0.41100  0.47020  Biso   1.000  H
  H124     1.0000 0.24310  0.91100  0.02980  Biso   1.000  H
  C157     1.0000 0.15750  0.69000  0.56062  Biso   1.000  C
  C158     1.0000 0.84250  0.19000  0.93938  Biso   1.000  C
  C159     1.0000 0.84250  0.31000  0.43938  Biso   1.000  C
  C160     1.0000 0.15750  0.81000  0.06062  Biso   1.000  C
  C161     1.0000 0.07290  0.72850  0.55214  Biso   1.000  C
  C162     1.0000 0.92710  0.22850  0.94786  Biso   1.000  C
  C163     1.0000 0.92710  0.27150  0.44786  Biso   1.000  C
  C164     1.0000 0.07290  0.77150  0.05214  Biso   1.000  C
  H125     1.0000 0.05620  0.78180  0.57690  Biso   1.000  H
  H126     1.0000 0.94380  0.28180  0.92310  Biso   1.000  H
  H127     1.0000 0.94380  0.21820  0.42310  Biso   1.000  H
  H128     1.0000 0.05620  0.71820  0.07690  Biso   1.000  H
  C165     1.0000 0.01270  0.68810  0.50691  Biso   1.000  C
  C166     1.0000 0.98730  0.18810  0.99309  Biso   1.000  C
  C167     1.0000 0.98730  0.31190  0.49309  Biso   1.000  C
  C168     1.0000 0.01270  0.81190  0.00691  Biso   1.000  C
  H129     1.0000 0.95430  0.71230  0.50140  Biso   1.000  H
  H130     1.0000 0.04570  0.21230  0.99860  Biso   1.000  H
  H131     1.0000 0.04570  0.28770  0.49860  Biso   1.000  H
  H132     1.0000 0.95430  0.78770  0.00140  Biso   1.000  H
  C169     1.0000 0.03930  0.61150  0.46981  Biso   1.000  C
  C170     1.0000 0.96070  0.11150  0.03019  Biso   1.000  C
  C171     1.0000 0.96070  0.38850  0.53019  Biso   1.000  C
  C172     1.0000 0.03930  0.88850  0.96981  Biso   1.000  C
  H133     1.0000 0.99830  0.58430  0.43910  Biso   1.000  H
  H134     1.0000 0.00170  0.08430  0.06090  Biso   1.000  H
  H135     1.0000 0.00170  0.41570  0.56090  Biso   1.000  H
  H136     1.0000 0.99830  0.91570  0.93910  Biso   1.000  H
  C173     1.0000 0.31930  0.78180  0.68628  Biso   1.000  C
  C174     1.0000 0.68070  0.28180  0.81372  Biso   1.000  C
  C175     1.0000 0.68070  0.21820  0.31372  Biso   1.000  C
  C176     1.0000 0.31930  0.71820  0.18628  Biso   1.000  C
  C177     1.0000 0.40520  0.74670  0.70513  Biso   1.000  C
  C178     1.0000 0.59480  0.24670  0.79487  Biso   1.000  C
  C179     1.0000 0.59480  0.25330  0.29487  Biso   1.000  C
  C180     1.0000 0.40520  0.75330  0.20513  Biso   1.000  C
  H137     1.0000 0.42940  0.69210  0.68490  Biso   1.000  H
  H138     1.0000 0.57060  0.19210  0.81510  Biso   1.000  H
  H139     1.0000 0.57060  0.30790  0.31510  Biso   1.000  H
  H140     1.0000 0.42940  0.80790  0.18490  Biso   1.000  H
  C181     1.0000 0.45250  0.79290  0.75317  Biso   1.000  C
  C182     1.0000 0.54750  0.29290  0.74683  Biso   1.000  C
  C183     1.0000 0.54750  0.20710  0.24683  Biso   1.000  C
  C184     1.0000 0.45250  0.70710  0.25317  Biso   1.000  C
  H141     1.0000 0.51060  0.77150  0.76600  Biso   1.000  H
  H142     1.0000 0.48940  0.27150  0.73400  Biso   1.000  H
  H143     1.0000 0.48940  0.22850  0.23400  Biso   1.000  H
  H144     1.0000 0.51060  0.72850  0.26600  Biso   1.000  H
  C185     1.0000 0.41410  0.87340  0.78376  Biso   1.000  C
  C186     1.0000 0.58590  0.37340  0.71624  Biso   1.000  C
  C187     1.0000 0.58590  0.12660  0.21624  Biso   1.000  C
  C188     1.0000 0.41410  0.62660  0.28376  Biso   1.000  C
  H145     1.0000 0.44660  0.90510  0.81720  Biso   1.000  H
  H146     1.0000 0.55340  0.40510  0.68280  Biso   1.000  H
  H147     1.0000 0.55340  0.09490  0.18280  Biso   1.000  H
  H148     1.0000 0.44660  0.59490  0.31720  Biso   1.000  H
  C189     1.0000 0.32930  0.90570  0.76493  Biso   1.000  C
  C190     1.0000 0.67070  0.40570  0.73507  Biso   1.000  C
  C191     1.0000 0.67070  0.09430  0.23507  Biso   1.000  C
  C192     1.0000 0.32930  0.59430  0.26493  Biso   1.000  C
  C193     1.0000 0.28060  0.85970  0.71492  Biso   1.000  C
  C194     1.0000 0.71940  0.35970  0.78508  Biso   1.000  C
  C195     1.0000 0.71940  0.14030  0.28508  Biso   1.000  C
  C196     1.0000 0.28060  0.64030  0.21492  Biso   1.000  C
  H149     1.0000 0.22290  0.88160  0.70140  Biso   1.000  H
  H150     1.0000 0.77710  0.38160  0.79860  Biso   1.000  H
  H151     1.0000 0.77710  0.11840  0.29860  Biso   1.000  H
  H152     1.0000 0.22290  0.61840  0.20140  Biso   1.000  H
  C197     1.0000 0.28720  0.99180  0.79730  Biso   1.000  C
  C198     1.0000 0.71280  0.49180  0.70270  Biso   1.000  C
  C199     1.0000 0.71280  0.00820  0.20270  Biso   1.000  C
  C200     1.0000 0.28720  0.50820  0.29730  Biso   1.000  C
