data_image0
_cell_length_a       8.8931
_cell_length_b       8.17
_cell_length_c       17.816
_cell_angle_alpha    90
_cell_angle_beta     103.04
_cell_angle_gamma    90

_symmetry_space_group_name_H-M    "P 1"
_symmetry_int_tables_number       1

loop_
  _symmetry_equiv_pos_as_xyz
  'x, y, z'

loop_
  _atom_site_label
  _atom_site_occupancy
  _atom_site_fract_x
  _atom_site_fract_y
  _atom_site_fract_z
  _atom_site_thermal_displace_type
  _atom_site_B_iso_or_equiv
  _atom_site_type_symbol
  Cu1      1.0000 0.83780  0.02891  0.19124  Biso   1.000  Cu
  Cu2      1.0000 0.66220  0.52891  0.30876  Biso   1.000  Cu
  Cu3      1.0000 0.16220  0.97109  0.80876  Biso   1.000  Cu
  Cu4      1.0000 0.33780  0.47109  0.69124  Biso   1.000  Cu
  C1       1.0000 0.66100  0.12580  0.02550  Biso   1.000  C
  C2       1.0000 0.83900  0.62580  0.47450  Biso   1.000  C
  C3       1.0000 0.33900  0.87420  0.97450  Biso   1.000  C
  C4       1.0000 0.16100  0.37420  0.52550  Biso   1.000  C
  H1       1.0000 0.57290  0.09040  0.04060  Biso   1.000  H
  H2       1.0000 0.92710  0.59040  0.45940  Biso   1.000  H
  H3       1.0000 0.42710  0.90960  0.95940  Biso   1.000  H
  H4       1.0000 0.07290  0.40960  0.54060  Biso   1.000  H
  C5       1.0000 0.64310  0.19050  0.95180  Biso   1.000  C
  C6       1.0000 0.85690  0.69050  0.54820  Biso   1.000  C
  C7       1.0000 0.35690  0.80950  0.04820  Biso   1.000  C
  C8       1.0000 0.14310  0.30950  0.45180  Biso   1.000  C
  H5       1.0000 0.54690  0.19290  0.91780  Biso   1.000  H
  H6       1.0000 0.95310  0.69290  0.58220  Biso   1.000  H
  H7       1.0000 0.45310  0.80710  0.08220  Biso   1.000  H
  H8       1.0000 0.04690  0.30710  0.41780  Biso   1.000  H
  C9       1.0000 0.77040  0.25030  0.93096  Biso   1.000  C
  C10      1.0000 0.72960  0.75030  0.56904  Biso   1.000  C
  C11      1.0000 0.22960  0.74970  0.06904  Biso   1.000  C
  C12      1.0000 0.27040  0.24970  0.43096  Biso   1.000  C
  H9       1.0000 0.76170  0.29590  0.88230  Biso   1.000  H
  H10      1.0000 0.73830  0.79590  0.61770  Biso   1.000  H
  H11      1.0000 0.23830  0.70410  0.11770  Biso   1.000  H
  H12      1.0000 0.26170  0.20410  0.38230  Biso   1.000  H
  C13      1.0000 0.91340  0.24340  0.98215  Biso   1.000  C
  C14      1.0000 0.58660  0.74340  0.51785  Biso   1.000  C
  C15      1.0000 0.08660  0.75660  0.01785  Biso   1.000  C
  C16      1.0000 0.41340  0.25660  0.48215  Biso   1.000  C
  C17      1.0000 0.05310  0.31360  0.96601  Biso   1.000  C
  C18      1.0000 0.44690  0.81360  0.53399  Biso   1.000  C
  C19      1.0000 0.94690  0.68640  0.03399  Biso   1.000  C
  C20      1.0000 0.55310  0.18640  0.46601  Biso   1.000  C
  C21      1.0000 0.16890  0.46280  0.88825  Biso   1.000  C
  C22      1.0000 0.33110  0.96280  0.61175  Biso   1.000  C
  C23      1.0000 0.83110  0.53720  0.11175  Biso   1.000  C
  C24      1.0000 0.66890  0.03720  0.38825  Biso   1.000  C
  H13      1.0000 0.16510  0.52250  0.84340  Biso   1.000  H
  H14      1.0000 0.33490  0.02250  0.65660  Biso   1.000  H
  H15      1.0000 0.83490  0.47750  0.15660  Biso   1.000  H
  H16      1.0000 0.66510  0.97750  0.34340  Biso   1.000  H
  C25      1.0000 0.30880  0.44330  0.93939  Biso   1.000  C
  C26      1.0000 0.19120  0.94330  0.56061  Biso   1.000  C
  C27      1.0000 0.69120  0.55670  0.06061  Biso   1.000  C
  C28      1.0000 0.80880  0.05670  0.43939  Biso   1.000  C
  H17      1.0000 0.39600  0.48960  0.92740  Biso   1.000  H
  H18      1.0000 0.10400  0.98960  0.57260  Biso   1.000  H
  H19      1.0000 0.60400  0.51040  0.07260  Biso   1.000  H
  H20      1.0000 0.89600  0.01040  0.42740  Biso   1.000  H
  C29      1.0000 0.19390  0.29710  0.01897  Biso   1.000  C
  C30      1.0000 0.30610  0.79710  0.48103  Biso   1.000  C
  C31      1.0000 0.80610  0.70290  0.98103  Biso   1.000  C
  C32      1.0000 0.69390  0.20290  0.51897  Biso   1.000  C
  C33      1.0000 0.20360  0.21170  0.09158  Biso   1.000  C
  C34      1.0000 0.29640  0.71170  0.40842  Biso   1.000  C
  C35      1.0000 0.79640  0.78830  0.90842  Biso   1.000  C
  C36      1.0000 0.70360  0.28830  0.59158  Biso   1.000  C
  C37      1.0000 0.34120  0.19160  0.14611  Biso   1.000  C
  C38      1.0000 0.15880  0.69160  0.35389  Biso   1.000  C
  C39      1.0000 0.65880  0.80840  0.85389  Biso   1.000  C
  C40      1.0000 0.84120  0.30840  0.64611  Biso   1.000  C
  H21      1.0000 0.43330  0.23240  0.13720  Biso   1.000  H
  H22      1.0000 0.06670  0.73240  0.36280  Biso   1.000  H
  H23      1.0000 0.56670  0.76760  0.86280  Biso   1.000  H
  H24      1.0000 0.93330  0.26760  0.63720  Biso   1.000  H
  C41      1.0000 0.33890  0.11140  0.21271  Biso   1.000  C
  C42      1.0000 0.16110  0.61140  0.28729  Biso   1.000  C
  C43      1.0000 0.66110  0.88860  0.78729  Biso   1.000  C
  C44      1.0000 0.83890  0.38860  0.71271  Biso   1.000  C
  H25      1.0000 0.43010  0.09520  0.24950  Biso   1.000  H
  H26      1.0000 0.06990  0.59520  0.25050  Biso   1.000  H
  H27      1.0000 0.56990  0.90480  0.75050  Biso   1.000  H
  H28      1.0000 0.93010  0.40480  0.74950  Biso   1.000  H
  C45      1.0000 0.20150  0.05430  0.22544  Biso   1.000  C
  C46      1.0000 0.29850  0.55430  0.27456  Biso   1.000  C
  C47      1.0000 0.79850  0.94570  0.77456  Biso   1.000  C
  C48      1.0000 0.70150  0.44570  0.72544  Biso   1.000  C
  H29      1.0000 0.20310  0.99920  0.27130  Biso   1.000  H
  H30      1.0000 0.29690  0.49920  0.22870  Biso   1.000  H
  H31      1.0000 0.79690  0.00080  0.72870  Biso   1.000  H
  H32      1.0000 0.70310  0.50080  0.77130  Biso   1.000  H
  C49      1.0000 0.06780  0.15080  0.10833  Biso   1.000  C
  C50      1.0000 0.43220  0.65080  0.39167  Biso   1.000  C
  C51      1.0000 0.93220  0.84920  0.89167  Biso   1.000  C
  C52      1.0000 0.56780  0.34920  0.60833  Biso   1.000  C
  C53      1.0000 0.92230  0.16810  0.05401  Biso   1.000  C
  C54      1.0000 0.57770  0.66810  0.44599  Biso   1.000  C
  C55      1.0000 0.07770  0.83190  0.94599  Biso   1.000  C
  C56      1.0000 0.42230  0.33190  0.55401  Biso   1.000  C
  C57      1.0000 0.76170  0.83390  0.22569  Biso   1.000  C
  C58      1.0000 0.73830  0.33390  0.27431  Biso   1.000  C
  C59      1.0000 0.23830  0.16610  0.77431  Biso   1.000  C
  C60      1.0000 0.26170  0.66610  0.72569  Biso   1.000  C
  N1       1.0000 0.79450  0.11130  0.07523  Biso   1.000  N
  N2       1.0000 0.70550  0.61130  0.42477  Biso   1.000  N
  N3       1.0000 0.20550  0.88870  0.92477  Biso   1.000  N
  N4       1.0000 0.29450  0.38870  0.57523  Biso   1.000  N
  N5       1.0000 0.06590  0.07330  0.17578  Biso   1.000  N
  N6       1.0000 0.43410  0.57330  0.32422  Biso   1.000  N
  N7       1.0000 0.93410  0.92670  0.82422  Biso   1.000  N
  N8       1.0000 0.56590  0.42670  0.67578  Biso   1.000  N
  N9       1.0000 0.03970  0.39980  0.90053  Biso   1.000  N
  N10      1.0000 0.46030  0.89980  0.59947  Biso   1.000  N
  N11      1.0000 0.96030  0.60020  0.09947  Biso   1.000  N
  N12      1.0000 0.53970  0.10020  0.40053  Biso   1.000  N
  N13      1.0000 0.32480  0.36170  0.00466  Biso   1.000  N
  N14      1.0000 0.17520  0.86170  0.49534  Biso   1.000  N
  N15      1.0000 0.67520  0.63830  0.99534  Biso   1.000  N
  N16      1.0000 0.82480  0.13830  0.50466  Biso   1.000  N
  N17      1.0000 0.71260  0.72760  0.25326  Biso   1.000  N
  N18      1.0000 0.78740  0.22760  0.24674  Biso   1.000  N
  N19      1.0000 0.28740  0.27240  0.74674  Biso   1.000  N
  N20      1.0000 0.21260  0.77240  0.75326  Biso   1.000  N
