data_image0
_cell_length_a       7.924
_cell_length_b       12.3558
_cell_length_c       11.5765
_cell_angle_alpha    90
_cell_angle_beta     90
_cell_angle_gamma    90

_symmetry_space_group_name_H-M    "P 1"
_symmetry_int_tables_number       1

loop_
  _symmetry_equiv_pos_as_xyz
  'x, y, z'

loop_
  _atom_site_label
  _atom_site_occupancy
  _atom_site_fract_x
  _atom_site_fract_y
  _atom_site_fract_z
  _atom_site_thermal_displace_type
  _atom_site_B_iso_or_equiv
  _atom_site_type_symbol
  Cu1      1.0000 0.24030  0.25000  0.43964  Biso   1.000  Cu
  Cu2      1.0000 0.25970  0.75000  0.93964  Biso   1.000  Cu
  Cu3      1.0000 0.75970  0.75000  0.56036  Biso   1.000  Cu
  Cu4      1.0000 0.74030  0.25000  0.06036  Biso   1.000  Cu
  S1       1.0000 0.94823  0.25000  0.43967  Biso   1.000  S
  S2       1.0000 0.55177  0.75000  0.93967  Biso   1.000  S
  S3       1.0000 0.05177  0.75000  0.56033  Biso   1.000  S
  S4       1.0000 0.44823  0.25000  0.06033  Biso   1.000  S
  N1       1.0000 0.32040  0.35717  0.56713  Biso   1.000  N
  N2       1.0000 0.17960  0.64283  0.06713  Biso   1.000  N
  N3       1.0000 0.67960  0.85717  0.43287  Biso   1.000  N
  N4       1.0000 0.82040  0.14283  0.93287  Biso   1.000  N
  N5       1.0000 0.67960  0.64283  0.43287  Biso   1.000  N
  N6       1.0000 0.82040  0.35717  0.93287  Biso   1.000  N
  N7       1.0000 0.32040  0.14283  0.56713  Biso   1.000  N
  N8       1.0000 0.17960  0.85717  0.06713  Biso   1.000  N
  N9       1.0000 0.84370  0.25000  0.20940  Biso   1.000  N
  N10      1.0000 0.65630  0.75000  0.70940  Biso   1.000  N
  N11      1.0000 0.15630  0.75000  0.79060  Biso   1.000  N
  N12      1.0000 0.34370  0.25000  0.29060  Biso   1.000  N
  C1       1.0000 0.31680  0.46518  0.56271  Biso   1.000  C
  C2       1.0000 0.18320  0.53482  0.06271  Biso   1.000  C
  C3       1.0000 0.68320  0.96518  0.43729  Biso   1.000  C
  C4       1.0000 0.81680  0.03482  0.93729  Biso   1.000  C
  C5       1.0000 0.68320  0.53482  0.43729  Biso   1.000  C
  C6       1.0000 0.81680  0.46518  0.93729  Biso   1.000  C
  C7       1.0000 0.31680  0.03482  0.56271  Biso   1.000  C
  C8       1.0000 0.18320  0.96518  0.06271  Biso   1.000  C
  H1       1.0000 0.27270  0.49790  0.49690  Biso   1.000  H
  H2       1.0000 0.22730  0.50210  0.99690  Biso   1.000  H
  H3       1.0000 0.72730  0.99790  0.50310  Biso   1.000  H
  H4       1.0000 0.77270  0.00210  0.00310  Biso   1.000  H
  H5       1.0000 0.72730  0.50210  0.50310  Biso   1.000  H
  H6       1.0000 0.77270  0.49790  0.00310  Biso   1.000  H
  H7       1.0000 0.27270  0.00210  0.49690  Biso   1.000  H
  H8       1.0000 0.22730  0.99790  0.99690  Biso   1.000  H
  C9       1.0000 0.37480  0.53060  0.65010  Biso   1.000  C
  C10      1.0000 0.12520  0.46940  0.15010  Biso   1.000  C
  C11      1.0000 0.62520  0.03060  0.34990  Biso   1.000  C
  C12      1.0000 0.87480  0.96940  0.84990  Biso   1.000  C
  C13      1.0000 0.62520  0.46940  0.34990  Biso   1.000  C
  C14      1.0000 0.87480  0.53060  0.84990  Biso   1.000  C
  C15      1.0000 0.37480  0.96940  0.65010  Biso   1.000  C
  C16      1.0000 0.12520  0.03060  0.15010  Biso   1.000  C
  H9       1.0000 0.37150  0.60560  0.64330  Biso   1.000  H
  H10      1.0000 0.12850  0.39440  0.14330  Biso   1.000  H
  H11      1.0000 0.62850  0.10560  0.35670  Biso   1.000  H
  H12      1.0000 0.87150  0.89440  0.85670  Biso   1.000  H
  H13      1.0000 0.62850  0.39440  0.35670  Biso   1.000  H
  H14      1.0000 0.87150  0.60560  0.85670  Biso   1.000  H
  H15      1.0000 0.37150  0.89440  0.64330  Biso   1.000  H
  H16      1.0000 0.12850  0.10560  0.14330  Biso   1.000  H
  C17      1.0000 0.43770  0.48220  0.74780  Biso   1.000  C
  C18      1.0000 0.06230  0.51780  0.24780  Biso   1.000  C
  C19      1.0000 0.56230  0.98220  0.25220  Biso   1.000  C
  C20      1.0000 0.93770  0.01780  0.75220  Biso   1.000  C
  C21      1.0000 0.56230  0.51780  0.25220  Biso   1.000  C
  C22      1.0000 0.93770  0.48220  0.75220  Biso   1.000  C
  C23      1.0000 0.43770  0.01780  0.74780  Biso   1.000  C
  C24      1.0000 0.06230  0.98220  0.24780  Biso   1.000  C
  H17      1.0000 0.47670  0.52430  0.80890  Biso   1.000  H
  H18      1.0000 0.02330  0.47570  0.30890  Biso   1.000  H
  H19      1.0000 0.52330  0.02430  0.19110  Biso   1.000  H
  H20      1.0000 0.97670  0.97570  0.69110  Biso   1.000  H
  H21      1.0000 0.52330  0.47570  0.19110  Biso   1.000  H
  H22      1.0000 0.97670  0.52430  0.69110  Biso   1.000  H
  H23      1.0000 0.47670  0.97570  0.80890  Biso   1.000  H
  H24      1.0000 0.02330  0.02430  0.30890  Biso   1.000  H
  C25      1.0000 0.44260  0.37100  0.75470  Biso   1.000  C
  C26      1.0000 0.05740  0.62900  0.25470  Biso   1.000  C
  C27      1.0000 0.55740  0.87100  0.24530  Biso   1.000  C
  C28      1.0000 0.94260  0.12900  0.74530  Biso   1.000  C
  C29      1.0000 0.55740  0.62900  0.24530  Biso   1.000  C
  C30      1.0000 0.94260  0.37100  0.74530  Biso   1.000  C
  C31      1.0000 0.44260  0.12900  0.75470  Biso   1.000  C
  C32      1.0000 0.05740  0.87100  0.25470  Biso   1.000  C
  H25      1.0000 0.48490  0.33720  0.82030  Biso   1.000  H
  H26      1.0000 0.01510  0.66280  0.32030  Biso   1.000  H
  H27      1.0000 0.51510  0.83720  0.17970  Biso   1.000  H
  H28      1.0000 0.98490  0.16280  0.67970  Biso   1.000  H
  H29      1.0000 0.51510  0.66280  0.17970  Biso   1.000  H
  H30      1.0000 0.98490  0.33720  0.67970  Biso   1.000  H
  H31      1.0000 0.48490  0.16280  0.82030  Biso   1.000  H
  H32      1.0000 0.01510  0.83720  0.32030  Biso   1.000  H
  C33      1.0000 0.38380  0.31013  0.66256  Biso   1.000  C
  C34      1.0000 0.11620  0.68987  0.16256  Biso   1.000  C
  C35      1.0000 0.61620  0.81013  0.33744  Biso   1.000  C
  C36      1.0000 0.88380  0.18987  0.83744  Biso   1.000  C
  C37      1.0000 0.61620  0.68987  0.33744  Biso   1.000  C
  C38      1.0000 0.88380  0.31013  0.83744  Biso   1.000  C
  C39      1.0000 0.38380  0.18987  0.66256  Biso   1.000  C
  C40      1.0000 0.11620  0.81013  0.16256  Biso   1.000  C
  C41      1.0000 0.89050  0.25000  0.30330  Biso   1.000  C
  C42      1.0000 0.60950  0.75000  0.80330  Biso   1.000  C
  C43      1.0000 0.10950  0.75000  0.69670  Biso   1.000  C
  C44      1.0000 0.39050  0.25000  0.19670  Biso   1.000  C
