data_image0
_cell_length_a       21.8174
_cell_length_b       5.2742
_cell_length_c       15.1633
_cell_angle_alpha    90
_cell_angle_beta     128.759
_cell_angle_gamma    90

_symmetry_space_group_name_H-M    "P 1"
_symmetry_int_tables_number       1

loop_
  _symmetry_equiv_pos_as_xyz
  'x, y, z'

loop_
  _atom_site_label
  _atom_site_occupancy
  _atom_site_fract_x
  _atom_site_fract_y
  _atom_site_fract_z
  _atom_site_thermal_displace_type
  _atom_site_B_iso_or_equiv
  _atom_site_type_symbol
  Cu1      1.0000 0.08229  0.87015  0.09879  Biso   1.000  Cu
  Cu2      1.0000 0.58229  0.37015  0.09879  Biso   1.000  Cu
  Cu3      1.0000 0.91771  0.87015  0.40121  Biso   1.000  Cu
  Cu4      1.0000 0.41771  0.37015  0.40121  Biso   1.000  Cu
  Cu5      1.0000 0.91771  0.12985  0.90121  Biso   1.000  Cu
  Cu6      1.0000 0.41771  0.62985  0.90121  Biso   1.000  Cu
  Cu7      1.0000 0.08229  0.12985  0.59879  Biso   1.000  Cu
  Cu8      1.0000 0.58229  0.62985  0.59879  Biso   1.000  Cu
  C1       1.0000 0.23440  0.36480  0.37030  Biso   1.000  C
  C2       1.0000 0.73440  0.86480  0.37030  Biso   1.000  C
  C3       1.0000 0.76560  0.36480  0.12970  Biso   1.000  C
  C4       1.0000 0.26560  0.86480  0.12970  Biso   1.000  C
  C5       1.0000 0.76560  0.63520  0.62970  Biso   1.000  C
  C6       1.0000 0.26560  0.13520  0.62970  Biso   1.000  C
  C7       1.0000 0.23440  0.63520  0.87030  Biso   1.000  C
  C8       1.0000 0.73440  0.13520  0.87030  Biso   1.000  C
  H1       1.0000 0.28780  0.40150  0.41540  Biso   1.000  H
  H2       1.0000 0.78780  0.90150  0.41540  Biso   1.000  H
  H3       1.0000 0.71220  0.40150  0.08460  Biso   1.000  H
  H4       1.0000 0.21220  0.90150  0.08460  Biso   1.000  H
  H5       1.0000 0.71220  0.59850  0.58460  Biso   1.000  H
  H6       1.0000 0.21220  0.09850  0.58460  Biso   1.000  H
  H7       1.0000 0.28780  0.59850  0.91540  Biso   1.000  H
  H8       1.0000 0.78780  0.09850  0.91540  Biso   1.000  H
  C9       1.0000 0.18580  0.50300  0.38170  Biso   1.000  C
  C10      1.0000 0.68580  0.00300  0.38170  Biso   1.000  C
  C11      1.0000 0.81420  0.50300  0.11830  Biso   1.000  C
  C12      1.0000 0.31420  0.00300  0.11830  Biso   1.000  C
  C13      1.0000 0.81420  0.49700  0.61830  Biso   1.000  C
  C14      1.0000 0.31420  0.99700  0.61830  Biso   1.000  C
  C15      1.0000 0.18580  0.49700  0.88170  Biso   1.000  C
  C16      1.0000 0.68580  0.99700  0.88170  Biso   1.000  C
  C17      1.0000 0.21300  0.71250  0.46250  Biso   1.000  C
  C18      1.0000 0.71300  0.21250  0.46250  Biso   1.000  C
  C19      1.0000 0.78700  0.71250  0.03750  Biso   1.000  C
  C20      1.0000 0.28700  0.21250  0.03750  Biso   1.000  C
  C21      1.0000 0.78700  0.28750  0.53750  Biso   1.000  C
  C22      1.0000 0.28700  0.78750  0.53750  Biso   1.000  C
  C23      1.0000 0.21300  0.28750  0.96250  Biso   1.000  C
  C24      1.0000 0.71300  0.78750  0.96250  Biso   1.000  C
  H9       1.0000 0.17520  0.79950  0.46070  Biso   1.000  H
  H10      1.0000 0.67520  0.29950  0.46070  Biso   1.000  H
  H11      1.0000 0.82480  0.79950  0.03930  Biso   1.000  H
  H12      1.0000 0.32480  0.29950  0.03930  Biso   1.000  H
  H13      1.0000 0.82480  0.20050  0.53930  Biso   1.000  H
  H14      1.0000 0.32480  0.70050  0.53930  Biso   1.000  H
  H15      1.0000 0.17520  0.20050  0.96070  Biso   1.000  H
  H16      1.0000 0.67520  0.70050  0.96070  Biso   1.000  H
  C25      1.0000 0.20320  0.17370  0.29220  Biso   1.000  C
  C26      1.0000 0.70320  0.67370  0.29220  Biso   1.000  C
  C27      1.0000 0.79680  0.17370  0.20780  Biso   1.000  C
  C28      1.0000 0.29680  0.67370  0.20780  Biso   1.000  C
  C29      1.0000 0.79680  0.82630  0.70780  Biso   1.000  C
  C30      1.0000 0.29680  0.32630  0.70780  Biso   1.000  C
  C31      1.0000 0.20320  0.82630  0.79220  Biso   1.000  C
  C32      1.0000 0.70320  0.32630  0.79220  Biso   1.000  C
  H17      1.0000 0.23700  0.08290  0.28620  Biso   1.000  H
  H18      1.0000 0.73700  0.58290  0.28620  Biso   1.000  H
  H19      1.0000 0.76300  0.08290  0.21380  Biso   1.000  H
  H20      1.0000 0.26300  0.58290  0.21380  Biso   1.000  H
  H21      1.0000 0.76300  0.91710  0.71380  Biso   1.000  H
  H22      1.0000 0.26300  0.41710  0.71380  Biso   1.000  H
  H23      1.0000 0.23700  0.91710  0.78620  Biso   1.000  H
  H24      1.0000 0.73700  0.41710  0.78620  Biso   1.000  H
  C33      1.0000 0.10720  0.44220  0.30920  Biso   1.000  C
  C34      1.0000 0.60720  0.94220  0.30920  Biso   1.000  C
  C35      1.0000 0.89280  0.44220  0.19080  Biso   1.000  C
  C36      1.0000 0.39280  0.94220  0.19080  Biso   1.000  C
  C37      1.0000 0.89280  0.55780  0.69080  Biso   1.000  C
  C38      1.0000 0.39280  0.05780  0.69080  Biso   1.000  C
  C39      1.0000 0.10720  0.55780  0.80920  Biso   1.000  C
  C40      1.0000 0.60720  0.05780  0.80920  Biso   1.000  C
  H25      1.0000 0.07210  0.53430  0.31210  Biso   1.000  H
  H26      1.0000 0.57210  0.03430  0.31210  Biso   1.000  H
  H27      1.0000 0.92790  0.53430  0.18790  Biso   1.000  H
  H28      1.0000 0.42790  0.03430  0.18790  Biso   1.000  H
  H29      1.0000 0.92790  0.46570  0.68790  Biso   1.000  H
  H30      1.0000 0.42790  0.96570  0.68790  Biso   1.000  H
  H31      1.0000 0.07210  0.46570  0.81210  Biso   1.000  H
  H32      1.0000 0.57210  0.96570  0.81210  Biso   1.000  H
  C41      1.0000 0.07990  0.24870  0.23320  Biso   1.000  C
  C42      1.0000 0.57990  0.74870  0.23320  Biso   1.000  C
  C43      1.0000 0.92010  0.24870  0.26680  Biso   1.000  C
  C44      1.0000 0.42010  0.74870  0.26680  Biso   1.000  C
  C45      1.0000 0.92010  0.75130  0.76680  Biso   1.000  C
  C46      1.0000 0.42010  0.25130  0.76680  Biso   1.000  C
  C47      1.0000 0.07990  0.75130  0.73320  Biso   1.000  C
  C48      1.0000 0.57990  0.25130  0.73320  Biso   1.000  C
  H33      1.0000 0.02640  0.21200  0.18600  Biso   1.000  H
  H34      1.0000 0.52640  0.71200  0.18600  Biso   1.000  H
  H35      1.0000 0.97360  0.21200  0.31400  Biso   1.000  H
  H36      1.0000 0.47360  0.71200  0.31400  Biso   1.000  H
  H37      1.0000 0.97360  0.78800  0.81400  Biso   1.000  H
  H38      1.0000 0.47360  0.28800  0.81400  Biso   1.000  H
  H39      1.0000 0.02640  0.78800  0.68600  Biso   1.000  H
  H40      1.0000 0.52640  0.28800  0.68600  Biso   1.000  H
  N1       1.0000 0.12700  0.10920  0.22390  Biso   1.000  N
  N2       1.0000 0.62700  0.60920  0.22390  Biso   1.000  N
  N3       1.0000 0.87300  0.10920  0.27610  Biso   1.000  N
  N4       1.0000 0.37300  0.60920  0.27610  Biso   1.000  N
  N5       1.0000 0.87300  0.89080  0.77610  Biso   1.000  N
  N6       1.0000 0.37300  0.39080  0.77610  Biso   1.000  N
  N7       1.0000 0.12700  0.89080  0.72390  Biso   1.000  N
  N8       1.0000 0.62700  0.39080  0.72390  Biso   1.000  N
  N9       1.0000 0.06930  0.37950  0.00140  Biso   1.000  N
  N10      1.0000 0.56930  0.87950  0.00140  Biso   1.000  N
  N11      1.0000 0.93070  0.37950  0.49860  Biso   1.000  N
  N12      1.0000 0.43070  0.87950  0.49860  Biso   1.000  N
  N13      1.0000 0.93070  0.62050  0.99860  Biso   1.000  N
  N14      1.0000 0.43070  0.12050  0.99860  Biso   1.000  N
  N15      1.0000 0.06930  0.62050  0.50140  Biso   1.000  N
  N16      1.0000 0.56930  0.12050  0.50140  Biso   1.000  N
  N17      1.0000 0.09790  0.57580  0.04150  Biso   1.000  N
  N18      1.0000 0.59790  0.07580  0.04150  Biso   1.000  N
  N19      1.0000 0.90210  0.57580  0.45850  Biso   1.000  N
  N20      1.0000 0.40210  0.07580  0.45850  Biso   1.000  N
  N21      1.0000 0.90210  0.42420  0.95850  Biso   1.000  N
  N22      1.0000 0.40210  0.92420  0.95850  Biso   1.000  N
  N23      1.0000 0.09790  0.42420  0.54150  Biso   1.000  N
  N24      1.0000 0.59790  0.92420  0.54150  Biso   1.000  N
  N25      1.0000 0.04440  0.17890  0.96060  Biso   1.000  N
  N26      1.0000 0.54440  0.67890  0.96060  Biso   1.000  N
  N27      1.0000 0.95560  0.17890  0.53940  Biso   1.000  N
  N28      1.0000 0.45560  0.67890  0.53940  Biso   1.000  N
  N29      1.0000 0.95560  0.82110  0.03940  Biso   1.000  N
  N30      1.0000 0.45560  0.32110  0.03940  Biso   1.000  N
  N31      1.0000 0.04440  0.82110  0.46060  Biso   1.000  N
  N32      1.0000 0.54440  0.32110  0.46060  Biso   1.000  N
