data_image0
_cell_length_a       7.523
_cell_length_b       7.089
_cell_length_c       11.446
_cell_angle_alpha    90
_cell_angle_beta     103.135
_cell_angle_gamma    90

_symmetry_space_group_name_H-M    "P 1"
_symmetry_int_tables_number       1

loop_
  _symmetry_equiv_pos_as_xyz
  'x, y, z'

loop_
  _atom_site_label
  _atom_site_occupancy
  _atom_site_fract_x
  _atom_site_fract_y
  _atom_site_fract_z
  _atom_site_thermal_displace_type
  _atom_site_B_iso_or_equiv
  _atom_site_type_symbol
  Cu1      1.0000 0.12328  0.18611  0.56410  Biso   1.000  Cu
  Cu2      1.0000 0.37672  0.68611  0.93590  Biso   1.000  Cu
  Cu3      1.0000 0.87672  0.81389  0.43590  Biso   1.000  Cu
  Cu4      1.0000 0.62328  0.31389  0.06410  Biso   1.000  Cu
  Cu5      1.0000 0.01041  0.93011  0.74712  Biso   1.000  Cu
  Cu6      1.0000 0.48959  0.43011  0.75288  Biso   1.000  Cu
  Cu7      1.0000 0.98959  0.06989  0.25288  Biso   1.000  Cu
  Cu8      1.0000 0.51041  0.56989  0.24712  Biso   1.000  Cu
  C1       1.0000 0.42920  0.92400  0.58510  Biso   1.000  C
  C2       1.0000 0.07080  0.42400  0.91490  Biso   1.000  C
  C3       1.0000 0.57080  0.07600  0.41490  Biso   1.000  C
  C4       1.0000 0.92920  0.57600  0.08510  Biso   1.000  C
  H1       1.0000 0.38340  0.86730  0.64540  Biso   1.000  H
  H2       1.0000 0.11660  0.36730  0.85460  Biso   1.000  H
  H3       1.0000 0.61660  0.13270  0.35460  Biso   1.000  H
  H4       1.0000 0.88340  0.63270  0.14540  Biso   1.000  H
  C5       1.0000 0.57950  0.84600  0.55420  Biso   1.000  C
  C6       1.0000 0.92050  0.34600  0.94580  Biso   1.000  C
  C7       1.0000 0.42050  0.15400  0.44580  Biso   1.000  C
  C8       1.0000 0.07950  0.65400  0.05420  Biso   1.000  C
  H5       1.0000 0.63140  0.73790  0.59370  Biso   1.000  H
  H6       1.0000 0.86860  0.23790  0.90630  Biso   1.000  H
  H7       1.0000 0.36860  0.26210  0.40630  Biso   1.000  H
  H8       1.0000 0.13140  0.76210  0.09370  Biso   1.000  H
  N1       1.0000 0.34660  0.07840  0.53150  Biso   1.000  N
  N2       1.0000 0.15340  0.57840  0.96850  Biso   1.000  N
  N3       1.0000 0.65340  0.92160  0.46850  Biso   1.000  N
  N4       1.0000 0.84660  0.42160  0.03150  Biso   1.000  N
  N5       1.0000 0.93320  0.18040  0.65290  Biso   1.000  N
  N6       1.0000 0.56680  0.68040  0.84710  Biso   1.000  N
  N7       1.0000 0.06680  0.81960  0.34710  Biso   1.000  N
  N8       1.0000 0.43320  0.31960  0.15290  Biso   1.000  N
  N9       1.0000 0.80660  0.27620  0.65820  Biso   1.000  N
  N10      1.0000 0.69340  0.77620  0.84180  Biso   1.000  N
  N11      1.0000 0.19340  0.72380  0.34180  Biso   1.000  N
  N12      1.0000 0.30660  0.22380  0.15820  Biso   1.000  N
  N13      1.0000 0.68150  0.36710  0.66470  Biso   1.000  N
  N14      1.0000 0.81850  0.86710  0.83530  Biso   1.000  N
  N15      1.0000 0.31850  0.63290  0.33530  Biso   1.000  N
  N16      1.0000 0.18150  0.13290  0.16470  Biso   1.000  N
  N17      1.0000 0.24020  0.47740  0.64340  Biso   1.000  N
  N18      1.0000 0.25980  0.97740  0.85660  Biso   1.000  N
  N19      1.0000 0.75980  0.52260  0.35660  Biso   1.000  N
  N20      1.0000 0.74020  0.02260  0.14340  Biso   1.000  N
  N21      1.0000 0.13430  0.60160  0.63500  Biso   1.000  N
  N22      1.0000 0.36570  0.10160  0.86500  Biso   1.000  N
  N23      1.0000 0.86570  0.39840  0.36500  Biso   1.000  N
  N24      1.0000 0.63430  0.89840  0.13500  Biso   1.000  N
  N25      1.0000 0.02410  0.72460  0.62250  Biso   1.000  N
  N26      1.0000 0.47590  0.22460  0.87750  Biso   1.000  N
  N27      1.0000 0.97590  0.27540  0.37750  Biso   1.000  N
  N28      1.0000 0.52410  0.77540  0.12250  Biso   1.000  N
