data_image0
_cell_length_a       11.536
_cell_length_b       6.7868
_cell_length_c       8.3073
_cell_angle_alpha    90
_cell_angle_beta     90
_cell_angle_gamma    90

_symmetry_space_group_name_H-M    "P 1"
_symmetry_int_tables_number       1

loop_
  _symmetry_equiv_pos_as_xyz
  'x, y, z'

loop_
  _atom_site_label
  _atom_site_occupancy
  _atom_site_fract_x
  _atom_site_fract_y
  _atom_site_fract_z
  _atom_site_thermal_displace_type
  _atom_site_B_iso_or_equiv
  _atom_site_type_symbol
  Cu1      1.0000 0.50880  0.20410  0.93900  Biso   1.000  Cu
  Cu2      1.0000 0.99120  0.20410  0.43900  Biso   1.000  Cu
  Cu3      1.0000 0.00880  0.79590  0.93900  Biso   1.000  Cu
  Cu4      1.0000 0.49120  0.79590  0.43900  Biso   1.000  Cu
  N1       1.0000 0.66000  0.38100  0.95600  Biso   1.000  N
  N2       1.0000 0.84000  0.38100  0.45600  Biso   1.000  N
  N3       1.0000 0.16000  0.61900  0.95600  Biso   1.000  N
  N4       1.0000 0.34000  0.61900  0.45600  Biso   1.000  N
  C1       1.0000 0.76000  0.31200  0.89700  Biso   1.000  C
  C2       1.0000 0.74000  0.31200  0.39700  Biso   1.000  C
  C3       1.0000 0.26000  0.68800  0.89700  Biso   1.000  C
  C4       1.0000 0.24000  0.68800  0.39700  Biso   1.000  C
  C5       1.0000 0.86200  0.42700  0.90700  Biso   1.000  C
  C6       1.0000 0.63800  0.42700  0.40700  Biso   1.000  C
  C7       1.0000 0.36200  0.57300  0.90700  Biso   1.000  C
  C8       1.0000 0.13800  0.57300  0.40700  Biso   1.000  C
  N5       1.0000 0.86400  0.60300  0.97300  Biso   1.000  N
  N6       1.0000 0.63600  0.60300  0.47300  Biso   1.000  N
  N7       1.0000 0.36400  0.39700  0.97300  Biso   1.000  N
  N8       1.0000 0.13600  0.39700  0.47300  Biso   1.000  N
  C9       1.0000 0.76300  0.67000  0.03100  Biso   1.000  C
  C10      1.0000 0.73700  0.67000  0.53100  Biso   1.000  C
  C11      1.0000 0.26300  0.33000  0.03100  Biso   1.000  C
  C12      1.0000 0.23700  0.33000  0.53100  Biso   1.000  C
  C13      1.0000 0.66400  0.56000  0.02300  Biso   1.000  C
  C14      1.0000 0.83600  0.56000  0.52300  Biso   1.000  C
  C15      1.0000 0.16400  0.44000  0.02300  Biso   1.000  C
  C16      1.0000 0.33600  0.44000  0.52300  Biso   1.000  C
  N9       1.0000 0.76200  0.13100  0.83100  Biso   1.000  N
  N10      1.0000 0.73800  0.13100  0.33100  Biso   1.000  N
  N11      1.0000 0.26200  0.86900  0.83100  Biso   1.000  N
  N12      1.0000 0.23800  0.86900  0.33100  Biso   1.000  N
  H1       1.0000 0.93090  0.37570  0.86570  Biso   1.000  H
  H2       1.0000 0.56910  0.37570  0.36570  Biso   1.000  H
  H3       1.0000 0.43090  0.62430  0.86570  Biso   1.000  H
  H4       1.0000 0.06910  0.62430  0.36570  Biso   1.000  H
  H5       1.0000 0.76030  0.79430  0.07860  Biso   1.000  H
  H6       1.0000 0.73970  0.79430  0.57860  Biso   1.000  H
  H7       1.0000 0.26030  0.20570  0.07860  Biso   1.000  H
  H8       1.0000 0.23970  0.20570  0.57860  Biso   1.000  H
  H9       1.0000 0.59610  0.61160  0.06550  Biso   1.000  H
  H10      1.0000 0.90390  0.61160  0.56550  Biso   1.000  H
  H11      1.0000 0.09610  0.38840  0.06550  Biso   1.000  H
  H12      1.0000 0.40390  0.38840  0.56550  Biso   1.000  H
  H13      1.0000 0.69810  0.06260  0.82690  Biso   1.000  H
  H14      1.0000 0.80190  0.06260  0.32690  Biso   1.000  H
  H15      1.0000 0.19810  0.93740  0.82690  Biso   1.000  H
  H16      1.0000 0.30190  0.93740  0.32690  Biso   1.000  H
  H17      1.0000 0.82420  0.08430  0.79210  Biso   1.000  H
  H18      1.0000 0.67580  0.08430  0.29210  Biso   1.000  H
  H19      1.0000 0.32420  0.91570  0.79210  Biso   1.000  H
  H20      1.0000 0.17580  0.91570  0.29210  Biso   1.000  H
  C17      1.0000 0.49800  0.01000  0.10621  Biso   1.000  C
  C18      1.0000 0.00200  0.01000  0.60621  Biso   1.000  C
  C19      1.0000 0.99800  0.99000  0.10621  Biso   1.000  C
  C20      1.0000 0.50200  0.99000  0.60621  Biso   1.000  C
  N13      1.0000 0.49600  0.92500  0.22700  Biso   1.000  N
  N14      1.0000 0.00400  0.92500  0.72700  Biso   1.000  N
  N15      1.0000 0.99600  0.07500  0.22700  Biso   1.000  N
  N16      1.0000 0.50400  0.07500  0.72700  Biso   1.000  N
