data_image0
_cell_length_a       15.358
_cell_length_b       14.309
_cell_length_c       3.801
_cell_angle_alpha    90
_cell_angle_beta     90
_cell_angle_gamma    90

_symmetry_space_group_name_H-M    "P 1"
_symmetry_int_tables_number       1

loop_
  _symmetry_equiv_pos_as_xyz
  'x, y, z'

loop_
  _atom_site_label
  _atom_site_occupancy
  _atom_site_fract_x
  _atom_site_fract_y
  _atom_site_fract_z
  _atom_site_thermal_displace_type
  _atom_site_B_iso_or_equiv
  _atom_site_type_symbol
  Cu1      1.0000 0.76700  0.91790  0.11920  Biso   1.000  Cu
  Cu2      1.0000 0.73300  0.08210  0.61920  Biso   1.000  Cu
  Cu3      1.0000 0.26700  0.58210  0.88080  Biso   1.000  Cu
  Cu4      1.0000 0.23300  0.41790  0.38080  Biso   1.000  Cu
  Cl1      1.0000 0.67580  0.91780  0.60300  Biso   1.000  Cl
  Cl2      1.0000 0.82420  0.08220  0.10300  Biso   1.000  Cl
  Cl3      1.0000 0.17580  0.58220  0.39700  Biso   1.000  Cl
  Cl4      1.0000 0.32420  0.41780  0.89700  Biso   1.000  Cl
  N1       1.0000 0.87160  0.83850  0.04000  Biso   1.000  N
  N2       1.0000 0.62840  0.16150  0.54000  Biso   1.000  N
  N3       1.0000 0.37160  0.66150  0.96000  Biso   1.000  N
  N4       1.0000 0.12840  0.33850  0.46000  Biso   1.000  N
  C1       1.0000 0.94200  0.87700  0.90600  Biso   1.000  C
  C2       1.0000 0.55800  0.12300  0.40600  Biso   1.000  C
  C3       1.0000 0.44200  0.62300  0.09400  Biso   1.000  C
  C4       1.0000 0.05800  0.37700  0.59400  Biso   1.000  C
  C5       1.0000 0.01730  0.82700  0.82800  Biso   1.000  C
  C6       1.0000 0.48270  0.17300  0.32800  Biso   1.000  C
  C7       1.0000 0.51730  0.67300  0.17200  Biso   1.000  C
  C8       1.0000 0.98270  0.32700  0.67200  Biso   1.000  C
  C9       1.0000 0.02000  0.73400  0.89200  Biso   1.000  C
  C10      1.0000 0.48000  0.26600  0.39200  Biso   1.000  C
  C11      1.0000 0.52000  0.76600  0.10800  Biso   1.000  C
  C12      1.0000 0.98000  0.23400  0.60800  Biso   1.000  C
  C13      1.0000 0.94800  0.69000  0.04100  Biso   1.000  C
  C14      1.0000 0.55200  0.31000  0.54100  Biso   1.000  C
  C15      1.0000 0.44800  0.81000  0.95900  Biso   1.000  C
  C16      1.0000 0.05200  0.19000  0.45900  Biso   1.000  C
  C17      1.0000 0.94500  0.59500  0.13300  Biso   1.000  C
  C18      1.0000 0.55500  0.40500  0.63300  Biso   1.000  C
  C19      1.0000 0.44500  0.90500  0.86700  Biso   1.000  C
  C20      1.0000 0.05500  0.09500  0.36700  Biso   1.000  C
  C21      1.0000 0.87200  0.55600  0.27300  Biso   1.000  C
  C22      1.0000 0.62800  0.44400  0.77300  Biso   1.000  C
  C23      1.0000 0.37200  0.94400  0.72700  Biso   1.000  C
  C24      1.0000 0.12800  0.05600  0.22700  Biso   1.000  C
  C25      1.0000 0.79700  0.60800  0.34200  Biso   1.000  C
  C26      1.0000 0.70300  0.39200  0.84200  Biso   1.000  C
  C27      1.0000 0.29700  0.89200  0.65800  Biso   1.000  C
  C28      1.0000 0.20300  0.10800  0.15800  Biso   1.000  C
  C29      1.0000 0.80100  0.70300  0.26300  Biso   1.000  C
  C30      1.0000 0.69900  0.29700  0.76300  Biso   1.000  C
  C31      1.0000 0.30100  0.79700  0.73700  Biso   1.000  C
  C32      1.0000 0.19900  0.20300  0.23700  Biso   1.000  C
  C33      1.0000 0.87450  0.74600  0.10900  Biso   1.000  C
  C34      1.0000 0.62550  0.25400  0.60900  Biso   1.000  C
  C35      1.0000 0.37450  0.75400  0.89100  Biso   1.000  C
  C36      1.0000 0.12550  0.24600  0.39100  Biso   1.000  C
  H1       1.0000 0.93940  0.94670  0.83760  Biso   1.000  H
  H2       1.0000 0.56060  0.05330  0.33760  Biso   1.000  H
  H3       1.0000 0.43940  0.55330  0.16240  Biso   1.000  H
  H4       1.0000 0.06060  0.44670  0.66240  Biso   1.000  H
  H5       1.0000 0.06820  0.85900  0.73290  Biso   1.000  H
  H6       1.0000 0.43180  0.14100  0.23290  Biso   1.000  H
  H7       1.0000 0.56820  0.64100  0.26710  Biso   1.000  H
  H8       1.0000 0.93180  0.35900  0.76710  Biso   1.000  H
  H9       1.0000 0.06290  0.68350  0.87410  Biso   1.000  H
  H10      1.0000 0.43710  0.31650  0.37410  Biso   1.000  H
  H11      1.0000 0.56290  0.81650  0.12590  Biso   1.000  H
  H12      1.0000 0.93710  0.18350  0.62590  Biso   1.000  H
  H13      1.0000 0.99600  0.55810  0.09280  Biso   1.000  H
  H14      1.0000 0.50400  0.44190  0.59280  Biso   1.000  H
  H15      1.0000 0.49600  0.94190  0.90720  Biso   1.000  H
  H16      1.0000 0.00400  0.05810  0.40720  Biso   1.000  H
  H17      1.0000 0.87260  0.48900  0.32060  Biso   1.000  H
  H18      1.0000 0.62740  0.51100  0.82060  Biso   1.000  H
  H19      1.0000 0.37260  0.01100  0.67940  Biso   1.000  H
  H20      1.0000 0.12740  0.98900  0.17940  Biso   1.000  H
  H21      1.0000 0.74240  0.57510  0.43690  Biso   1.000  H
  H22      1.0000 0.75760  0.42490  0.93690  Biso   1.000  H
  H23      1.0000 0.24240  0.92490  0.56310  Biso   1.000  H
  H24      1.0000 0.25760  0.07510  0.06310  Biso   1.000  H
  H25      1.0000 0.74900  0.74060  0.32670  Biso   1.000  H
  H26      1.0000 0.75100  0.25940  0.82670  Biso   1.000  H
  H27      1.0000 0.24900  0.75940  0.67330  Biso   1.000  H
  H28      1.0000 0.25100  0.24060  0.17330  Biso   1.000  H
