data_image0
_cell_length_a       5.682
_cell_length_b       10.412
_cell_length_c       16.838
_cell_angle_alpha    90
_cell_angle_beta     97.48
_cell_angle_gamma    90

_symmetry_space_group_name_H-M    "P 1"
_symmetry_int_tables_number       1

loop_
  _symmetry_equiv_pos_as_xyz
  'x, y, z'

loop_
  _atom_site_label
  _atom_site_occupancy
  _atom_site_fract_x
  _atom_site_fract_y
  _atom_site_fract_z
  _atom_site_thermal_displace_type
  _atom_site_B_iso_or_equiv
  _atom_site_type_symbol
  Cu1      1.0000 0.42930  0.51800  0.08423  Biso   1.000  Cu
  Cu2      1.0000 0.57070  0.01800  0.41577  Biso   1.000  Cu
  Cu3      1.0000 0.57070  0.48200  0.91577  Biso   1.000  Cu
  Cu4      1.0000 0.42930  0.98200  0.58423  Biso   1.000  Cu
  S1       1.0000 0.34300  0.32800  0.98030  Biso   1.000  S
  S2       1.0000 0.65700  0.82800  0.51970  Biso   1.000  S
  S3       1.0000 0.65700  0.67200  0.01970  Biso   1.000  S
  S4       1.0000 0.34300  0.17200  0.48030  Biso   1.000  S
  N1       1.0000 0.88000  0.40850  0.92480  Biso   1.000  N
  N2       1.0000 0.12000  0.90850  0.57520  Biso   1.000  N
  N3       1.0000 0.12000  0.59150  0.07520  Biso   1.000  N
  N4       1.0000 0.88000  0.09150  0.42480  Biso   1.000  N
  C1       1.0000 0.07000  0.37540  0.94640  Biso   1.000  C
  C2       1.0000 0.93000  0.87540  0.55360  Biso   1.000  C
  C3       1.0000 0.93000  0.62460  0.05360  Biso   1.000  C
  C4       1.0000 0.07000  0.12460  0.44640  Biso   1.000  C
  N5       1.0000 0.66040  0.43020  0.16550  Biso   1.000  N
  N6       1.0000 0.33960  0.93020  0.33450  Biso   1.000  N
  N7       1.0000 0.33960  0.56980  0.83450  Biso   1.000  N
  N8       1.0000 0.66040  0.06980  0.66550  Biso   1.000  N
  C5       1.0000 0.82700  0.35630  0.14150  Biso   1.000  C
  C6       1.0000 0.17300  0.85630  0.35850  Biso   1.000  C
  C7       1.0000 0.17300  0.64370  0.85850  Biso   1.000  C
  C8       1.0000 0.82700  0.14370  0.64150  Biso   1.000  C
  C9       1.0000 0.01000  0.29940  0.19230  Biso   1.000  C
  C10      1.0000 0.99000  0.79940  0.30770  Biso   1.000  C
  C11      1.0000 0.99000  0.70060  0.80770  Biso   1.000  C
  C12      1.0000 0.01000  0.20060  0.69230  Biso   1.000  C
  C13      1.0000 0.02700  0.32120  0.27240  Biso   1.000  C
  C14      1.0000 0.97300  0.82120  0.22760  Biso   1.000  C
  C15      1.0000 0.97300  0.67880  0.72760  Biso   1.000  C
  C16      1.0000 0.02700  0.17880  0.77240  Biso   1.000  C
  C17      1.0000 0.86500  0.42730  0.38360  Biso   1.000  C
  C18      1.0000 0.13500  0.92730  0.11640  Biso   1.000  C
  C19      1.0000 0.13500  0.57270  0.61640  Biso   1.000  C
  C20      1.0000 0.86500  0.07270  0.88360  Biso   1.000  C
  C21      1.0000 0.69700  0.50240  0.40980  Biso   1.000  C
  C22      1.0000 0.30300  0.00240  0.09020  Biso   1.000  C
  C23      1.0000 0.30300  0.49760  0.59020  Biso   1.000  C
  C24      1.0000 0.69700  0.99760  0.90980  Biso   1.000  C
  C25      1.0000 0.51200  0.55440  0.35490  Biso   1.000  C
  C26      1.0000 0.48800  0.05440  0.14510  Biso   1.000  C
  C27      1.0000 0.48800  0.44560  0.64510  Biso   1.000  C
  C28      1.0000 0.51200  0.94560  0.85490  Biso   1.000  C
  C29      1.0000 0.50300  0.53210  0.27520  Biso   1.000  C
  C30      1.0000 0.49700  0.03210  0.22480  Biso   1.000  C
  C31      1.0000 0.49700  0.46790  0.72480  Biso   1.000  C
  C32      1.0000 0.50300  0.96790  0.77520  Biso   1.000  C
  C33      1.0000 0.67500  0.45270  0.24640  Biso   1.000  C
  C34      1.0000 0.32500  0.95270  0.25360  Biso   1.000  C
  C35      1.0000 0.32500  0.54730  0.75360  Biso   1.000  C
  C36      1.0000 0.67500  0.04730  0.74640  Biso   1.000  C
  C37      1.0000 0.86000  0.39930  0.30230  Biso   1.000  C
  C38      1.0000 0.14000  0.89930  0.19770  Biso   1.000  C
  C39      1.0000 0.14000  0.60070  0.69770  Biso   1.000  C
  C40      1.0000 0.86000  0.10070  0.80230  Biso   1.000  C
  H1       1.0000 0.82080  0.34160  0.08380  Biso   1.000  H
  H2       1.0000 0.17920  0.84160  0.41620  Biso   1.000  H
  H3       1.0000 0.17920  0.65840  0.91620  Biso   1.000  H
  H4       1.0000 0.82080  0.15840  0.58380  Biso   1.000  H
  H5       1.0000 0.12530  0.24330  0.17010  Biso   1.000  H
  H6       1.0000 0.87470  0.74330  0.32990  Biso   1.000  H
  H7       1.0000 0.87470  0.75670  0.82990  Biso   1.000  H
  H8       1.0000 0.12530  0.25670  0.67010  Biso   1.000  H
  H9       1.0000 0.15880  0.28320  0.30840  Biso   1.000  H
  H10      1.0000 0.84120  0.78320  0.19160  Biso   1.000  H
  H11      1.0000 0.84120  0.71680  0.69160  Biso   1.000  H
  H12      1.0000 0.15880  0.21680  0.80840  Biso   1.000  H
  H13      1.0000 0.99330  0.39130  0.42230  Biso   1.000  H
  H14      1.0000 0.00670  0.89130  0.07770  Biso   1.000  H
  H15      1.0000 0.00670  0.60870  0.57770  Biso   1.000  H
  H16      1.0000 0.99330  0.10870  0.92230  Biso   1.000  H
  H17      1.0000 0.70280  0.52240  0.46660  Biso   1.000  H
  H18      1.0000 0.29720  0.02240  0.03340  Biso   1.000  H
  H19      1.0000 0.29720  0.47760  0.53340  Biso   1.000  H
  H20      1.0000 0.70280  0.97760  0.96660  Biso   1.000  H
  H21      1.0000 0.38690  0.60760  0.37420  Biso   1.000  H
  H22      1.0000 0.61310  0.10760  0.12580  Biso   1.000  H
  H23      1.0000 0.61310  0.39240  0.62580  Biso   1.000  H
  H24      1.0000 0.38690  0.89240  0.87420  Biso   1.000  H
  H25      1.0000 0.37850  0.57270  0.23670  Biso   1.000  H
  H26      1.0000 0.62150  0.07270  0.26330  Biso   1.000  H
  H27      1.0000 0.62150  0.42730  0.76330  Biso   1.000  H
  H28      1.0000 0.37850  0.92730  0.73670  Biso   1.000  H
