data_image0
_cell_length_a       11.3387
_cell_length_b       16.651
_cell_length_c       14.999
_cell_angle_alpha    90
_cell_angle_beta     90
_cell_angle_gamma    90

_symmetry_space_group_name_H-M    "P 1"
_symmetry_int_tables_number       1

loop_
  _symmetry_equiv_pos_as_xyz
  'x, y, z'

loop_
  _atom_site_label
  _atom_site_occupancy
  _atom_site_fract_x
  _atom_site_fract_y
  _atom_site_fract_z
  _atom_site_thermal_displace_type
  _atom_site_B_iso_or_equiv
  _atom_site_type_symbol
  I1       1.0000 0.99626  0.25000  0.12509  Biso   1.000  I
  I2       1.0000 0.50374  0.75000  0.62509  Biso   1.000  I
  I3       1.0000 0.00374  0.75000  0.87491  Biso   1.000  I
  I4       1.0000 0.49626  0.25000  0.37491  Biso   1.000  I
  Cu1      1.0000 0.18929  0.25000  0.01831  Biso   1.000  Cu
  Cu2      1.0000 0.31071  0.75000  0.51831  Biso   1.000  Cu
  Cu3      1.0000 0.81071  0.75000  0.98169  Biso   1.000  Cu
  Cu4      1.0000 0.68929  0.25000  0.48169  Biso   1.000  Cu
  Cu5      1.0000 0.06907  0.25000  0.31627  Biso   1.000  Cu
  Cu6      1.0000 0.43093  0.75000  0.81627  Biso   1.000  Cu
  Cu7      1.0000 0.93093  0.75000  0.68373  Biso   1.000  Cu
  Cu8      1.0000 0.56907  0.25000  0.18373  Biso   1.000  Cu
  N1       1.0000 0.17870  0.34600  0.30810  Biso   1.000  N
  N2       1.0000 0.32130  0.65400  0.80810  Biso   1.000  N
  N3       1.0000 0.82130  0.84600  0.69190  Biso   1.000  N
  N4       1.0000 0.67870  0.15400  0.19190  Biso   1.000  N
  N5       1.0000 0.82130  0.65400  0.69190  Biso   1.000  N
  N6       1.0000 0.67870  0.34600  0.19190  Biso   1.000  N
  N7       1.0000 0.17870  0.15400  0.30810  Biso   1.000  N
  N8       1.0000 0.32130  0.84600  0.80810  Biso   1.000  N
  N9       1.0000 0.24000  0.36550  0.23470  Biso   1.000  N
  N10      1.0000 0.26000  0.63450  0.73470  Biso   1.000  N
  N11      1.0000 0.76000  0.86550  0.76530  Biso   1.000  N
  N12      1.0000 0.74000  0.13450  0.26530  Biso   1.000  N
  N13      1.0000 0.76000  0.63450  0.76530  Biso   1.000  N
  N14      1.0000 0.74000  0.36550  0.26530  Biso   1.000  N
  N15      1.0000 0.24000  0.13450  0.23470  Biso   1.000  N
  N16      1.0000 0.26000  0.86550  0.73470  Biso   1.000  N
  H1       1.0000 0.23770  0.33810  0.18600  Biso   1.000  H
  H2       1.0000 0.26230  0.66190  0.68600  Biso   1.000  H
  H3       1.0000 0.76230  0.83810  0.81400  Biso   1.000  H
  H4       1.0000 0.73770  0.16190  0.31400  Biso   1.000  H
  H5       1.0000 0.76230  0.66190  0.81400  Biso   1.000  H
  H6       1.0000 0.73770  0.33810  0.31400  Biso   1.000  H
  H7       1.0000 0.23770  0.16190  0.18600  Biso   1.000  H
  H8       1.0000 0.26230  0.83810  0.68600  Biso   1.000  H
  N17      1.0000 0.34000  0.64900  0.44480  Biso   1.000  N
  N18      1.0000 0.16000  0.35100  0.94480  Biso   1.000  N
  N19      1.0000 0.66000  0.14900  0.55520  Biso   1.000  N
  N20      1.0000 0.84000  0.85100  0.05520  Biso   1.000  N
  N21      1.0000 0.66000  0.35100  0.55520  Biso   1.000  N
  N22      1.0000 0.84000  0.64900  0.05520  Biso   1.000  N
  N23      1.0000 0.34000  0.85100  0.44480  Biso   1.000  N
  N24      1.0000 0.16000  0.14900  0.94480  Biso   1.000  N
  C1       1.0000 0.44990  0.54670  0.39250  Biso   1.000  C
  C2       1.0000 0.05010  0.45330  0.89250  Biso   1.000  C
  C3       1.0000 0.55010  0.04670  0.60750  Biso   1.000  C
  C4       1.0000 0.94990  0.95330  0.10750  Biso   1.000  C
  C5       1.0000 0.55010  0.45330  0.60750  Biso   1.000  C
  C6       1.0000 0.94990  0.54670  0.10750  Biso   1.000  C
  C7       1.0000 0.44990  0.95330  0.39250  Biso   1.000  C
  C8       1.0000 0.05010  0.04670  0.89250  Biso   1.000  C
  C9       1.0000 0.20680  0.40210  0.36750  Biso   1.000  C
  C10      1.0000 0.29320  0.59790  0.86750  Biso   1.000  C
  C11      1.0000 0.79320  0.90210  0.63250  Biso   1.000  C
  C12      1.0000 0.70680  0.09790  0.13250  Biso   1.000  C
  C13      1.0000 0.79320  0.59790  0.63250  Biso   1.000  C
  C14      1.0000 0.70680  0.40210  0.13250  Biso   1.000  C
  C15      1.0000 0.20680  0.09790  0.36750  Biso   1.000  C
  C16      1.0000 0.29320  0.90210  0.86750  Biso   1.000  C
  C17      1.0000 0.33320  0.53000  0.37370  Biso   1.000  C
  C18      1.0000 0.16680  0.47000  0.87370  Biso   1.000  C
  C19      1.0000 0.66680  0.03000  0.62630  Biso   1.000  C
  C20      1.0000 0.83320  0.97000  0.12630  Biso   1.000  C
  C21      1.0000 0.66680  0.47000  0.62630  Biso   1.000  C
  C22      1.0000 0.83320  0.53000  0.12630  Biso   1.000  C
  C23      1.0000 0.33320  0.97000  0.37370  Biso   1.000  C
  C24      1.0000 0.16680  0.03000  0.87370  Biso   1.000  C
  C25      1.0000 0.30510  0.43180  0.24490  Biso   1.000  C
  C26      1.0000 0.19490  0.56820  0.74490  Biso   1.000  C
  C27      1.0000 0.69490  0.93180  0.75510  Biso   1.000  C
  C28      1.0000 0.80510  0.06820  0.25510  Biso   1.000  C
  C29      1.0000 0.69490  0.56820  0.75510  Biso   1.000  C
  C30      1.0000 0.80510  0.43180  0.25510  Biso   1.000  C
  C31      1.0000 0.30510  0.06820  0.24490  Biso   1.000  C
  C32      1.0000 0.19490  0.93180  0.74490  Biso   1.000  C
  N25      1.0000 0.45010  0.61860  0.43450  Biso   1.000  N
  N26      1.0000 0.04990  0.38140  0.93450  Biso   1.000  N
  N27      1.0000 0.54990  0.11860  0.56550  Biso   1.000  N
  N28      1.0000 0.95010  0.88140  0.06550  Biso   1.000  N
  N29      1.0000 0.54990  0.38140  0.56550  Biso   1.000  N
  N30      1.0000 0.95010  0.61860  0.06550  Biso   1.000  N
  N31      1.0000 0.45010  0.88140  0.43450  Biso   1.000  N
  N32      1.0000 0.04990  0.11860  0.93450  Biso   1.000  N
  H9       1.0000 0.51310  0.64240  0.45260  Biso   1.000  H
  H10      1.0000 0.98690  0.35760  0.95260  Biso   1.000  H
  H11      1.0000 0.48690  0.14240  0.54740  Biso   1.000  H
  H12      1.0000 0.01310  0.85760  0.04740  Biso   1.000  H
  H13      1.0000 0.48690  0.35760  0.54740  Biso   1.000  H
  H14      1.0000 0.01310  0.64240  0.04740  Biso   1.000  H
  H15      1.0000 0.51310  0.85760  0.45260  Biso   1.000  H
  H16      1.0000 0.98690  0.14240  0.95260  Biso   1.000  H
  C33      1.0000 0.28530  0.45840  0.33040  Biso   1.000  C
  C34      1.0000 0.21470  0.54160  0.83040  Biso   1.000  C
  C35      1.0000 0.71470  0.95840  0.66960  Biso   1.000  C
  C36      1.0000 0.78530  0.04160  0.16960  Biso   1.000  C
  C37      1.0000 0.71470  0.54160  0.66960  Biso   1.000  C
  C38      1.0000 0.78530  0.45840  0.16960  Biso   1.000  C
  C39      1.0000 0.28530  0.04160  0.33040  Biso   1.000  C
  C40      1.0000 0.21470  0.95840  0.83040  Biso   1.000  C
  C41      1.0000 0.13970  0.61050  0.40150  Biso   1.000  C
  C42      1.0000 0.36030  0.38950  0.90150  Biso   1.000  C
  C43      1.0000 0.86030  0.11050  0.59850  Biso   1.000  C
  C44      1.0000 0.63970  0.88950  0.09850  Biso   1.000  C
  C45      1.0000 0.86030  0.38950  0.59850  Biso   1.000  C
  C46      1.0000 0.63970  0.61050  0.09850  Biso   1.000  C
  C47      1.0000 0.13970  0.88950  0.40150  Biso   1.000  C
  C48      1.0000 0.36030  0.11050  0.90150  Biso   1.000  C
  H17      1.0000 0.10820  0.61730  0.46040  Biso   1.000  H
  H18      1.0000 0.39180  0.38270  0.96040  Biso   1.000  H
  H19      1.0000 0.89180  0.11730  0.53960  Biso   1.000  H
  H20      1.0000 0.60820  0.88270  0.03960  Biso   1.000  H
  H21      1.0000 0.89180  0.38270  0.53960  Biso   1.000  H
  H22      1.0000 0.60820  0.61730  0.03960  Biso   1.000  H
  H23      1.0000 0.10820  0.88270  0.46040  Biso   1.000  H
  H24      1.0000 0.39180  0.11730  0.96040  Biso   1.000  H
  H25      1.0000 0.10210  0.56550  0.37320  Biso   1.000  H
  H26      1.0000 0.39790  0.43450  0.87320  Biso   1.000  H
  H27      1.0000 0.89790  0.06550  0.62680  Biso   1.000  H
  H28      1.0000 0.60210  0.93450  0.12680  Biso   1.000  H
  H29      1.0000 0.89790  0.43450  0.62680  Biso   1.000  H
  H30      1.0000 0.60210  0.56550  0.12680  Biso   1.000  H
  H31      1.0000 0.10210  0.93450  0.37320  Biso   1.000  H
  H32      1.0000 0.39790  0.06550  0.87320  Biso   1.000  H
  H33      1.0000 0.12550  0.65820  0.36720  Biso   1.000  H
  H34      1.0000 0.37450  0.34180  0.86720  Biso   1.000  H
  H35      1.0000 0.87450  0.15820  0.63280  Biso   1.000  H
  H36      1.0000 0.62550  0.84180  0.13280  Biso   1.000  H
  H37      1.0000 0.87450  0.34180  0.63280  Biso   1.000  H
  H38      1.0000 0.62550  0.65820  0.13280  Biso   1.000  H
  H39      1.0000 0.12550  0.84180  0.36720  Biso   1.000  H
  H40      1.0000 0.37450  0.15820  0.86720  Biso   1.000  H
  C49      1.0000 0.26910  0.59560  0.40730  Biso   1.000  C
  C50      1.0000 0.23090  0.40440  0.90730  Biso   1.000  C
  C51      1.0000 0.73090  0.09560  0.59270  Biso   1.000  C
  C52      1.0000 0.76910  0.90440  0.09270  Biso   1.000  C
  C53      1.0000 0.73090  0.40440  0.59270  Biso   1.000  C
  C54      1.0000 0.76910  0.59560  0.09270  Biso   1.000  C
  C55      1.0000 0.26910  0.90440  0.40730  Biso   1.000  C
  C56      1.0000 0.23090  0.09560  0.90730  Biso   1.000  C
  C57      1.0000 0.55930  0.50220  0.37280  Biso   1.000  C
  C58      1.0000 0.94070  0.49780  0.87280  Biso   1.000  C
  C59      1.0000 0.44070  0.00220  0.62720  Biso   1.000  C
  C60      1.0000 0.05930  0.99780  0.12720  Biso   1.000  C
  C61      1.0000 0.44070  0.49780  0.62720  Biso   1.000  C
  C62      1.0000 0.05930  0.50220  0.12720  Biso   1.000  C
  C63      1.0000 0.55930  0.99780  0.37280  Biso   1.000  C
  C64      1.0000 0.94070  0.00220  0.87280  Biso   1.000  C
  H41      1.0000 0.54050  0.44710  0.36030  Biso   1.000  H
  H42      1.0000 0.95950  0.55290  0.86030  Biso   1.000  H
  H43      1.0000 0.45950  0.94710  0.63970  Biso   1.000  H
  H44      1.0000 0.04050  0.05290  0.13970  Biso   1.000  H
  H45      1.0000 0.45950  0.55290  0.63970  Biso   1.000  H
  H46      1.0000 0.04050  0.44710  0.13970  Biso   1.000  H
  H47      1.0000 0.54050  0.05290  0.36030  Biso   1.000  H
  H48      1.0000 0.95950  0.94710  0.86030  Biso   1.000  H
  H49      1.0000 0.61110  0.50490  0.42330  Biso   1.000  H
  H50      1.0000 0.88890  0.49510  0.92330  Biso   1.000  H
  H51      1.0000 0.38890  0.00490  0.57670  Biso   1.000  H
  H52      1.0000 0.11110  0.99510  0.07670  Biso   1.000  H
  H53      1.0000 0.38890  0.49510  0.57670  Biso   1.000  H
  H54      1.0000 0.11110  0.50490  0.07670  Biso   1.000  H
  H55      1.0000 0.61110  0.99510  0.42330  Biso   1.000  H
  H56      1.0000 0.88890  0.00490  0.92330  Biso   1.000  H
  H57      1.0000 0.59740  0.52560  0.32190  Biso   1.000  H
  H58      1.0000 0.90260  0.47440  0.82190  Biso   1.000  H
  H59      1.0000 0.40260  0.02560  0.67810  Biso   1.000  H
  H60      1.0000 0.09740  0.97440  0.17810  Biso   1.000  H
  H61      1.0000 0.40260  0.47440  0.67810  Biso   1.000  H
  H62      1.0000 0.09740  0.52560  0.17810  Biso   1.000  H
  H63      1.0000 0.59740  0.97440  0.32190  Biso   1.000  H
  H64      1.0000 0.90260  0.02560  0.82190  Biso   1.000  H
  C65      1.0000 0.38220  0.46350  0.17210  Biso   1.000  C
  C66      1.0000 0.11780  0.53650  0.67210  Biso   1.000  C
  C67      1.0000 0.61780  0.96350  0.82790  Biso   1.000  C
  C68      1.0000 0.88220  0.03650  0.32790  Biso   1.000  C
  C69      1.0000 0.61780  0.53650  0.82790  Biso   1.000  C
  C70      1.0000 0.88220  0.46350  0.32790  Biso   1.000  C
  C71      1.0000 0.38220  0.03650  0.17210  Biso   1.000  C
  C72      1.0000 0.11780  0.96350  0.67210  Biso   1.000  C
  H65      1.0000 0.45970  0.44080  0.17760  Biso   1.000  H
  H66      1.0000 0.04030  0.55920  0.67760  Biso   1.000  H
  H67      1.0000 0.54030  0.94080  0.82240  Biso   1.000  H
  H68      1.0000 0.95970  0.05920  0.32240  Biso   1.000  H
  H69      1.0000 0.54030  0.55920  0.82240  Biso   1.000  H
  H70      1.0000 0.95970  0.44080  0.32240  Biso   1.000  H
  H71      1.0000 0.45970  0.05920  0.17760  Biso   1.000  H
  H72      1.0000 0.04030  0.94080  0.67760  Biso   1.000  H
  H73      1.0000 0.38710  0.52090  0.17670  Biso   1.000  H
  H74      1.0000 0.11290  0.47910  0.67670  Biso   1.000  H
  H75      1.0000 0.61290  0.02090  0.82330  Biso   1.000  H
  H76      1.0000 0.88710  0.97910  0.32330  Biso   1.000  H
  H77      1.0000 0.61290  0.47910  0.82330  Biso   1.000  H
  H78      1.0000 0.88710  0.52090  0.32330  Biso   1.000  H
  H79      1.0000 0.38710  0.97910  0.17670  Biso   1.000  H
  H80      1.0000 0.11290  0.02090  0.67670  Biso   1.000  H
  H81      1.0000 0.34930  0.44920  0.11530  Biso   1.000  H
  H82      1.0000 0.15070  0.55080  0.61530  Biso   1.000  H
  H83      1.0000 0.65070  0.94920  0.88470  Biso   1.000  H
  H84      1.0000 0.84930  0.05080  0.38470  Biso   1.000  H
  H85      1.0000 0.65070  0.55080  0.88470  Biso   1.000  H
  H86      1.0000 0.84930  0.44920  0.38470  Biso   1.000  H
  H87      1.0000 0.34930  0.05080  0.11530  Biso   1.000  H
  H88      1.0000 0.15070  0.94920  0.61530  Biso   1.000  H
  C73      1.0000 0.15970  0.39740  0.46020  Biso   1.000  C
  C74      1.0000 0.34030  0.60260  0.96020  Biso   1.000  C
  C75      1.0000 0.84030  0.89740  0.53980  Biso   1.000  C
  C76      1.0000 0.65970  0.10260  0.03980  Biso   1.000  C
  C77      1.0000 0.84030  0.60260  0.53980  Biso   1.000  C
  C78      1.0000 0.65970  0.39740  0.03980  Biso   1.000  C
  C79      1.0000 0.15970  0.10260  0.46020  Biso   1.000  C
  C80      1.0000 0.34030  0.89740  0.96020  Biso   1.000  C
  H89      1.0000 0.12550  0.34540  0.46990  Biso   1.000  H
  H90      1.0000 0.37450  0.65460  0.96990  Biso   1.000  H
  H91      1.0000 0.87450  0.84540  0.53010  Biso   1.000  H
  H92      1.0000 0.62550  0.15460  0.03010  Biso   1.000  H
  H93      1.0000 0.87450  0.65460  0.53010  Biso   1.000  H
  H94      1.0000 0.62550  0.34540  0.03010  Biso   1.000  H
  H95      1.0000 0.12550  0.15460  0.46990  Biso   1.000  H
  H96      1.0000 0.37450  0.84540  0.96990  Biso   1.000  H
  H97      1.0000 0.10060  0.43800  0.46840  Biso   1.000  H
  H98      1.0000 0.39940  0.56200  0.96840  Biso   1.000  H
  H99      1.0000 0.89940  0.93800  0.53160  Biso   1.000  H
  H100     1.0000 0.60060  0.06200  0.03160  Biso   1.000  H
  H101     1.0000 0.89940  0.56200  0.53160  Biso   1.000  H
  H102     1.0000 0.60060  0.43800  0.03160  Biso   1.000  H
  H103     1.0000 0.10060  0.06200  0.46840  Biso   1.000  H
  H104     1.0000 0.39940  0.93800  0.96840  Biso   1.000  H
  H105     1.0000 0.22270  0.40580  0.50190  Biso   1.000  H
  H106     1.0000 0.27730  0.59420  0.00190  Biso   1.000  H
  H107     1.0000 0.77730  0.90580  0.49810  Biso   1.000  H
  H108     1.0000 0.72270  0.09420  0.99810  Biso   1.000  H
  H109     1.0000 0.77730  0.59420  0.49810  Biso   1.000  H
  H110     1.0000 0.72270  0.40580  0.99810  Biso   1.000  H
  H111     1.0000 0.22270  0.09420  0.50190  Biso   1.000  H
  H112     1.0000 0.27730  0.90580  0.00190  Biso   1.000  H
  N33      1.0000 0.33890  0.25000  0.08060  Biso   1.000  N
  N34      1.0000 0.16110  0.75000  0.58060  Biso   1.000  N
  N35      1.0000 0.66110  0.75000  0.91940  Biso   1.000  N
  N36      1.0000 0.83890  0.25000  0.41940  Biso   1.000  N
  C81      1.0000 0.42920  0.25000  0.11730  Biso   1.000  C
  C82      1.0000 0.07080  0.75000  0.61730  Biso   1.000  C
  C83      1.0000 0.57080  0.75000  0.88270  Biso   1.000  C
  C84      1.0000 0.92920  0.25000  0.38270  Biso   1.000  C
