data_image0
_cell_length_a       7.1644
_cell_length_b       12.7381
_cell_length_c       16.8628
_cell_angle_alpha    90
_cell_angle_beta     97.865
_cell_angle_gamma    90

_symmetry_space_group_name_H-M    "P 1"
_symmetry_int_tables_number       1

loop_
  _symmetry_equiv_pos_as_xyz
  'x, y, z'

loop_
  _atom_site_label
  _atom_site_occupancy
  _atom_site_fract_x
  _atom_site_fract_y
  _atom_site_fract_z
  _atom_site_thermal_displace_type
  _atom_site_B_iso_or_equiv
  _atom_site_type_symbol
  Cu1      1.0000 0.19143  0.56458  0.48850  Biso   1.000  Cu
  Cu2      1.0000 0.80857  0.06458  0.01150  Biso   1.000  Cu
  Cu3      1.0000 0.80857  0.43542  0.51150  Biso   1.000  Cu
  Cu4      1.0000 0.19143  0.93542  0.98850  Biso   1.000  Cu
  Cu5      1.0000 0.38125  0.19785  0.48256  Biso   1.000  Cu
  Cu6      1.0000 0.61875  0.69785  0.01744  Biso   1.000  Cu
  Cu7      1.0000 0.61875  0.80215  0.51744  Biso   1.000  Cu
  Cu8      1.0000 0.38125  0.30215  0.98256  Biso   1.000  Cu
  S1       1.0000 0.59674  0.14295  0.60746  Biso   1.000  S
  S2       1.0000 0.40326  0.64295  0.89254  Biso   1.000  S
  S3       1.0000 0.40326  0.85705  0.39254  Biso   1.000  S
  S4       1.0000 0.59674  0.35705  0.10746  Biso   1.000  S
  N1       1.0000 0.11410  0.63886  0.38167  Biso   1.000  N
  N2       1.0000 0.88590  0.13886  0.11833  Biso   1.000  N
  N3       1.0000 0.88590  0.36114  0.61833  Biso   1.000  N
  N4       1.0000 0.11410  0.86114  0.88167  Biso   1.000  N
  N5       1.0000 0.95220  0.69367  0.36261  Biso   1.000  N
  N6       1.0000 0.04780  0.19367  0.13739  Biso   1.000  N
  N7       1.0000 0.04780  0.30633  0.63739  Biso   1.000  N
  N8       1.0000 0.95220  0.80633  0.86261  Biso   1.000  N
  H1       1.0000 0.87260  0.70490  0.39550  Biso   1.000  H
  H2       1.0000 0.12740  0.20490  0.10450  Biso   1.000  H
  H3       1.0000 0.12740  0.29510  0.60450  Biso   1.000  H
  H4       1.0000 0.87260  0.79510  0.89550  Biso   1.000  H
  N9       1.0000 0.26110  0.42260  0.49192  Biso   1.000  N
  N10      1.0000 0.73890  0.92260  0.00808  Biso   1.000  N
  N11      1.0000 0.73890  0.57740  0.50808  Biso   1.000  N
  N12      1.0000 0.26110  0.07740  0.99192  Biso   1.000  N
  N13      1.0000 0.30400  0.33560  0.49143  Biso   1.000  N
  N14      1.0000 0.69600  0.83560  0.00857  Biso   1.000  N
  N15      1.0000 0.69600  0.66440  0.50857  Biso   1.000  N
  N16      1.0000 0.30400  0.16440  0.99143  Biso   1.000  N
  C1       1.0000 0.38290  0.58900  0.31370  Biso   1.000  C
  C2       1.0000 0.61710  0.08900  0.18630  Biso   1.000  C
  C3       1.0000 0.61710  0.41100  0.68630  Biso   1.000  C
  C4       1.0000 0.38290  0.91100  0.81370  Biso   1.000  C
  H5       1.0000 0.47920  0.62710  0.34700  Biso   1.000  H
  H6       1.0000 0.52080  0.12710  0.15300  Biso   1.000  H
  H7       1.0000 0.52080  0.37290  0.65300  Biso   1.000  H
  H8       1.0000 0.47920  0.87290  0.84700  Biso   1.000  H
  H9       1.0000 0.41120  0.58770  0.25970  Biso   1.000  H
  H10      1.0000 0.58880  0.08770  0.24030  Biso   1.000  H
  H11      1.0000 0.58880  0.41230  0.74030  Biso   1.000  H
  H12      1.0000 0.41120  0.91230  0.75970  Biso   1.000  H
  H13      1.0000 0.37760  0.51840  0.33330  Biso   1.000  H
  H14      1.0000 0.62240  0.01840  0.16670  Biso   1.000  H
  H15      1.0000 0.62240  0.48160  0.66670  Biso   1.000  H
  H16      1.0000 0.37760  0.98160  0.83330  Biso   1.000  H
  C5       1.0000 0.19780  0.64100  0.31565  Biso   1.000  C
  C6       1.0000 0.80220  0.14100  0.18435  Biso   1.000  C
  C7       1.0000 0.80220  0.35900  0.68435  Biso   1.000  C
  C8       1.0000 0.19780  0.85900  0.81565  Biso   1.000  C
  C9       1.0000 0.08740  0.69680  0.25434  Biso   1.000  C
  C10      1.0000 0.91260  0.19680  0.24566  Biso   1.000  C
  C11      1.0000 0.91260  0.30320  0.74566  Biso   1.000  C
  C12      1.0000 0.08740  0.80320  0.75434  Biso   1.000  C
  C13      1.0000 0.92970  0.72860  0.28674  Biso   1.000  C
  C14      1.0000 0.07030  0.22860  0.21326  Biso   1.000  C
  C15      1.0000 0.07030  0.27140  0.71326  Biso   1.000  C
  C16      1.0000 0.92970  0.77140  0.78674  Biso   1.000  C
  C17      1.0000 0.75930  0.78640  0.24940  Biso   1.000  C
  C18      1.0000 0.24070  0.28640  0.25060  Biso   1.000  C
  C19      1.0000 0.24070  0.21360  0.75060  Biso   1.000  C
  C20      1.0000 0.75930  0.71360  0.74940  Biso   1.000  C
  H17      1.0000 0.65490  0.73860  0.23970  Biso   1.000  H
  H18      1.0000 0.34510  0.23860  0.26030  Biso   1.000  H
  H19      1.0000 0.34510  0.26140  0.76030  Biso   1.000  H
  H20      1.0000 0.65490  0.76140  0.73970  Biso   1.000  H
  H21      1.0000 0.78330  0.81660  0.19970  Biso   1.000  H
  H22      1.0000 0.21670  0.31660  0.30030  Biso   1.000  H
  H23      1.0000 0.21670  0.18340  0.80030  Biso   1.000  H
  H24      1.0000 0.78330  0.68340  0.69970  Biso   1.000  H
  H25      1.0000 0.72970  0.84100  0.28480  Biso   1.000  H
  H26      1.0000 0.27030  0.34100  0.21520  Biso   1.000  H
  H27      1.0000 0.27030  0.15900  0.71520  Biso   1.000  H
  H28      1.0000 0.72970  0.65900  0.78480  Biso   1.000  H
  C21      1.0000 0.13030  0.72420  0.17400  Biso   1.000  C
  C22      1.0000 0.86970  0.22420  0.32600  Biso   1.000  C
  C23      1.0000 0.86970  0.27580  0.82600  Biso   1.000  C
  C24      1.0000 0.13030  0.77580  0.67400  Biso   1.000  C
  C25      1.0000 0.61280  0.01690  0.58884  Biso   1.000  C
  C26      1.0000 0.38720  0.51690  0.91116  Biso   1.000  C
  C27      1.0000 0.38720  0.98310  0.41116  Biso   1.000  C
  C28      1.0000 0.61280  0.48310  0.08884  Biso   1.000  C
  N17      1.0000 0.17510  0.71734  0.04850  Biso   1.000  N
  N18      1.0000 0.82490  0.21734  0.45150  Biso   1.000  N
  N19      1.0000 0.82490  0.28266  0.95150  Biso   1.000  N
  N20      1.0000 0.17510  0.78266  0.54850  Biso   1.000  N
  H29      1.0000 0.18730  0.69320  0.00190  Biso   1.000  H
  H30      1.0000 0.81270  0.19320  0.49810  Biso   1.000  H
  H31      1.0000 0.81270  0.30680  0.99810  Biso   1.000  H
  H32      1.0000 0.18730  0.80680  0.50190  Biso   1.000  H
  C29      1.0000 0.15820  0.82530  0.14470  Biso   1.000  C
  C30      1.0000 0.84180  0.32530  0.35530  Biso   1.000  C
  C31      1.0000 0.84180  0.17470  0.85530  Biso   1.000  C
  C32      1.0000 0.15820  0.67470  0.64470  Biso   1.000  C
  C33      1.0000 0.14340  0.65710  0.11092  Biso   1.000  C
  C34      1.0000 0.85660  0.15710  0.38908  Biso   1.000  C
  C35      1.0000 0.85660  0.34290  0.88908  Biso   1.000  C
  C36      1.0000 0.14340  0.84290  0.61092  Biso   1.000  C
  C37      1.0000 0.12960  0.54050  0.10553  Biso   1.000  C
  C38      1.0000 0.87040  0.04050  0.39447  Biso   1.000  C
  C39      1.0000 0.87040  0.45950  0.89447  Biso   1.000  C
  C40      1.0000 0.12960  0.95950  0.60553  Biso   1.000  C
  H33      1.0000 0.20490  0.50970  0.15110  Biso   1.000  H
  H34      1.0000 0.79510  0.00970  0.34890  Biso   1.000  H
  H35      1.0000 0.79510  0.49030  0.84890  Biso   1.000  H
  H36      1.0000 0.20490  0.99030  0.65110  Biso   1.000  H
  H37      1.0000 0.17440  0.51720  0.05740  Biso   1.000  H
  H38      1.0000 0.82560  0.01720  0.44260  Biso   1.000  H
  H39      1.0000 0.82560  0.48280  0.94260  Biso   1.000  H
  H40      1.0000 0.17440  0.98280  0.55740  Biso   1.000  H
  H41      1.0000 0.00060  0.51960  0.10460  Biso   1.000  H
  H42      1.0000 0.99940  0.01960  0.39540  Biso   1.000  H
  H43      1.0000 0.99940  0.48040  0.89540  Biso   1.000  H
  H44      1.0000 0.00060  0.98040  0.60460  Biso   1.000  H
  C41      1.0000 0.16030  0.92760  0.18769  Biso   1.000  C
  C42      1.0000 0.83970  0.42760  0.31231  Biso   1.000  C
  C43      1.0000 0.83970  0.07240  0.81231  Biso   1.000  C
  C44      1.0000 0.16030  0.57240  0.68769  Biso   1.000  C
  H45      1.0000 0.03820  0.95980  0.17700  Biso   1.000  H
  H46      1.0000 0.96180  0.45980  0.32300  Biso   1.000  H
  H47      1.0000 0.96180  0.04020  0.82300  Biso   1.000  H
  H48      1.0000 0.03820  0.54020  0.67700  Biso   1.000  H
  H49      1.0000 0.25270  0.97300  0.16960  Biso   1.000  H
  H50      1.0000 0.74730  0.47300  0.33040  Biso   1.000  H
  H51      1.0000 0.74730  0.02700  0.83040  Biso   1.000  H
  H52      1.0000 0.25270  0.52700  0.66960  Biso   1.000  H
  H53      1.0000 0.19120  0.91600  0.24420  Biso   1.000  H
  H54      1.0000 0.80880  0.41600  0.25580  Biso   1.000  H
  H55      1.0000 0.80880  0.08400  0.75580  Biso   1.000  H
  H56      1.0000 0.19120  0.58400  0.74420  Biso   1.000  H
  N21      1.0000 0.18560  0.82123  0.06807  Biso   1.000  N
  N22      1.0000 0.81440  0.32123  0.43193  Biso   1.000  N
  N23      1.0000 0.81440  0.17877  0.93193  Biso   1.000  N
  N24      1.0000 0.18560  0.67877  0.56807  Biso   1.000  N
  N25      1.0000 0.62480  0.92920  0.57474  Biso   1.000  N
  N26      1.0000 0.37520  0.42920  0.92526  Biso   1.000  N
  N27      1.0000 0.37520  0.07080  0.42526  Biso   1.000  N
  N28      1.0000 0.62480  0.57080  0.07474  Biso   1.000  N
