data_image0
_cell_length_a       9.27184
_cell_length_b       11.538
_cell_length_c       12.9
_cell_angle_alpha    90
_cell_angle_beta     90
_cell_angle_gamma    90

_symmetry_space_group_name_H-M    "P 1"
_symmetry_int_tables_number       1

loop_
  _symmetry_equiv_pos_as_xyz
  'x, y, z'

loop_
  _atom_site_label
  _atom_site_occupancy
  _atom_site_fract_x
  _atom_site_fract_y
  _atom_site_fract_z
  _atom_site_thermal_displace_type
  _atom_site_B_iso_or_equiv
  _atom_site_type_symbol
  Cu1      1.0000 0.75926  0.16600  0.50154  Biso   1.000  Cu
  Cu2      1.0000 0.25926  0.83400  0.99846  Biso   1.000  Cu
  Cu3      1.0000 0.24074  0.33400  0.00154  Biso   1.000  Cu
  Cu4      1.0000 0.74074  0.66600  0.49846  Biso   1.000  Cu
  Cu5      1.0000 0.24074  0.83400  0.49846  Biso   1.000  Cu
  Cu6      1.0000 0.74074  0.16600  0.00154  Biso   1.000  Cu
  Cu7      1.0000 0.75926  0.66600  0.99846  Biso   1.000  Cu
  Cu8      1.0000 0.25926  0.33400  0.50154  Biso   1.000  Cu
  N1       1.0000 0.79534  0.31635  0.46605  Biso   1.000  N
  N2       1.0000 0.29534  0.68365  0.03395  Biso   1.000  N
  N3       1.0000 0.20466  0.18365  0.96605  Biso   1.000  N
  N4       1.0000 0.70466  0.81635  0.53395  Biso   1.000  N
  N5       1.0000 0.20466  0.68365  0.53395  Biso   1.000  N
  N6       1.0000 0.70466  0.31635  0.96605  Biso   1.000  N
  N7       1.0000 0.79534  0.81635  0.03395  Biso   1.000  N
  N8       1.0000 0.29534  0.18365  0.46605  Biso   1.000  N
  C1       1.0000 0.73571  0.41299  0.50041  Biso   1.000  C
  C2       1.0000 0.23571  0.58701  0.99959  Biso   1.000  C
  C3       1.0000 0.26429  0.08701  0.00041  Biso   1.000  C
  C4       1.0000 0.76429  0.91299  0.49959  Biso   1.000  C
  C5       1.0000 0.26429  0.58701  0.49959  Biso   1.000  C
  C6       1.0000 0.76429  0.41299  0.00041  Biso   1.000  C
  C7       1.0000 0.73571  0.91299  0.99959  Biso   1.000  C
  C8       1.0000 0.23571  0.08701  0.50041  Biso   1.000  C
  N9       1.0000 0.79440  0.50995  0.45940  Biso   1.000  N
  N10      1.0000 0.29440  0.49005  0.04060  Biso   1.000  N
  N11      1.0000 0.20560  0.99005  0.95940  Biso   1.000  N
  N12      1.0000 0.70560  0.00995  0.54060  Biso   1.000  N
  N13      1.0000 0.20560  0.49005  0.54060  Biso   1.000  N
  N14      1.0000 0.70560  0.50995  0.95940  Biso   1.000  N
  N15      1.0000 0.79440  0.00995  0.04060  Biso   1.000  N
  N16      1.0000 0.29440  0.99005  0.45940  Biso   1.000  N
  C9       1.0000 0.90140  0.47483  0.39163  Biso   1.000  C
  C10      1.0000 0.40140  0.52517  0.10837  Biso   1.000  C
  C11      1.0000 0.09860  0.02517  0.89163  Biso   1.000  C
  C12      1.0000 0.59860  0.97483  0.60837  Biso   1.000  C
  C13      1.0000 0.09860  0.52517  0.60837  Biso   1.000  C
  C14      1.0000 0.59860  0.47483  0.89163  Biso   1.000  C
  C15      1.0000 0.90140  0.97483  0.10837  Biso   1.000  C
  C16      1.0000 0.40140  0.02517  0.39163  Biso   1.000  C
  C17      1.0000 0.99517  0.53591  0.32969  Biso   1.000  C
  C18      1.0000 0.49517  0.46409  0.17031  Biso   1.000  C
  C19      1.0000 0.00483  0.96409  0.82969  Biso   1.000  C
  C20      1.0000 0.50483  0.03591  0.67031  Biso   1.000  C
  C21      1.0000 0.00483  0.46409  0.67031  Biso   1.000  C
  C22      1.0000 0.50483  0.53591  0.82969  Biso   1.000  C
  C23      1.0000 0.99517  0.03591  0.17031  Biso   1.000  C
  C24      1.0000 0.49517  0.96409  0.32969  Biso   1.000  C
  H1       1.0000 0.99213  0.62123  0.32812  Biso   1.000  H
  H2       1.0000 0.49213  0.37877  0.17188  Biso   1.000  H
  H3       1.0000 0.00787  0.87877  0.82812  Biso   1.000  H
  H4       1.0000 0.50787  0.12123  0.67188  Biso   1.000  H
  H5       1.0000 0.00787  0.37877  0.67188  Biso   1.000  H
  H6       1.0000 0.50787  0.62123  0.82812  Biso   1.000  H
  H7       1.0000 0.99213  0.12123  0.17188  Biso   1.000  H
  H8       1.0000 0.49213  0.87877  0.32812  Biso   1.000  H
  C25      1.0000 0.09101  0.47149  0.27117  Biso   1.000  C
  C26      1.0000 0.59101  0.52851  0.22883  Biso   1.000  C
  C27      1.0000 0.90899  0.02851  0.77117  Biso   1.000  C
  C28      1.0000 0.40899  0.97149  0.72883  Biso   1.000  C
  C29      1.0000 0.90899  0.52851  0.72883  Biso   1.000  C
  C30      1.0000 0.40899  0.47149  0.77117  Biso   1.000  C
  C31      1.0000 0.09101  0.97149  0.22883  Biso   1.000  C
  C32      1.0000 0.59101  0.02851  0.27117  Biso   1.000  C
  H9       1.0000 0.16032  0.51017  0.22616  Biso   1.000  H
  H10      1.0000 0.66032  0.48983  0.27384  Biso   1.000  H
  H11      1.0000 0.83968  0.98983  0.72616  Biso   1.000  H
  H12      1.0000 0.33968  0.01017  0.77384  Biso   1.000  H
  H13      1.0000 0.83968  0.48983  0.77384  Biso   1.000  H
  H14      1.0000 0.33968  0.51017  0.72616  Biso   1.000  H
  H15      1.0000 0.16032  0.01017  0.27384  Biso   1.000  H
  H16      1.0000 0.66032  0.98983  0.22616  Biso   1.000  H
  C33      1.0000 0.09190  0.35141  0.27493  Biso   1.000  C
  C34      1.0000 0.59190  0.64859  0.22507  Biso   1.000  C
  C35      1.0000 0.90810  0.14859  0.77493  Biso   1.000  C
  C36      1.0000 0.40810  0.85141  0.72507  Biso   1.000  C
  C37      1.0000 0.90810  0.64859  0.72507  Biso   1.000  C
  C38      1.0000 0.40810  0.35141  0.77493  Biso   1.000  C
  C39      1.0000 0.09190  0.85141  0.22507  Biso   1.000  C
  C40      1.0000 0.59190  0.14859  0.27493  Biso   1.000  C
  H17      1.0000 0.15871  0.30621  0.23295  Biso   1.000  H
  H18      1.0000 0.65871  0.69379  0.26705  Biso   1.000  H
  H19      1.0000 0.84129  0.19379  0.73295  Biso   1.000  H
  H20      1.0000 0.34129  0.80621  0.76705  Biso   1.000  H
  H21      1.0000 0.84129  0.69379  0.76705  Biso   1.000  H
  H22      1.0000 0.34129  0.30621  0.73295  Biso   1.000  H
  H23      1.0000 0.15871  0.80621  0.26705  Biso   1.000  H
  H24      1.0000 0.65871  0.19379  0.23295  Biso   1.000  H
  H25      1.0000 0.99752  0.20807  0.33997  Biso   1.000  H
  H26      1.0000 0.49752  0.79193  0.16003  Biso   1.000  H
  H27      1.0000 0.00248  0.29193  0.83997  Biso   1.000  H
  H28      1.0000 0.50248  0.70807  0.66003  Biso   1.000  H
  H29      1.0000 0.00248  0.79193  0.66003  Biso   1.000  H
  H30      1.0000 0.50248  0.20807  0.83997  Biso   1.000  H
  H31      1.0000 0.99752  0.70807  0.16003  Biso   1.000  H
  H32      1.0000 0.49752  0.29193  0.33997  Biso   1.000  H
  C41      1.0000 0.99763  0.29077  0.33705  Biso   1.000  C
  C42      1.0000 0.49763  0.70923  0.16295  Biso   1.000  C
  C43      1.0000 0.00237  0.20923  0.83705  Biso   1.000  C
  C44      1.0000 0.50237  0.79077  0.66295  Biso   1.000  C
  C45      1.0000 0.00237  0.70923  0.66295  Biso   1.000  C
  C46      1.0000 0.50237  0.29077  0.83705  Biso   1.000  C
  C47      1.0000 0.99763  0.79077  0.16295  Biso   1.000  C
  C48      1.0000 0.49763  0.20923  0.33705  Biso   1.000  C
  C49      1.0000 0.90067  0.35424  0.39617  Biso   1.000  C
  C50      1.0000 0.40067  0.64576  0.10383  Biso   1.000  C
  C51      1.0000 0.09933  0.14576  0.89617  Biso   1.000  C
  C52      1.0000 0.59933  0.85424  0.60383  Biso   1.000  C
  C53      1.0000 0.09933  0.64576  0.60383  Biso   1.000  C
  C54      1.0000 0.59933  0.35424  0.89617  Biso   1.000  C
  C55      1.0000 0.90067  0.85424  0.10383  Biso   1.000  C
  C56      1.0000 0.40067  0.14576  0.39617  Biso   1.000  C
  N17      1.0000 0.62225  0.41760  0.56571  Biso   1.000  N
  N18      1.0000 0.12225  0.58240  0.93429  Biso   1.000  N
  N19      1.0000 0.37775  0.08240  0.06571  Biso   1.000  N
  N20      1.0000 0.87775  0.91760  0.43429  Biso   1.000  N
  N21      1.0000 0.37775  0.58240  0.43429  Biso   1.000  N
  N22      1.0000 0.87775  0.41760  0.06571  Biso   1.000  N
  N23      1.0000 0.62225  0.91760  0.93429  Biso   1.000  N
  N24      1.0000 0.12225  0.08240  0.56571  Biso   1.000  N
  H33      1.0000 0.58681  0.34725  0.59934  Biso   1.000  H
  H34      1.0000 0.08681  0.65275  0.90066  Biso   1.000  H
  H35      1.0000 0.41319  0.15275  0.09934  Biso   1.000  H
  H36      1.0000 0.91319  0.84725  0.40066  Biso   1.000  H
  H37      1.0000 0.41319  0.65275  0.40066  Biso   1.000  H
  H38      1.0000 0.91319  0.34725  0.09934  Biso   1.000  H
  H39      1.0000 0.58681  0.84725  0.90066  Biso   1.000  H
  H40      1.0000 0.08681  0.15275  0.59934  Biso   1.000  H
  H41      1.0000 0.60976  0.47948  0.59873  Biso   1.000  H
  H42      1.0000 0.10976  0.52052  0.90127  Biso   1.000  H
  H43      1.0000 0.39024  0.02052  0.09873  Biso   1.000  H
  H44      1.0000 0.89024  0.97948  0.40127  Biso   1.000  H
  H45      1.0000 0.39024  0.52052  0.40127  Biso   1.000  H
  H46      1.0000 0.89024  0.47948  0.09873  Biso   1.000  H
  H47      1.0000 0.60976  0.97948  0.90127  Biso   1.000  H
  H48      1.0000 0.10976  0.02052  0.59873  Biso   1.000  H
