data_image0
_cell_length_a       15.083
_cell_length_b       20.531
_cell_length_c       3.6656
_cell_angle_alpha    90
_cell_angle_beta     90
_cell_angle_gamma    90

_symmetry_space_group_name_H-M    "P 1"
_symmetry_int_tables_number       1

loop_
  _symmetry_equiv_pos_as_xyz
  'x, y, z'

loop_
  _atom_site_label
  _atom_site_occupancy
  _atom_site_fract_x
  _atom_site_fract_y
  _atom_site_fract_z
  _atom_site_thermal_displace_type
  _atom_site_B_iso_or_equiv
  _atom_site_type_symbol
  Cu1      1.0000 0.62178  0.50000  0.50000  Biso   1.000  Cu
  Cu2      1.0000 0.37822  0.50000  0.50000  Biso   1.000  Cu
  Cu3      1.0000 0.12178  0.00000  0.50000  Biso   1.000  Cu
  Cu4      1.0000 0.87822  0.00000  0.50000  Biso   1.000  Cu
  Cl1      1.0000 0.50000  0.50000  0.00000  Biso   1.000  Cl
  Cl2      1.0000 0.00000  0.00000  0.00000  Biso   1.000  Cl
  N1       1.0000 0.66910  0.58890  0.46580  Biso   1.000  N
  N2       1.0000 0.33090  0.41110  0.46580  Biso   1.000  N
  N3       1.0000 0.33090  0.58890  0.53420  Biso   1.000  N
  N4       1.0000 0.66910  0.41110  0.53420  Biso   1.000  N
  N5       1.0000 0.16910  0.08890  0.46580  Biso   1.000  N
  N6       1.0000 0.83090  0.91110  0.46580  Biso   1.000  N
  N7       1.0000 0.83090  0.08890  0.53420  Biso   1.000  N
  N8       1.0000 0.16910  0.91110  0.53420  Biso   1.000  N
  C1       1.0000 0.61830  0.63840  0.35740  Biso   1.000  C
  C2       1.0000 0.38170  0.36160  0.35740  Biso   1.000  C
  C3       1.0000 0.38170  0.63840  0.64260  Biso   1.000  C
  C4       1.0000 0.61830  0.36160  0.64260  Biso   1.000  C
  C5       1.0000 0.11830  0.13840  0.35740  Biso   1.000  C
  C6       1.0000 0.88170  0.86160  0.35740  Biso   1.000  C
  C7       1.0000 0.88170  0.13840  0.64260  Biso   1.000  C
  C8       1.0000 0.11830  0.86160  0.64260  Biso   1.000  C
  H1       1.0000 0.56040  0.62950  0.28570  Biso   1.000  H
  H2       1.0000 0.43960  0.37050  0.28570  Biso   1.000  H
  H3       1.0000 0.43960  0.62950  0.71430  Biso   1.000  H
  H4       1.0000 0.56040  0.37050  0.71430  Biso   1.000  H
  H5       1.0000 0.06040  0.12950  0.28570  Biso   1.000  H
  H6       1.0000 0.93960  0.87050  0.28570  Biso   1.000  H
  H7       1.0000 0.93960  0.12950  0.71430  Biso   1.000  H
  H8       1.0000 0.06040  0.87050  0.71430  Biso   1.000  H
  C9       1.0000 0.64710  0.70150  0.34630  Biso   1.000  C
  C10      1.0000 0.35290  0.29850  0.34630  Biso   1.000  C
  C11      1.0000 0.35290  0.70150  0.65370  Biso   1.000  C
  C12      1.0000 0.64710  0.29850  0.65370  Biso   1.000  C
  C13      1.0000 0.14710  0.20150  0.34630  Biso   1.000  C
  C14      1.0000 0.85290  0.79850  0.34630  Biso   1.000  C
  C15      1.0000 0.85290  0.20150  0.65370  Biso   1.000  C
  C16      1.0000 0.14710  0.79850  0.65370  Biso   1.000  C
  H9       1.0000 0.60950  0.73430  0.26490  Biso   1.000  H
  H10      1.0000 0.39050  0.26570  0.26490  Biso   1.000  H
  H11      1.0000 0.39050  0.73430  0.73510  Biso   1.000  H
  H12      1.0000 0.60950  0.26570  0.73510  Biso   1.000  H
  H13      1.0000 0.10950  0.23430  0.26490  Biso   1.000  H
  H14      1.0000 0.89050  0.76570  0.26490  Biso   1.000  H
  H15      1.0000 0.89050  0.23430  0.73510  Biso   1.000  H
  H16      1.0000 0.10950  0.76570  0.73510  Biso   1.000  H
  C17      1.0000 0.73190  0.71630  0.45600  Biso   1.000  C
  C18      1.0000 0.26810  0.28370  0.45600  Biso   1.000  C
  C19      1.0000 0.26810  0.71630  0.54400  Biso   1.000  C
  C20      1.0000 0.73190  0.28370  0.54400  Biso   1.000  C
  C21      1.0000 0.23190  0.21630  0.45600  Biso   1.000  C
  C22      1.0000 0.76810  0.78370  0.45600  Biso   1.000  C
  C23      1.0000 0.76810  0.21630  0.54400  Biso   1.000  C
  C24      1.0000 0.23190  0.78370  0.54400  Biso   1.000  C
  C25      1.0000 0.78590  0.66400  0.56790  Biso   1.000  C
  C26      1.0000 0.21410  0.33600  0.56790  Biso   1.000  C
  C27      1.0000 0.21410  0.66400  0.43210  Biso   1.000  C
  C28      1.0000 0.78590  0.33600  0.43210  Biso   1.000  C
  C29      1.0000 0.28590  0.16400  0.56790  Biso   1.000  C
  C30      1.0000 0.71410  0.83600  0.56790  Biso   1.000  C
  C31      1.0000 0.71410  0.16400  0.43210  Biso   1.000  C
  C32      1.0000 0.28590  0.83600  0.43210  Biso   1.000  C
  H17      1.0000 0.84450  0.67130  0.63650  Biso   1.000  H
  H18      1.0000 0.15550  0.32870  0.63650  Biso   1.000  H
  H19      1.0000 0.15550  0.67130  0.36350  Biso   1.000  H
  H20      1.0000 0.84450  0.32870  0.36350  Biso   1.000  H
  H21      1.0000 0.34450  0.17130  0.63650  Biso   1.000  H
  H22      1.0000 0.65550  0.82870  0.63650  Biso   1.000  H
  H23      1.0000 0.65550  0.17130  0.36350  Biso   1.000  H
  H24      1.0000 0.34450  0.82870  0.36350  Biso   1.000  H
  C33      1.0000 0.75120  0.60240  0.57450  Biso   1.000  C
  C34      1.0000 0.24880  0.39760  0.57450  Biso   1.000  C
  C35      1.0000 0.24880  0.60240  0.42550  Biso   1.000  C
  C36      1.0000 0.75120  0.39760  0.42550  Biso   1.000  C
  C37      1.0000 0.25120  0.10240  0.57450  Biso   1.000  C
  C38      1.0000 0.74880  0.89760  0.57450  Biso   1.000  C
  C39      1.0000 0.74880  0.10240  0.42550  Biso   1.000  C
  C40      1.0000 0.25120  0.89760  0.42550  Biso   1.000  C
  H25      1.0000 0.78650  0.56840  0.65870  Biso   1.000  H
  H26      1.0000 0.21350  0.43160  0.65870  Biso   1.000  H
  H27      1.0000 0.21350  0.56840  0.34130  Biso   1.000  H
  H28      1.0000 0.78650  0.43160  0.34130  Biso   1.000  H
  H29      1.0000 0.28650  0.06840  0.65870  Biso   1.000  H
  H30      1.0000 0.71350  0.93160  0.65870  Biso   1.000  H
  H31      1.0000 0.71350  0.06840  0.34130  Biso   1.000  H
  H32      1.0000 0.28650  0.93160  0.34130  Biso   1.000  H
  N9       1.0000 0.00000  0.61740  0.00000  Biso   1.000  N
  N10      1.0000 0.00000  0.38260  0.00000  Biso   1.000  N
  N11      1.0000 0.50000  0.11740  0.00000  Biso   1.000  N
  N12      1.0000 0.50000  0.88260  0.00000  Biso   1.000  N
  O1       1.0000 0.00000  0.58290  0.32200  Biso   1.000  O
  O2       1.0000 0.00000  0.41710  0.32200  Biso   1.000  O
  O3       1.0000 0.00000  0.58290  0.67800  Biso   1.000  O
  O4       1.0000 0.00000  0.41710  0.67800  Biso   1.000  O
  O5       1.0000 0.50000  0.08290  0.32200  Biso   1.000  O
  O6       1.0000 0.50000  0.91710  0.32200  Biso   1.000  O
  O7       1.0000 0.50000  0.08290  0.67800  Biso   1.000  O
  O8       1.0000 0.50000  0.91710  0.67800  Biso   1.000  O
  O9       1.0000 0.00000  0.68310  0.00000  Biso   1.000  O
  O10      1.0000 0.00000  0.31690  0.00000  Biso   1.000  O
  O11      1.0000 0.50000  0.18310  0.00000  Biso   1.000  O
  O12      1.0000 0.50000  0.81690  0.00000  Biso   1.000  O
