data_image0
_cell_length_a       8.922
_cell_length_b       9.095
_cell_length_c       9.656
_cell_angle_alpha    110.318
_cell_angle_beta     97.529
_cell_angle_gamma    105.768

_symmetry_space_group_name_H-M    "P 1"
_symmetry_int_tables_number       1

loop_
  _symmetry_equiv_pos_as_xyz
  'x, y, z'

loop_
  _atom_site_label
  _atom_site_occupancy
  _atom_site_fract_x
  _atom_site_fract_y
  _atom_site_fract_z
  _atom_site_thermal_displace_type
  _atom_site_B_iso_or_equiv
  _atom_site_type_symbol
  Cu1      1.0000 0.17701  0.63368  0.30057  Biso   1.000  Cu
  Cu2      1.0000 0.59495  0.52975  0.92846  Biso   1.000  Cu
  O1       1.0000 0.49060  0.43810  0.06670  Biso   1.000  O
  O2       1.0000 0.44180  0.69590  0.00250  Biso   1.000  O
  O3       1.0000 0.28190  0.72250  0.16680  Biso   1.000  O
  C1       1.0000 0.33000  0.78220  0.62130  Biso   1.000  C
  C2       1.0000 0.37060  0.65920  0.09750  Biso   1.000  C
  N1       1.0000 0.42980  0.36270  0.73790  Biso   1.000  N
  N2       1.0000 0.09700  0.54930  0.45550  Biso   1.000  N
  C3       1.0000 0.44240  0.87990  0.75870  Biso   1.000  C
  H1       1.0000 0.42770  0.85390  0.84260  Biso   1.000  H
  C4       1.0000 0.14500  0.59470  0.70990  Biso   1.000  C
  H2       1.0000 0.20120  0.65270  0.81660  Biso   1.000  H
  N3       1.0000 0.34580  0.80420  0.49180  Biso   1.000  N
  C5       1.0000 0.00870  0.45700  0.67240  Biso   1.000  C
  H3       1.0000 0.98100  0.42160  0.75970  Biso   1.000  H
  C6       1.0000 0.39910  0.51270  0.13390  Biso   1.000  C
  C7       1.0000 0.18380  0.63200  0.59290  Biso   1.000  C
  O4       1.0000 0.76400  0.70460  0.10880  Biso   1.000  O
  O5       1.0000 0.33860  0.47320  0.22560  Biso   1.000  O
  C8       1.0000 0.46870  0.92830  0.49980  Biso   1.000  C
  H4       1.0000 0.47070  0.93520  0.40980  Biso   1.000  H
  C9       1.0000 0.96330  0.41370  0.41130  Biso   1.000  C
  H5       1.0000 0.89880  0.35070  0.30110  Biso   1.000  H
  C10      1.0000 0.58490  0.03670  0.63530  Biso   1.000  C
  H6       1.0000 0.67360  0.12750  0.62990  Biso   1.000  H
  O6       1.0000 0.78700  0.40590  0.94530  Biso   1.000  O
  C11      1.0000 0.88260  0.67160  0.16110  Biso   1.000  C
  C12      1.0000 0.89010  0.49610  0.06630  Biso   1.000  C
  C13      1.0000 0.56910  0.01050  0.76020  Biso   1.000  C
  H7       1.0000 0.65420  0.08970  0.87170  Biso   1.000  H
  C14      1.0000 0.86290  0.80510  0.70150  Biso   1.000  C
  H8       1.0000 0.95890  0.89710  0.73580  Biso   1.000  H
  C15      1.0000 0.92280  0.37540  0.53240  Biso   1.000  C
  H9       1.0000 0.81070  0.25800  0.49050  Biso   1.000  H
  C16      1.0000 0.58880  0.52620  0.63150  Biso   1.000  C
  C17      1.0000 0.77100  0.71320  0.54820  Biso   1.000  C
  H10      1.0000 0.79100  0.74560  0.46820  Biso   1.000  H
  N4       1.0000 0.67800  0.61350  0.78420  Biso   1.000  N
  C18      1.0000 0.63160  0.57390  0.51250  Biso   1.000  C
  H11      1.0000 0.56490  0.51440  0.40770  Biso   1.000  H
  C19      1.0000 0.80910  0.74200  0.80290  Biso   1.000  C
  H12      1.0000 0.88150  0.80760  0.92190  Biso   1.000  H
  C20      1.0000 0.44750  0.39020  0.61290  Biso   1.000  C
  C21      1.0000 0.34260  0.28660  0.47180  Biso   1.000  C
  H13      1.0000 0.34690  0.31200  0.38220  Biso   1.000  H
  C22      1.0000 0.30050  0.23250  0.72790  Biso   1.000  C
  H14      1.0000 0.29100  0.22060  0.82510  Biso   1.000  H
  C23      1.0000 0.19400  0.12960  0.59260  Biso   1.000  C
  H15      1.0000 0.09760  0.03390  0.58860  Biso   1.000  H
  C24      1.0000 0.20900  0.15410  0.45540  Biso   1.000  C
  H16      1.0000 0.12510  0.08140  0.36130  Biso   1.000  H
  O7       1.0000 0.98940  0.76250  0.27830  Biso   1.000  O
  O8       1.0000 0.00250  0.45750  0.12280  Biso   1.000  O
  O9       1.0000 0.22310  0.96760  0.06090  Biso   1.000  O
  O10      1.0000 0.53800  0.18880  0.17060  Biso   1.000  O
  H17      1.0000 0.55710  0.29150  0.13850  Biso   1.000  H
  O11      1.0000 0.75740  0.03150  0.16000  Biso   1.000  O
  H18      1.0000 0.77370  0.04480  0.26630  Biso   1.000  H
  O12      1.0000 0.00760  0.12290  0.04200  Biso   1.000  O
