data_image0
_cell_length_a       11.789
_cell_length_b       11.9999
_cell_length_c       13.4741
_cell_angle_alpha    79.295
_cell_angle_beta     67.769
_cell_angle_gamma    74.518

_symmetry_space_group_name_H-M    "P 1"
_symmetry_int_tables_number       1

loop_
  _symmetry_equiv_pos_as_xyz
  'x, y, z'

loop_
  _atom_site_label
  _atom_site_occupancy
  _atom_site_fract_x
  _atom_site_fract_y
  _atom_site_fract_z
  _atom_site_thermal_displace_type
  _atom_site_B_iso_or_equiv
  _atom_site_type_symbol
  Cu1      1.0000 0.49424  0.26467  0.30494  Biso   1.000  Cu
  Cu2      1.0000 0.50576  0.73533  0.69506  Biso   1.000  Cu
  Cl1      1.0000 0.06910  0.25820  0.24060  Biso   1.000  Cl
  Cl2      1.0000 0.93090  0.74180  0.75940  Biso   1.000  Cl
  Cl3      1.0000 0.05350  0.14500  0.43490  Biso   1.000  Cl
  Cl4      1.0000 0.94650  0.85500  0.56510  Biso   1.000  Cl
  Cl5      1.0000 0.35590  0.20390  0.73840  Biso   1.000  Cl
  Cl6      1.0000 0.64410  0.79610  0.26160  Biso   1.000  Cl
  Cl7      1.0000 0.21410  0.19650  0.96600  Biso   1.000  Cl
  Cl8      1.0000 0.78590  0.80350  0.03400  Biso   1.000  Cl
  P1       1.0000 0.60295  0.15095  0.39877  Biso   1.000  P
  P2       1.0000 0.39705  0.84905  0.60123  Biso   1.000  P
  F1       1.0000 0.24590  0.55340  0.09900  Biso   1.000  F
  F2       1.0000 0.75410  0.44660  0.90100  Biso   1.000  F
  F3       1.0000 0.16910  0.70710  0.00910  Biso   1.000  F
  F4       1.0000 0.83090  0.29290  0.99090  Biso   1.000  F
  F5       1.0000 0.05760  0.66030  0.18070  Biso   1.000  F
  F6       1.0000 0.94240  0.33970  0.81930  Biso   1.000  F
  F7       1.0000 0.22750  0.72410  0.14310  Biso   1.000  F
  F8       1.0000 0.77250  0.27590  0.85690  Biso   1.000  F
  N1       1.0000 0.30870  0.33670  0.38140  Biso   1.000  N
  N2       1.0000 0.69130  0.66330  0.61860  Biso   1.000  N
  N3       1.0000 0.49140  0.17340  0.18960  Biso   1.000  N
  N4       1.0000 0.50860  0.82660  0.81040  Biso   1.000  N
  N5       1.0000 0.54550  0.40800  0.21110  Biso   1.000  N
  N6       1.0000 0.45450  0.59200  0.78890  Biso   1.000  N
  C1       1.0000 0.24410  0.40400  0.32230  Biso   1.000  C
  C2       1.0000 0.75590  0.59600  0.67770  Biso   1.000  C
  H1       1.0000 0.28210  0.40630  0.24540  Biso   1.000  H
  H2       1.0000 0.71790  0.59370  0.75460  Biso   1.000  H
  C3       1.0000 0.12460  0.46840  0.36470  Biso   1.000  C
  C4       1.0000 0.87540  0.53160  0.63530  Biso   1.000  C
  H3       1.0000 0.08210  0.51670  0.31850  Biso   1.000  H
  H4       1.0000 0.91790  0.48330  0.68150  Biso   1.000  H
  C5       1.0000 0.06430  0.46530  0.47570  Biso   1.000  C
  C6       1.0000 0.93570  0.53470  0.52430  Biso   1.000  C
  C7       1.0000 0.13080  0.39240  0.53780  Biso   1.000  C
  C8       1.0000 0.86920  0.60760  0.46220  Biso   1.000  C
  H5       1.0000 0.09280  0.38560  0.61490  Biso   1.000  H
  H6       1.0000 0.90720  0.61440  0.38510  Biso   1.000  H
  C9       1.0000 0.25050  0.33030  0.48820  Biso   1.000  C
  C10      1.0000 0.74950  0.66970  0.51180  Biso   1.000  C
  H7       1.0000 0.29180  0.28040  0.53450  Biso   1.000  H
  H8       1.0000 0.70820  0.71960  0.46550  Biso   1.000  H
  C11      1.0000 0.57340  0.17310  0.09080  Biso   1.000  C
  C12      1.0000 0.42660  0.82690  0.90920  Biso   1.000  C
  H9       1.0000 0.63430  0.22070  0.06700  Biso   1.000  H
  H10      1.0000 0.36570  0.77930  0.93300  Biso   1.000  H
  C13      1.0000 0.57910  0.10830  0.01520  Biso   1.000  C
  C14      1.0000 0.42090  0.89170  0.98480  Biso   1.000  C
  H11      1.0000 0.64150  0.11210  0.94450  Biso   1.000  H
  H12      1.0000 0.35850  0.88790  0.05550  Biso   1.000  H
  C15      1.0000 0.49720  0.03690  0.03930  Biso   1.000  C
  C16      1.0000 0.50280  0.96310  0.96070  Biso   1.000  C
  C17      1.0000 0.41150  0.03830  0.14170  Biso   1.000  C
  C18      1.0000 0.58850  0.96170  0.85830  Biso   1.000  C
  H13      1.0000 0.33780  0.01030  0.15410  Biso   1.000  H
  H14      1.0000 0.66220  0.98970  0.84590  Biso   1.000  H
  C19      1.0000 0.40860  0.11080  0.21250  Biso   1.000  C
  C20      1.0000 0.59140  0.88920  0.78750  Biso   1.000  C
  H15      1.0000 0.34620  0.10670  0.28320  Biso   1.000  H
  H16      1.0000 0.65380  0.89330  0.71680  Biso   1.000  H
  C21      1.0000 0.75640  0.07280  0.31900  Biso   1.000  C
  C22      1.0000 0.24360  0.92720  0.68100  Biso   1.000  C
  C23      1.0000 0.81390  0.12440  0.21590  Biso   1.000  C
  C24      1.0000 0.18610  0.87560  0.78410  Biso   1.000  C
  H17      1.0000 0.77100  0.19690  0.19000  Biso   1.000  H
  H18      1.0000 0.22900  0.80310  0.81000  Biso   1.000  H
  C25      1.0000 0.93040  0.07210  0.15050  Biso   1.000  C
  C26      1.0000 0.06960  0.92790  0.84950  Biso   1.000  C
  H19      1.0000 0.96770  0.11010  0.08060  Biso   1.000  H
  H20      1.0000 0.03230  0.88990  0.91940  Biso   1.000  H
  C27      1.0000 0.99440  0.96730  0.18570  Biso   1.000  C
  C28      1.0000 0.00560  0.03270  0.81430  Biso   1.000  C
  H21      1.0000 0.07520  0.93200  0.13800  Biso   1.000  H
  H22      1.0000 0.92480  0.06800  0.86200  Biso   1.000  H
  C29      1.0000 0.93920  0.91580  0.28840  Biso   1.000  C
  C30      1.0000 0.06080  0.08420  0.71160  Biso   1.000  C
  H23      1.0000 0.98110  0.84380  0.31620  Biso   1.000  H
  H24      1.0000 0.01890  0.15620  0.68380  Biso   1.000  H
  C31      1.0000 0.82150  0.96860  0.35400  Biso   1.000  C
  C32      1.0000 0.17850  0.03140  0.64600  Biso   1.000  C
  H25      1.0000 0.78200  0.93330  0.42460  Biso   1.000  H
  H26      1.0000 0.21800  0.06670  0.57540  Biso   1.000  H
  C33      1.0000 0.63410  0.21130  0.49840  Biso   1.000  C
  C34      1.0000 0.36590  0.78870  0.50160  Biso   1.000  C
  C35      1.0000 0.61030  0.32890  0.49760  Biso   1.000  C
  C36      1.0000 0.38970  0.67110  0.50240  Biso   1.000  C
  H27      1.0000 0.58380  0.37890  0.44240  Biso   1.000  H
  H28      1.0000 0.41620  0.62110  0.55760  Biso   1.000  H
  C37      1.0000 0.63770  0.37840  0.56910  Biso   1.000  C
  C38      1.0000 0.36230  0.62160  0.43090  Biso   1.000  C
  H29      1.0000 0.60460  0.46000  0.57550  Biso   1.000  H
  H30      1.0000 0.39540  0.54000  0.42450  Biso   1.000  H
  C39      1.0000 0.68570  0.31370  0.64100  Biso   1.000  C
  C40      1.0000 0.31430  0.68630  0.35900  Biso   1.000  C
  H31      1.0000 0.70200  0.34780  0.69190  Biso   1.000  H
  H32      1.0000 0.29800  0.65220  0.30810  Biso   1.000  H
  C41      1.0000 0.72010  0.19550  0.63700  Biso   1.000  C
  C42      1.0000 0.27990  0.80450  0.36300  Biso   1.000  C
  H33      1.0000 0.76780  0.14840  0.67970  Biso   1.000  H
  H34      1.0000 0.23220  0.85160  0.32030  Biso   1.000  H
  C43      1.0000 0.69250  0.14390  0.56850  Biso   1.000  C
  C44      1.0000 0.30750  0.85610  0.43150  Biso   1.000  C
  H35      1.0000 0.71350  0.06090  0.56890  Biso   1.000  H
  H36      1.0000 0.28650  0.93910  0.43110  Biso   1.000  H
  C45      1.0000 0.52930  0.03700  0.47630  Biso   1.000  C
  C46      1.0000 0.47070  0.96300  0.52370  Biso   1.000  C
  C47      1.0000 0.55610  0.49050  0.15710  Biso   1.000  C
  C48      1.0000 0.44390  0.50950  0.84290  Biso   1.000  C
  C49      1.0000 0.56420  0.59900  0.08900  Biso   1.000  C
  C50      1.0000 0.43580  0.40100  0.91100  Biso   1.000  C
  H37      1.0000 0.57370  0.59340  0.01600  Biso   1.000  H
  H38      1.0000 0.42630  0.40660  0.98400  Biso   1.000  H
  H39      1.0000 0.63600  0.62140  0.09010  Biso   1.000  H
  H40      1.0000 0.36400  0.37860  0.90990  Biso   1.000  H
  H41      1.0000 0.48980  0.65610  0.12020  Biso   1.000  H
  H42      1.0000 0.51020  0.34390  0.87980  Biso   1.000  H
  C51      1.0000 0.98100  0.23400  0.34880  Biso   1.000  C
  C52      1.0000 0.01900  0.76600  0.65120  Biso   1.000  C
  H43      1.0000 0.91990  0.19730  0.34320  Biso   1.000  H
  H44      1.0000 0.08010  0.80270  0.65680  Biso   1.000  H
  H45      1.0000 0.93600  0.30700  0.37970  Biso   1.000  H
  H46      1.0000 0.06400  0.69300  0.62030  Biso   1.000  H
  C53      1.0000 0.21990  0.18240  0.83920  Biso   1.000  C
  C54      1.0000 0.78010  0.81760  0.16080  Biso   1.000  C
  H47      1.0000 0.20960  0.10520  0.83800  Biso   1.000  H
  H48      1.0000 0.79040  0.89480  0.16200  Biso   1.000  H
  H49      1.0000 0.14990  0.23780  0.82480  Biso   1.000  H
  H50      1.0000 0.85010  0.76220  0.17520  Biso   1.000  H
  O1       1.0000 0.16940  0.52660  0.76280  Biso   1.000  O
  O2       1.0000 0.83060  0.47340  0.23720  Biso   1.000  O
  B1       1.0000 0.17680  0.65780  0.10400  Biso   1.000  B
  B2       1.0000 0.82320  0.34220  0.89600  Biso   1.000  B
  O3       1.0000 0.25700  0.39400  0.75100  Biso   1.000  O
  O4       1.0000 0.74300  0.60600  0.24900  Biso   1.000  O
  O5       1.0000 0.95700  0.47900  0.08700  Biso   1.000  O
  O6       1.0000 0.04300  0.52100  0.91300  Biso   1.000  O
