data_image0
_cell_length_a       12.106
_cell_length_b       12.643
_cell_length_c       12.98
_cell_angle_alpha    71.629
_cell_angle_beta     89.594
_cell_angle_gamma    63.652

_symmetry_space_group_name_H-M    "P 1"
_symmetry_int_tables_number       1

loop_
  _symmetry_equiv_pos_as_xyz
  'x, y, z'

loop_
  _atom_site_label
  _atom_site_occupancy
  _atom_site_fract_x
  _atom_site_fract_y
  _atom_site_fract_z
  _atom_site_thermal_displace_type
  _atom_site_B_iso_or_equiv
  _atom_site_type_symbol
  Cu1      1.0000 0.34289  0.25135  0.29027  Biso   1.000  Cu
  Cu2      1.0000 0.65711  0.74865  0.70973  Biso   1.000  Cu
  P1       1.0000 0.22721  0.17648  0.39694  Biso   1.000  P
  P2       1.0000 0.77279  0.82352  0.60306  Biso   1.000  P
  P3       1.0000 0.47993  0.89660  0.73958  Biso   1.000  P
  P4       1.0000 0.52007  0.10340  0.26042  Biso   1.000  P
  F1       1.0000 0.11350  0.22840  0.80430  Biso   1.000  F
  F2       1.0000 0.88650  0.77160  0.19570  Biso   1.000  F
  F3       1.0000 0.92500  0.35880  0.82960  Biso   1.000  F
  F4       1.0000 0.07500  0.64120  0.17040  Biso   1.000  F
  F5       1.0000 0.08800  0.28280  0.95260  Biso   1.000  F
  F6       1.0000 0.91200  0.71720  0.04740  Biso   1.000  F
  F7       1.0000 0.02060  0.15540  0.93280  Biso   1.000  F
  F8       1.0000 0.97940  0.84460  0.06720  Biso   1.000  F
  N1       1.0000 0.39260  0.34690  0.36900  Biso   1.000  N
  N2       1.0000 0.60740  0.65310  0.63100  Biso   1.000  N
  N3       1.0000 0.24700  0.37700  0.14250  Biso   1.000  N
  N4       1.0000 0.75300  0.62300  0.85750  Biso   1.000  N
  N5       1.0000 0.62610  0.48710  0.22640  Biso   1.000  N
  N6       1.0000 0.37390  0.51290  0.77360  Biso   1.000  N
  C1       1.0000 0.47150  0.28480  0.46270  Biso   1.000  C
  C2       1.0000 0.52850  0.71520  0.53730  Biso   1.000  C
  H1       1.0000 0.50340  0.19540  0.49710  Biso   1.000  H
  H2       1.0000 0.49660  0.80460  0.50290  Biso   1.000  H
  C3       1.0000 0.51480  0.34040  0.51660  Biso   1.000  C
  C4       1.0000 0.48520  0.65960  0.48340  Biso   1.000  C
  H3       1.0000 0.56980  0.29000  0.58550  Biso   1.000  H
  H4       1.0000 0.43020  0.71000  0.41450  Biso   1.000  H
  C5       1.0000 0.47660  0.46810  0.47270  Biso   1.000  C
  C6       1.0000 0.52340  0.53190  0.52730  Biso   1.000  C
  C7       1.0000 0.39180  0.53350  0.37710  Biso   1.000  C
  C8       1.0000 0.60820  0.46650  0.62290  Biso   1.000  C
  H5       1.0000 0.36080  0.62280  0.34320  Biso   1.000  H
  H6       1.0000 0.63920  0.37720  0.65680  Biso   1.000  H
  C9       1.0000 0.35240  0.47100  0.32810  Biso   1.000  C
  C10      1.0000 0.64760  0.52900  0.67190  Biso   1.000  C
  H7       1.0000 0.29170  0.52180  0.26260  Biso   1.000  H
  H8       1.0000 0.70830  0.47820  0.73740  Biso   1.000  H
  C11      1.0000 0.08870  0.29320  0.42840  Biso   1.000  C
  C12      1.0000 0.91130  0.70680  0.57160  Biso   1.000  C
  C13      1.0000 0.01930  0.40730  0.34350  Biso   1.000  C
  C14      1.0000 0.98070  0.59270  0.65650  Biso   1.000  C
  H9       1.0000 0.04670  0.42320  0.27320  Biso   1.000  H
  H10      1.0000 0.95330  0.57680  0.72680  Biso   1.000  H
  C15      1.0000 0.90890  0.49870  0.35860  Biso   1.000  C
  C16      1.0000 0.09110  0.50130  0.64140  Biso   1.000  C
  H11      1.0000 0.86070  0.57650  0.29910  Biso   1.000  H
  H12      1.0000 0.13930  0.42350  0.70090  Biso   1.000  H
  C17      1.0000 0.86910  0.47730  0.45970  Biso   1.000  C
  C18      1.0000 0.13090  0.52270  0.54030  Biso   1.000  C
  H13      1.0000 0.79240  0.53980  0.47030  Biso   1.000  H
  H14      1.0000 0.20760  0.46020  0.52970  Biso   1.000  H
  C19      1.0000 0.93970  0.36600  0.54580  Biso   1.000  C
  C20      1.0000 0.06030  0.63400  0.45420  Biso   1.000  C
  H15      1.0000 0.91320  0.35340  0.61660  Biso   1.000  H
  H16      1.0000 0.08680  0.64660  0.38340  Biso   1.000  H
  C21      1.0000 0.04890  0.27240  0.53040  Biso   1.000  C
  C22      1.0000 0.95110  0.72760  0.46960  Biso   1.000  C
  H17      1.0000 0.09650  0.19420  0.58950  Biso   1.000  H
  H18      1.0000 0.90350  0.80580  0.41050  Biso   1.000  H
  C23      1.0000 0.17210  0.08150  0.35370  Biso   1.000  C
  C24      1.0000 0.82790  0.91850  0.64630  Biso   1.000  C
  C25      1.0000 0.14710  0.10530  0.24390  Biso   1.000  C
  C26      1.0000 0.85290  0.89470  0.75610  Biso   1.000  C
  H19      1.0000 0.15520  0.17330  0.19100  Biso   1.000  H
  H20      1.0000 0.84480  0.82670  0.80900  Biso   1.000  H
  C27      1.0000 0.10410  0.03510  0.20800  Biso   1.000  C
  C28      1.0000 0.89590  0.96490  0.79200  Biso   1.000  C
  H21      1.0000 0.08750  0.05120  0.13090  Biso   1.000  H
  H22      1.0000 0.91250  0.94880  0.86910  Biso   1.000  H
  C29      1.0000 0.08790  0.94290  0.28070  Biso   1.000  C
  C30      1.0000 0.91210  0.05710  0.71930  Biso   1.000  C
  H23      1.0000 0.06260  0.89080  0.25750  Biso   1.000  H
  H24      1.0000 0.93740  0.10920  0.74250  Biso   1.000  H
  C31      1.0000 0.11320  0.91790  0.38920  Biso   1.000  C
  C32      1.0000 0.88680  0.08210  0.61080  Biso   1.000  C
  H25      1.0000 0.09630  0.85460  0.43950  Biso   1.000  H
  H26      1.0000 0.90370  0.14540  0.56050  Biso   1.000  H
  C33      1.0000 0.15530  0.98710  0.42660  Biso   1.000  C
  C34      1.0000 0.84470  0.01290  0.57340  Biso   1.000  C
  H27      1.0000 0.17520  0.96630  0.50420  Biso   1.000  H
  H28      1.0000 0.82480  0.03370  0.49580  Biso   1.000  H
  C35      1.0000 0.31260  0.07190  0.52860  Biso   1.000  C
  C36      1.0000 0.68740  0.92810  0.47140  Biso   1.000  C
  C37      1.0000 0.37590  0.00180  0.61660  Biso   1.000  C
  C38      1.0000 0.62410  0.99820  0.38340  Biso   1.000  C
  C39      1.0000 0.49920  0.00410  0.79480  Biso   1.000  C
  C40      1.0000 0.50080  0.99590  0.20520  Biso   1.000  C
  C41      1.0000 0.42360  0.13280  0.75610  Biso   1.000  C
  C42      1.0000 0.57640  0.86720  0.24390  Biso   1.000  C
  H29      1.0000 0.35520  0.16900  0.69790  Biso   1.000  H
  H30      1.0000 0.64480  0.83100  0.30210  Biso   1.000  H
  C43      1.0000 0.44700  0.20750  0.80150  Biso   1.000  C
  C44      1.0000 0.55300  0.79250  0.19850  Biso   1.000  C
  H31      1.0000 0.39430  0.29690  0.77410  Biso   1.000  H
  H32      1.0000 0.60570  0.70310  0.22590  Biso   1.000  H
  C45      1.0000 0.54500  0.15450  0.88600  Biso   1.000  C
  C46      1.0000 0.45500  0.84550  0.11400  Biso   1.000  C
  H33      1.0000 0.56280  0.20660  0.91610  Biso   1.000  H
  H34      1.0000 0.43720  0.79340  0.08390  Biso   1.000  H
  C47      1.0000 0.61830  0.02650  0.92630  Biso   1.000  C
  C48      1.0000 0.38170  0.97350  0.07370  Biso   1.000  C
  H35      1.0000 0.68490  0.98960  0.98640  Biso   1.000  H
  H36      1.0000 0.31510  0.01040  0.01360  Biso   1.000  H
  C49      1.0000 0.59620  0.95120  0.88060  Biso   1.000  C
  C50      1.0000 0.40380  0.04880  0.11940  Biso   1.000  C
  H37      1.0000 0.64770  0.86150  0.90870  Biso   1.000  H
  H38      1.0000 0.35230  0.13850  0.09130  Biso   1.000  H
  C51      1.0000 0.38410  0.84200  0.82840  Biso   1.000  C
  C52      1.0000 0.61590  0.15800  0.17160  Biso   1.000  C
  C53      1.0000 0.27140  0.92500  0.84860  Biso   1.000  C
  C54      1.0000 0.72860  0.07500  0.15140  Biso   1.000  C
  H39      1.0000 0.23770  0.01400  0.81030  Biso   1.000  H
  H40      1.0000 0.76230  0.98600  0.18970  Biso   1.000  H
  C55      1.0000 0.20560  0.87980  0.92190  Biso   1.000  C
  C56      1.0000 0.79440  0.12020  0.07810  Biso   1.000  C
  H41      1.0000 0.12880  0.93720  0.93730  Biso   1.000  H
  H42      1.0000 0.87120  0.06280  0.06270  Biso   1.000  H
  C57      1.0000 0.25160  0.75250  0.97590  Biso   1.000  C
  C58      1.0000 0.74840  0.24750  0.02410  Biso   1.000  C
  H43      1.0000 0.20470  0.72220  0.02580  Biso   1.000  H
  H44      1.0000 0.79530  0.27780  0.97420  Biso   1.000  H
  C59      1.0000 0.36360  0.66900  0.95620  Biso   1.000  C
  C60      1.0000 0.63640  0.33100  0.04380  Biso   1.000  C
  H45      1.0000 0.39580  0.58030  0.99500  Biso   1.000  H
  H46      1.0000 0.60420  0.41970  0.00500  Biso   1.000  H
  C61      1.0000 0.42960  0.71330  0.88200  Biso   1.000  C
  C62      1.0000 0.57040  0.28670  0.11800  Biso   1.000  C
  H47      1.0000 0.50670  0.65600  0.86690  Biso   1.000  H
  H48      1.0000 0.49330  0.34400  0.13310  Biso   1.000  H
  C63      1.0000 0.19740  0.43960  0.05640  Biso   1.000  C
  C64      1.0000 0.80260  0.56040  0.94360  Biso   1.000  C
  C65      1.0000 0.13320  0.52080  0.94480  Biso   1.000  C
  C66      1.0000 0.86680  0.47920  0.05520  Biso   1.000  C
  H49      1.0000 0.18120  0.55890  0.90520  Biso   1.000  H
  H50      1.0000 0.81880  0.44110  0.09480  Biso   1.000  H
  H51      1.0000 0.05370  0.58530  0.94850  Biso   1.000  H
  H52      1.0000 0.94630  0.41470  0.05150  Biso   1.000  H
  H53      1.0000 0.12090  0.47130  0.90760  Biso   1.000  H
  H54      1.0000 0.87910  0.52870  0.09240  Biso   1.000  H
  C67      1.0000 0.70300  0.38580  0.27630  Biso   1.000  C
  C68      1.0000 0.29700  0.61420  0.72370  Biso   1.000  C
  C69      1.0000 0.82550  0.24740  0.30180  Biso   1.000  C
  C70      1.0000 0.17450  0.75260  0.69820  Biso   1.000  C
  H55      1.0000 0.83980  0.19310  0.37660  Biso   1.000  H
  H56      1.0000 0.16020  0.80690  0.62340  Biso   1.000  H
  H57      1.0000 0.89630  0.26190  0.28700  Biso   1.000  H
  H58      1.0000 0.10370  0.73810  0.71300  Biso   1.000  H
  H59      1.0000 0.81320  0.20830  0.25340  Biso   1.000  H
  H60      1.0000 0.18680  0.79170  0.74660  Biso   1.000  H
  B1       1.0000 0.03670  0.25750  0.87990  Biso   1.000  B
  B2       1.0000 0.96330  0.74250  0.12010  Biso   1.000  B
