data_image0
_cell_length_a       10.6599
_cell_length_b       10.6608
_cell_length_c       21.2449
_cell_angle_alpha    86.299
_cell_angle_beta     79.483
_cell_angle_gamma    89.989

_symmetry_space_group_name_H-M    "P 1"
_symmetry_int_tables_number       1

loop_
  _symmetry_equiv_pos_as_xyz
  'x, y, z'

loop_
  _atom_site_label
  _atom_site_occupancy
  _atom_site_fract_x
  _atom_site_fract_y
  _atom_site_fract_z
  _atom_site_thermal_displace_type
  _atom_site_B_iso_or_equiv
  _atom_site_type_symbol
  Cu1      1.0000 0.46669  0.58933  0.24980  Biso   1.000  Cu
  Cu2      1.0000 0.53331  0.41067  0.75020  Biso   1.000  Cu
  Cu3      1.0000 0.96711  0.09070  0.25013  Biso   1.000  Cu
  Cu4      1.0000 0.03289  0.90930  0.74987  Biso   1.000  Cu
  B1       1.0000 0.46760  0.08810  0.24940  Biso   1.000  B
  B2       1.0000 0.53240  0.91190  0.75060  Biso   1.000  B
  B3       1.0000 0.96560  0.59270  0.25070  Biso   1.000  B
  B4       1.0000 0.03440  0.40730  0.74930  Biso   1.000  B
  C1       1.0000 0.42270  0.85560  0.26580  Biso   1.000  C
  C2       1.0000 0.57730  0.14440  0.73420  Biso   1.000  C
  H1       1.0000 0.39330  0.85620  0.22620  Biso   1.000  H
  H2       1.0000 0.60670  0.14380  0.77380  Biso   1.000  H
  C3       1.0000 0.49180  0.78990  0.35060  Biso   1.000  C
  C4       1.0000 0.50820  0.21010  0.64940  Biso   1.000  C
  C5       1.0000 0.53580  0.71500  0.39790  Biso   1.000  C
  C6       1.0000 0.46420  0.28500  0.60210  Biso   1.000  C
  H3       1.0000 0.53170  0.62580  0.39960  Biso   1.000  H
  H4       1.0000 0.46830  0.37420  0.60040  Biso   1.000  H
  C7       1.0000 0.58710  0.78130  0.44350  Biso   1.000  C
  C8       1.0000 0.41290  0.21870  0.55650  Biso   1.000  C
  H5       1.0000 0.61650  0.73560  0.47770  Biso   1.000  H
  H6       1.0000 0.38350  0.26440  0.52230  Biso   1.000  H
  C9       1.0000 0.59520  0.91280  0.43890  Biso   1.000  C
  C10      1.0000 0.40480  0.08720  0.56110  Biso   1.000  C
  H7       1.0000 0.63300  0.95340  0.46950  Biso   1.000  H
  H8       1.0000 0.36700  0.04660  0.53050  Biso   1.000  H
  C11      1.0000 0.54990  0.98720  0.39130  Biso   1.000  C
  C12      1.0000 0.45010  0.01280  0.60870  Biso   1.000  C
  H9       1.0000 0.55330  0.07640  0.38930  Biso   1.000  H
  H10      1.0000 0.44670  0.92360  0.61070  Biso   1.000  H
  C13      1.0000 0.49900  0.92070  0.34640  Biso   1.000  C
  C14      1.0000 0.50100  0.07930  0.65360  Biso   1.000  C
  C15      1.0000 0.24140  0.13550  0.23390  Biso   1.000  C
  C16      1.0000 0.75860  0.86450  0.76610  Biso   1.000  C
  H11      1.0000 0.22390  0.18190  0.27110  Biso   1.000  H
  H12      1.0000 0.77610  0.81810  0.72890  Biso   1.000  H
  C17      1.0000 0.34680  0.03590  0.15430  Biso   1.000  C
  C18      1.0000 0.65320  0.96410  0.84570  Biso   1.000  C
  C19      1.0000 0.43380  0.97390  0.10910  Biso   1.000  C
  C20      1.0000 0.56620  0.02610  0.89090  Biso   1.000  C
  H13      1.0000 0.52200  0.97000  0.11120  Biso   1.000  H
  H14      1.0000 0.47800  0.03000  0.88880  Biso   1.000  H
  C21      1.0000 0.38420  0.91810  0.06070  Biso   1.000  C
  C22      1.0000 0.61580  0.08190  0.93930  Biso   1.000  C
  H15      1.0000 0.43980  0.87380  0.02980  Biso   1.000  H
  H16      1.0000 0.56020  0.12620  0.97020  Biso   1.000  H
  C23      1.0000 0.25490  0.92610  0.05690  Biso   1.000  C
  C24      1.0000 0.74510  0.07390  0.94310  Biso   1.000  C
  H17      1.0000 0.22420  0.88920  0.02300  Biso   1.000  H
  H18      1.0000 0.77580  0.11080  0.97700  Biso   1.000  H
  C25      1.0000 0.17180  0.98730  0.10190  Biso   1.000  C
  C26      1.0000 0.82820  0.01270  0.89810  Biso   1.000  C
  H19      1.0000 0.08380  0.99190  0.09940  Biso   1.000  H
  H20      1.0000 0.91620  0.00810  0.90060  Biso   1.000  H
  C27      1.0000 0.21680  0.04180  0.15050  Biso   1.000  C
  C28      1.0000 0.78320  0.95820  0.84950  Biso   1.000  C
  C29      1.0000 0.49960  0.32490  0.26620  Biso   1.000  C
  C30      1.0000 0.50040  0.67510  0.73380  Biso   1.000  C
  H21      1.0000 0.55830  0.33740  0.22690  Biso   1.000  H
  H22      1.0000 0.44170  0.66260  0.77310  Biso   1.000  H
  C31      1.0000 0.36590  0.23190  0.34730  Biso   1.000  C
  C32      1.0000 0.63410  0.76810  0.65270  Biso   1.000  C
  C33      1.0000 0.28130  0.15660  0.39180  Biso   1.000  C
  C34      1.0000 0.71870  0.84340  0.60820  Biso   1.000  C
  H23      1.0000 0.27850  0.06800  0.38920  Biso   1.000  H
  H24      1.0000 0.72150  0.93200  0.61080  Biso   1.000  H
  C35      1.0000 0.20160  0.21460  0.43970  Biso   1.000  C
  C36      1.0000 0.79840  0.78540  0.56030  Biso   1.000  C
  H25      1.0000 0.14260  0.16510  0.47030  Biso   1.000  H
  H26      1.0000 0.85740  0.83490  0.52970  Biso   1.000  H
  C37      1.0000 0.20630  0.34600  0.44430  Biso   1.000  C
  C38      1.0000 0.79370  0.65400  0.55570  Biso   1.000  C
  H27      1.0000 0.15220  0.38290  0.47860  Biso   1.000  H
  H28      1.0000 0.84780  0.61710  0.52140  Biso   1.000  H
  C39      1.0000 0.28770  0.42190  0.39990  Biso   1.000  C
  C40      1.0000 0.71230  0.57810  0.60010  Biso   1.000  C
  H29      1.0000 0.28870  0.51060  0.40230  Biso   1.000  H
  H30      1.0000 0.71130  0.48940  0.59770  Biso   1.000  H
  C41      1.0000 0.36950  0.36310  0.35080  Biso   1.000  C
  C42      1.0000 0.63050  0.63690  0.64920  Biso   1.000  C
  C43      1.0000 0.71320  0.06100  0.23690  Biso   1.000  C
  C44      1.0000 0.28680  0.93900  0.76310  Biso   1.000  C
  H31      1.0000 0.70690  0.02240  0.27900  Biso   1.000  H
  H32      1.0000 0.29310  0.97760  0.72100  Biso   1.000  H
  C45      1.0000 0.65590  0.16800  0.15420  Biso   1.000  C
  C46      1.0000 0.34410  0.83200  0.84580  Biso   1.000  C
  C47      1.0000 0.60480  0.24290  0.10910  Biso   1.000  C
  C48      1.0000 0.39520  0.75710  0.89090  Biso   1.000  C
  H33      1.0000 0.51500  0.24690  0.11160  Biso   1.000  H
  H34      1.0000 0.48500  0.75310  0.88840  Biso   1.000  H
  C49      1.0000 0.68370  0.31000  0.06170  Biso   1.000  C
  C50      1.0000 0.31630  0.69000  0.93830  Biso   1.000  C
  H35      1.0000 0.64790  0.35980  0.03090  Biso   1.000  H
  H36      1.0000 0.35210  0.64020  0.96910  Biso   1.000  H
  C51      1.0000 0.81780  0.30820  0.05660  Biso   1.000  C
  C52      1.0000 0.18220  0.69180  0.94340  Biso   1.000  C
  H37      1.0000 0.87100  0.35770  0.02350  Biso   1.000  H
  H38      1.0000 0.12900  0.64230  0.97650  Biso   1.000  H
  C53      1.0000 0.87080  0.23310  0.10050  Biso   1.000  C
  C54      1.0000 0.12920  0.76690  0.89950  Biso   1.000  C
  H39      1.0000 0.96070  0.22890  0.09760  Biso   1.000  H
  H40      1.0000 0.03930  0.77110  0.90240  Biso   1.000  H
  C55      1.0000 0.78890  0.16440  0.14900  Biso   1.000  C
  C56      1.0000 0.21110  0.83560  0.85100  Biso   1.000  C
  C57      1.0000 0.74330  0.54950  0.23350  Biso   1.000  C
  C58      1.0000 0.25670  0.45050  0.76650  Biso   1.000  C
  H41      1.0000 0.72710  0.49380  0.27080  Biso   1.000  H
  H42      1.0000 0.27290  0.50620  0.72920  Biso   1.000  H
  C59      1.0000 0.84760  0.67060  0.15390  Biso   1.000  C
  C60      1.0000 0.15240  0.32940  0.84610  Biso   1.000  C
  C61      1.0000 0.93430  0.74530  0.10890  Biso   1.000  C
  C62      1.0000 0.06570  0.25470  0.89110  Biso   1.000  C
  H43      1.0000 0.02260  0.74840  0.11070  Biso   1.000  H
  H44      1.0000 0.97740  0.25160  0.88930  Biso   1.000  H
  C63      1.0000 0.88390  0.81530  0.06090  Biso   1.000  C
  C64      1.0000 0.11610  0.18470  0.93910  Biso   1.000  C
  H45      1.0000 0.93880  0.86830  0.03000  Biso   1.000  H
  H46      1.0000 0.06120  0.13170  0.97000  Biso   1.000  H
  C65      1.0000 0.75430  0.80780  0.05810  Biso   1.000  C
  C66      1.0000 0.24570  0.19220  0.94190  Biso   1.000  C
  H47      1.0000 0.72340  0.85460  0.02460  Biso   1.000  H
  H48      1.0000 0.27660  0.14540  0.97540  Biso   1.000  H
  C67      1.0000 0.66960  0.73470  0.10240  Biso   1.000  C
  C68      1.0000 0.33040  0.26530  0.89760  Biso   1.000  C
  H49      1.0000 0.58150  0.73160  0.09990  Biso   1.000  H
  H50      1.0000 0.41850  0.26840  0.90010  Biso   1.000  H
  C69      1.0000 0.71630  0.66620  0.15030  Biso   1.000  C
  C70      1.0000 0.28370  0.33380  0.84970  Biso   1.000  C
  C71      1.0000 0.99820  0.35580  0.26520  Biso   1.000  C
  C72      1.0000 0.00180  0.64420  0.73480  Biso   1.000  C
  H51      1.0000 0.05570  0.35610  0.22540  Biso   1.000  H
  H52      1.0000 0.94430  0.64390  0.77460  Biso   1.000  H
  C73      1.0000 0.86690  0.29170  0.34980  Biso   1.000  C
  C74      1.0000 0.13310  0.70830  0.65020  Biso   1.000  C
  C75      1.0000 0.78890  0.21900  0.39810  Biso   1.000  C
  C76      1.0000 0.21110  0.78100  0.60190  Biso   1.000  C
  H53      1.0000 0.79240  0.12980  0.40090  Biso   1.000  H
  H54      1.0000 0.20760  0.87020  0.59910  Biso   1.000  H
  C77      1.0000 0.70390  0.28560  0.44290  Biso   1.000  C
  C78      1.0000 0.29610  0.71440  0.55710  Biso   1.000  C
  H55      1.0000 0.64840  0.23960  0.47660  Biso   1.000  H
  H56      1.0000 0.35160  0.76040  0.52340  Biso   1.000  H
  C79      1.0000 0.69890  0.41490  0.43950  Biso   1.000  C
  C80      1.0000 0.30110  0.58510  0.56050  Biso   1.000  C
  H57      1.0000 0.63950  0.45570  0.47030  Biso   1.000  H
  H58      1.0000 0.36050  0.54430  0.52970  Biso   1.000  H
  C81      1.0000 0.78010  0.48740  0.39140  Biso   1.000  C
  C82      1.0000 0.21990  0.51260  0.60860  Biso   1.000  C
  H59      1.0000 0.77850  0.57670  0.38920  Biso   1.000  H
  H60      1.0000 0.22150  0.42330  0.61080  Biso   1.000  H
  C83      1.0000 0.86400  0.42150  0.34650  Biso   1.000  C
  C84      1.0000 0.13600  0.57850  0.65350  Biso   1.000  C
  C85      1.0000 0.21400  0.62240  0.23720  Biso   1.000  C
  C86      1.0000 0.78600  0.37760  0.76280  Biso   1.000  C
  H61      1.0000 0.20850  0.64900  0.27950  Biso   1.000  H
  H62      1.0000 0.79150  0.35100  0.72050  Biso   1.000  H
  C87      1.0000 0.15520  0.53630  0.15250  Biso   1.000  C
  C88      1.0000 0.84480  0.46370  0.84750  Biso   1.000  C
  C89      1.0000 0.10300  0.47560  0.10770  Biso   1.000  C
  C90      1.0000 0.89700  0.52440  0.89230  Biso   1.000  C
  H63      1.0000 0.01320  0.47330  0.10980  Biso   1.000  H
  H64      1.0000 0.98680  0.52670  0.89020  Biso   1.000  H
  C91      1.0000 0.18310  0.41850  0.05980  Biso   1.000  C
  C92      1.0000 0.81690  0.58150  0.94020  Biso   1.000  C
  H65      1.0000 0.14850  0.37520  0.02910  Biso   1.000  H
  H66      1.0000 0.85150  0.62480  0.97090  Biso   1.000  H
  C93      1.0000 0.31760  0.42410  0.05630  Biso   1.000  C
  C94      1.0000 0.68240  0.57590  0.94370  Biso   1.000  C
  H67      1.0000 0.37170  0.38570  0.02250  Biso   1.000  H
  H68      1.0000 0.62830  0.61430  0.97750  Biso   1.000  H
  C95      1.0000 0.37230  0.48450  0.10130  Biso   1.000  C
  C96      1.0000 0.62770  0.51550  0.89870  Biso   1.000  C
  H69      1.0000 0.46200  0.48650  0.09940  Biso   1.000  H
  H70      1.0000 0.53800  0.51350  0.90060  Biso   1.000  H
  C97      1.0000 0.28870  0.54200  0.14930  Biso   1.000  C
  C98      1.0000 0.71130  0.45800  0.85070  Biso   1.000  C
  C99      1.0000 0.92110  0.82390  0.26700  Biso   1.000  C
  C100     1.0000 0.07890  0.17610  0.73300  Biso   1.000  C
  H71      1.0000 0.88780  0.83480  0.22850  Biso   1.000  H
  H72      1.0000 0.11220  0.16520  0.77150  Biso   1.000  H
  C101     1.0000 0.99680  0.73320  0.34630  Biso   1.000  C
  C102     1.0000 0.00320  0.26680  0.65370  Biso   1.000  C
  C103     1.0000 0.04860  0.65890  0.39130  Biso   1.000  C
  C104     1.0000 0.95140  0.34110  0.60870  Biso   1.000  C
  H73      1.0000 0.05240  0.57030  0.38880  Biso   1.000  H
  H74      1.0000 0.94760  0.42970  0.61120  Biso   1.000  H
  C105     1.0000 0.09390  0.71430  0.43910  Biso   1.000  C
  C106     1.0000 0.90610  0.28570  0.56090  Biso   1.000  C
  H75      1.0000 0.12950  0.66370  0.46970  Biso   1.000  H
  H76      1.0000 0.87050  0.33630  0.53030  Biso   1.000  H
  C107     1.0000 0.08830  0.84650  0.44350  Biso   1.000  C
  C108     1.0000 0.91170  0.15350  0.55650  Biso   1.000  C
  H77      1.0000 0.12120  0.88330  0.47680  Biso   1.000  H
  H78      1.0000 0.87880  0.11670  0.52320  Biso   1.000  H
  C109     1.0000 0.03550  0.92310  0.39990  Biso   1.000  C
  C110     1.0000 0.96450  0.07690  0.60010  Biso   1.000  C
  H79      1.0000 0.02980  0.01150  0.40290  Biso   1.000  H
  H80      1.0000 0.97020  0.98850  0.59710  Biso   1.000  H
  C111     1.0000 0.99090  0.86260  0.35090  Biso   1.000  C
  C112     1.0000 0.00910  0.13740  0.64910  Biso   1.000  C
  N1       1.0000 0.43990  0.74960  0.29890  Biso   1.000  N
  N2       1.0000 0.56010  0.25040  0.70110  Biso   1.000  N
  N3       1.0000 0.44980  0.96460  0.29180  Biso   1.000  N
  N4       1.0000 0.55020  0.03540  0.70820  Biso   1.000  N
  N5       1.0000 0.36130  0.09640  0.20840  Biso   1.000  N
  N6       1.0000 0.63870  0.90360  0.79160  Biso   1.000  N
  N7       1.0000 0.15120  0.10240  0.20160  Biso   1.000  N
  N8       1.0000 0.84880  0.89760  0.79840  Biso   1.000  N
  N9       1.0000 0.45540  0.20410  0.29150  Biso   1.000  N
  N10      1.0000 0.54460  0.79590  0.70850  Biso   1.000  N
  N11      1.0000 0.45630  0.41680  0.29930  Biso   1.000  N
  N12      1.0000 0.54370  0.58320  0.70070  Biso   1.000  N
  N13      1.0000 0.60110  0.09530  0.20850  Biso   1.000  N
  N14      1.0000 0.39890  0.90470  0.79150  Biso   1.000  N
  N15      1.0000 0.81670  0.08690  0.20130  Biso   1.000  N
  N16      1.0000 0.18330  0.91310  0.79870  Biso   1.000  N
  N17      1.0000 0.86060  0.59630  0.20820  Biso   1.000  N
  N18      1.0000 0.13940  0.40370  0.79180  Biso   1.000  N
  N19      1.0000 0.65120  0.58830  0.20130  Biso   1.000  N
  N20      1.0000 0.34880  0.41170  0.79870  Biso   1.000  N
  N21      1.0000 0.95220  0.46510  0.29190  Biso   1.000  N
  N22      1.0000 0.04780  0.53490  0.70810  Biso   1.000  N
  N23      1.0000 0.95670  0.25000  0.29920  Biso   1.000  N
  N24      1.0000 0.04330  0.75000  0.70080  Biso   1.000  N
  N25      1.0000 0.10080  0.59880  0.20850  Biso   1.000  N
  N26      1.0000 0.89920  0.40120  0.79150  Biso   1.000  N
  N27      1.0000 0.31730  0.60410  0.20100  Biso   1.000  N
  N28      1.0000 0.68270  0.39590  0.79900  Biso   1.000  N
  N29      1.0000 0.95090  0.70640  0.29140  Biso   1.000  N
  N30      1.0000 0.04910  0.29360  0.70860  Biso   1.000  N
  N31      1.0000 0.94100  0.91720  0.29910  Biso   1.000  N
  N32      1.0000 0.05900  0.08280  0.70090  Biso   1.000  N
