data_image0
_cell_length_a       12.0343
_cell_length_b       9.0576
_cell_length_c       7.5298
_cell_angle_alpha    90
_cell_angle_beta     90.469
_cell_angle_gamma    90

_symmetry_space_group_name_H-M    "P 1"
_symmetry_int_tables_number       1

loop_
  _symmetry_equiv_pos_as_xyz
  'x, y, z'

loop_
  _atom_site_label
  _atom_site_occupancy
  _atom_site_fract_x
  _atom_site_fract_y
  _atom_site_fract_z
  _atom_site_thermal_displace_type
  _atom_site_B_iso_or_equiv
  _atom_site_type_symbol
  Cu1      1.0000 0.45920  0.09810  0.14240  Biso   1.000  Cu
  Cu2      1.0000 0.54080  0.59810  0.35760  Biso   1.000  Cu
  Cu3      1.0000 0.54080  0.90190  0.85760  Biso   1.000  Cu
  Cu4      1.0000 0.45920  0.40190  0.64240  Biso   1.000  Cu
  N1       1.0000 0.30830  0.17580  0.03700  Biso   1.000  N
  N2       1.0000 0.69170  0.67580  0.46300  Biso   1.000  N
  N3       1.0000 0.69170  0.82420  0.96300  Biso   1.000  N
  N4       1.0000 0.30830  0.32420  0.53700  Biso   1.000  N
  O1       1.0000 0.08910  0.57550  0.83320  Biso   1.000  O
  O2       1.0000 0.91090  0.07550  0.66680  Biso   1.000  O
  O3       1.0000 0.91090  0.42450  0.16680  Biso   1.000  O
  O4       1.0000 0.08910  0.92450  0.33320  Biso   1.000  O
  N5       1.0000 0.51980  0.28170  0.23350  Biso   1.000  N
  N6       1.0000 0.48020  0.78170  0.26650  Biso   1.000  N
  N7       1.0000 0.48020  0.71830  0.76650  Biso   1.000  N
  N8       1.0000 0.51980  0.21830  0.73350  Biso   1.000  N
  C1       1.0000 0.28590  0.31910  0.01880  Biso   1.000  C
  C2       1.0000 0.71410  0.81910  0.48120  Biso   1.000  C
  C3       1.0000 0.71410  0.68090  0.98120  Biso   1.000  C
  C4       1.0000 0.28590  0.18090  0.51880  Biso   1.000  C
  C5       1.0000 0.52890  0.39880  0.28980  Biso   1.000  C
  C6       1.0000 0.47110  0.89880  0.21020  Biso   1.000  C
  C7       1.0000 0.47110  0.60120  0.71020  Biso   1.000  C
  C8       1.0000 0.52890  0.10120  0.78980  Biso   1.000  C
  C9       1.0000 0.16400  0.53360  0.93050  Biso   1.000  C
  C10      1.0000 0.83600  0.03360  0.56950  Biso   1.000  C
  C11      1.0000 0.83600  0.46640  0.06950  Biso   1.000  C
  C12      1.0000 0.16400  0.96640  0.43050  Biso   1.000  C
  C13      1.0000 0.10850  0.27020  0.89080  Biso   1.000  C
  C14      1.0000 0.89150  0.77020  0.60920  Biso   1.000  C
  C15      1.0000 0.89150  0.72980  0.10920  Biso   1.000  C
  C16      1.0000 0.10850  0.22980  0.39080  Biso   1.000  C
  C17      1.0000 0.23130  0.64100  0.03340  Biso   1.000  C
  C18      1.0000 0.76870  0.14100  0.46660  Biso   1.000  C
  C19      1.0000 0.76870  0.35900  0.96660  Biso   1.000  C
  C20      1.0000 0.23130  0.85900  0.53340  Biso   1.000  C
  C21      1.0000 0.18660  0.37210  0.94810  Biso   1.000  C
  C22      1.0000 0.81340  0.87210  0.55190  Biso   1.000  C
  C23      1.0000 0.81340  0.62790  0.05190  Biso   1.000  C
  C24      1.0000 0.18660  0.12790  0.44810  Biso   1.000  C
  C25      1.0000 0.13040  0.12290  0.90870  Biso   1.000  C
  C26      1.0000 0.86960  0.62290  0.59130  Biso   1.000  C
  C27      1.0000 0.86960  0.87710  0.09130  Biso   1.000  C
  C28      1.0000 0.13040  0.37710  0.40870  Biso   1.000  C
  C29      1.0000 0.23070  0.08040  0.98110  Biso   1.000  C
  C30      1.0000 0.76930  0.58040  0.51890  Biso   1.000  C
  C31      1.0000 0.76930  0.91960  0.01890  Biso   1.000  C
  C32      1.0000 0.23070  0.41960  0.48110  Biso   1.000  C
  H1       1.0000 0.34051  0.39024  0.05586  Biso   1.000  H
  H2       1.0000 0.65949  0.89024  0.44414  Biso   1.000  H
  H3       1.0000 0.65949  0.60976  0.94414  Biso   1.000  H
  H4       1.0000 0.34051  0.10976  0.55586  Biso   1.000  H
  H5       1.0000 0.04008  0.30398  0.83857  Biso   1.000  H
  H6       1.0000 0.95992  0.80398  0.66143  Biso   1.000  H
  H7       1.0000 0.95992  0.69602  0.16143  Biso   1.000  H
  H8       1.0000 0.04008  0.19602  0.33857  Biso   1.000  H
  H9       1.0000 0.28634  0.58952  0.10262  Biso   1.000  H
  H10      1.0000 0.71366  0.08952  0.39738  Biso   1.000  H
  H11      1.0000 0.71366  0.41048  0.89738  Biso   1.000  H
  H12      1.0000 0.28634  0.91048  0.60262  Biso   1.000  H
  H13      1.0000 0.18359  0.69560  0.11108  Biso   1.000  H
  H14      1.0000 0.81641  0.19560  0.38892  Biso   1.000  H
  H15      1.0000 0.81641  0.30440  0.88892  Biso   1.000  H
  H16      1.0000 0.18359  0.80440  0.61108  Biso   1.000  H
  H17      1.0000 0.26736  0.70777  0.95341  Biso   1.000  H
  H18      1.0000 0.73264  0.20777  0.54659  Biso   1.000  H
  H19      1.0000 0.73264  0.29223  0.04659  Biso   1.000  H
  H20      1.0000 0.26736  0.79223  0.45341  Biso   1.000  H
  H21      1.0000 0.07554  0.05186  0.87214  Biso   1.000  H
  H22      1.0000 0.92446  0.55186  0.62786  Biso   1.000  H
  H23      1.0000 0.92446  0.94814  0.12786  Biso   1.000  H
  H24      1.0000 0.07554  0.44814  0.37214  Biso   1.000  H
  H25      1.0000 0.24470  0.97648  0.99171  Biso   1.000  H
  H26      1.0000 0.75530  0.47648  0.50829  Biso   1.000  H
  H27      1.0000 0.75530  0.02352  0.00829  Biso   1.000  H
  H28      1.0000 0.24470  0.52352  0.49171  Biso   1.000  H
