data_image0
_cell_length_a       18.3689
_cell_length_b       17.0722
_cell_length_c       14.3451
_cell_angle_alpha    90
_cell_angle_beta     129.96
_cell_angle_gamma    90

_symmetry_space_group_name_H-M    "P 1"
_symmetry_int_tables_number       1

loop_
  _symmetry_equiv_pos_as_xyz
  'x, y, z'

loop_
  _atom_site_label
  _atom_site_occupancy
  _atom_site_fract_x
  _atom_site_fract_y
  _atom_site_fract_z
  _atom_site_thermal_displace_type
  _atom_site_B_iso_or_equiv
  _atom_site_type_symbol
  Cu1      1.0000 0.36575  0.19010  0.24788  Biso   1.000  Cu
  Cu2      1.0000 0.86575  0.69010  0.24788  Biso   1.000  Cu
  Cu3      1.0000 0.63425  0.19010  0.25212  Biso   1.000  Cu
  Cu4      1.0000 0.13425  0.69010  0.25212  Biso   1.000  Cu
  Cu5      1.0000 0.63425  0.80990  0.75212  Biso   1.000  Cu
  Cu6      1.0000 0.13425  0.30990  0.75212  Biso   1.000  Cu
  Cu7      1.0000 0.36575  0.80990  0.74788  Biso   1.000  Cu
  Cu8      1.0000 0.86575  0.30990  0.74788  Biso   1.000  Cu
  Cu9      1.0000 0.13218  0.05988  0.24785  Biso   1.000  Cu
  Cu10     1.0000 0.63218  0.55988  0.24785  Biso   1.000  Cu
  Cu11     1.0000 0.86782  0.05988  0.25215  Biso   1.000  Cu
  Cu12     1.0000 0.36782  0.55988  0.25215  Biso   1.000  Cu
  Cu13     1.0000 0.86782  0.94012  0.75215  Biso   1.000  Cu
  Cu14     1.0000 0.36782  0.44012  0.75215  Biso   1.000  Cu
  Cu15     1.0000 0.13218  0.94012  0.74785  Biso   1.000  Cu
  Cu16     1.0000 0.63218  0.44012  0.74785  Biso   1.000  Cu
  N1       1.0000 0.29010  0.29170  0.14820  Biso   1.000  N
  N2       1.0000 0.79010  0.79170  0.14820  Biso   1.000  N
  N3       1.0000 0.70990  0.29170  0.35180  Biso   1.000  N
  N4       1.0000 0.20990  0.79170  0.35180  Biso   1.000  N
  N5       1.0000 0.70990  0.70830  0.85180  Biso   1.000  N
  N6       1.0000 0.20990  0.20830  0.85180  Biso   1.000  N
  N7       1.0000 0.29010  0.70830  0.64820  Biso   1.000  N
  N8       1.0000 0.79010  0.20830  0.64820  Biso   1.000  N
  O1       1.0000 0.16420  0.53360  0.89490  Biso   1.000  O
  O2       1.0000 0.66420  0.03360  0.89490  Biso   1.000  O
  O3       1.0000 0.83580  0.53360  0.60510  Biso   1.000  O
  O4       1.0000 0.33580  0.03360  0.60510  Biso   1.000  O
  O5       1.0000 0.83580  0.46640  0.10510  Biso   1.000  O
  O6       1.0000 0.33580  0.96640  0.10510  Biso   1.000  O
  O7       1.0000 0.16420  0.46640  0.39490  Biso   1.000  O
  O8       1.0000 0.66420  0.96640  0.39490  Biso   1.000  O
  N9       1.0000 0.10820  0.95850  0.14880  Biso   1.000  N
  N10      1.0000 0.60820  0.45850  0.14880  Biso   1.000  N
  N11      1.0000 0.89180  0.95850  0.35120  Biso   1.000  N
  N12      1.0000 0.39180  0.45850  0.35120  Biso   1.000  N
  N13      1.0000 0.89180  0.04150  0.85120  Biso   1.000  N
  N14      1.0000 0.39180  0.54150  0.85120  Biso   1.000  N
  N15      1.0000 0.10820  0.04150  0.64880  Biso   1.000  N
  N16      1.0000 0.60820  0.54150  0.64880  Biso   1.000  N
  O9       1.0000 0.98190  0.71610  0.89630  Biso   1.000  O
  O10      1.0000 0.48190  0.21610  0.89630  Biso   1.000  O
  O11      1.0000 0.01810  0.71610  0.60370  Biso   1.000  O
  O12      1.0000 0.51810  0.21610  0.60370  Biso   1.000  O
  O13      1.0000 0.01810  0.28390  0.10370  Biso   1.000  O
  O14      1.0000 0.51810  0.78390  0.10370  Biso   1.000  O
  O15      1.0000 0.98190  0.28390  0.39630  Biso   1.000  O
  O16      1.0000 0.48190  0.78390  0.39630  Biso   1.000  O
  N17      1.0000 0.29190  0.14020  0.28040  Biso   1.000  N
  N18      1.0000 0.79190  0.64020  0.28040  Biso   1.000  N
  N19      1.0000 0.70810  0.14020  0.21960  Biso   1.000  N
  N20      1.0000 0.20810  0.64020  0.21960  Biso   1.000  N
  N21      1.0000 0.70810  0.85980  0.71960  Biso   1.000  N
  N22      1.0000 0.20810  0.35980  0.71960  Biso   1.000  N
  N23      1.0000 0.29190  0.85980  0.78040  Biso   1.000  N
  N24      1.0000 0.79190  0.35980  0.78040  Biso   1.000  N
  C1       1.0000 0.21090  0.31320  0.12720  Biso   1.000  C
  C2       1.0000 0.71090  0.81320  0.12720  Biso   1.000  C
  C3       1.0000 0.78910  0.31320  0.37280  Biso   1.000  C
  C4       1.0000 0.28910  0.81320  0.37280  Biso   1.000  C
  C5       1.0000 0.78910  0.68680  0.87280  Biso   1.000  C
  C6       1.0000 0.28910  0.18680  0.87280  Biso   1.000  C
  C7       1.0000 0.21090  0.68680  0.62720  Biso   1.000  C
  C8       1.0000 0.71090  0.18680  0.62720  Biso   1.000  C
  C9       1.0000 0.15260  0.87090  0.06100  Biso   1.000  C
  C10      1.0000 0.65260  0.37090  0.06100  Biso   1.000  C
  C11      1.0000 0.84740  0.87090  0.43900  Biso   1.000  C
  C12      1.0000 0.34740  0.37090  0.43900  Biso   1.000  C
  C13      1.0000 0.84740  0.12910  0.93900  Biso   1.000  C
  C14      1.0000 0.34740  0.62910  0.93900  Biso   1.000  C
  C15      1.0000 0.15260  0.12910  0.56100  Biso   1.000  C
  C16      1.0000 0.65260  0.62910  0.56100  Biso   1.000  C
  C17      1.0000 0.13510  0.49600  0.93690  Biso   1.000  C
  C18      1.0000 0.63510  0.99600  0.93690  Biso   1.000  C
  C19      1.0000 0.86490  0.49600  0.56310  Biso   1.000  C
  C20      1.0000 0.36490  0.99600  0.56310  Biso   1.000  C
  C21      1.0000 0.86490  0.50400  0.06310  Biso   1.000  C
  C22      1.0000 0.36490  0.00400  0.06310  Biso   1.000  C
  C23      1.0000 0.13510  0.50400  0.43690  Biso   1.000  C
  C24      1.0000 0.63510  0.00400  0.43690  Biso   1.000  C
  N25      1.0000 0.46900  0.18550  0.25200  Biso   1.000  N
  N26      1.0000 0.96900  0.68550  0.25200  Biso   1.000  N
  N27      1.0000 0.53100  0.18550  0.24800  Biso   1.000  N
  N28      1.0000 0.03100  0.68550  0.24800  Biso   1.000  N
  N29      1.0000 0.53100  0.81450  0.74800  Biso   1.000  N
  N30      1.0000 0.03100  0.31450  0.74800  Biso   1.000  N
  N31      1.0000 0.46900  0.81450  0.75200  Biso   1.000  N
  N32      1.0000 0.96900  0.31450  0.75200  Biso   1.000  N
  C25      1.0000 0.07410  0.82440  0.01220  Biso   1.000  C
  C26      1.0000 0.57410  0.32440  0.01220  Biso   1.000  C
  C27      1.0000 0.92590  0.82440  0.48780  Biso   1.000  C
  C28      1.0000 0.42590  0.32440  0.48780  Biso   1.000  C
  C29      1.0000 0.92590  0.17560  0.98780  Biso   1.000  C
  C30      1.0000 0.42590  0.67560  0.98780  Biso   1.000  C
  C31      1.0000 0.07410  0.17560  0.51220  Biso   1.000  C
  C32      1.0000 0.57410  0.67560  0.51220  Biso   1.000  C
  C33      1.0000 0.03240  0.06440  0.25320  Biso   1.000  C
  C34      1.0000 0.53240  0.56440  0.25320  Biso   1.000  C
  C35      1.0000 0.96760  0.06440  0.24680  Biso   1.000  C
  C36      1.0000 0.46760  0.56440  0.24680  Biso   1.000  C
  C37      1.0000 0.96760  0.93560  0.74680  Biso   1.000  C
  C38      1.0000 0.46760  0.43560  0.74680  Biso   1.000  C
  C39      1.0000 0.03240  0.93560  0.75320  Biso   1.000  C
  C40      1.0000 0.53240  0.43560  0.75320  Biso   1.000  C
  C41      1.0000 0.23590  0.10970  0.28010  Biso   1.000  C
  C42      1.0000 0.73590  0.60970  0.28010  Biso   1.000  C
  C43      1.0000 0.76410  0.10970  0.21990  Biso   1.000  C
  C44      1.0000 0.26410  0.60970  0.21990  Biso   1.000  C
  C45      1.0000 0.76410  0.89030  0.71990  Biso   1.000  C
  C46      1.0000 0.26410  0.39030  0.71990  Biso   1.000  C
  C47      1.0000 0.23590  0.89030  0.78010  Biso   1.000  C
  C48      1.0000 0.73590  0.39030  0.78010  Biso   1.000  C
  C49      1.0000 0.05190  0.75390  0.93590  Biso   1.000  C
  C50      1.0000 0.55190  0.25390  0.93590  Biso   1.000  C
  C51      1.0000 0.94810  0.75390  0.56410  Biso   1.000  C
  C52      1.0000 0.44810  0.25390  0.56410  Biso   1.000  C
  C53      1.0000 0.94810  0.24610  0.06410  Biso   1.000  C
  C54      1.0000 0.44810  0.74610  0.06410  Biso   1.000  C
  C55      1.0000 0.05190  0.24610  0.43590  Biso   1.000  C
  C56      1.0000 0.55190  0.74610  0.43590  Biso   1.000  C
  C57      1.0000 0.18870  0.42530  0.01270  Biso   1.000  C
  C58      1.0000 0.68870  0.92530  0.01270  Biso   1.000  C
  C59      1.0000 0.81130  0.42530  0.48730  Biso   1.000  C
  C60      1.0000 0.31130  0.92530  0.48730  Biso   1.000  C
  C61      1.0000 0.81130  0.57470  0.98730  Biso   1.000  C
  C62      1.0000 0.31130  0.07470  0.98730  Biso   1.000  C
  C63      1.0000 0.18870  0.57470  0.51270  Biso   1.000  C
  C64      1.0000 0.68870  0.07470  0.51270  Biso   1.000  C
  C65      1.0000 0.03150  0.91170  0.09940  Biso   1.000  C
  C66      1.0000 0.53150  0.41170  0.09940  Biso   1.000  C
  C67      1.0000 0.96850  0.91170  0.40060  Biso   1.000  C
  C68      1.0000 0.46850  0.41170  0.40060  Biso   1.000  C
  C69      1.0000 0.96850  0.08830  0.90060  Biso   1.000  C
  C70      1.0000 0.46850  0.58830  0.90060  Biso   1.000  C
  C71      1.0000 0.03150  0.08830  0.59940  Biso   1.000  C
  C72      1.0000 0.53150  0.58830  0.59940  Biso   1.000  C
  C73      1.0000 0.31880  0.33800  0.10140  Biso   1.000  C
  C74      1.0000 0.81880  0.83800  0.10140  Biso   1.000  C
  C75      1.0000 0.68120  0.33800  0.39860  Biso   1.000  C
  C76      1.0000 0.18120  0.83800  0.39860  Biso   1.000  C
  C77      1.0000 0.68120  0.66200  0.89860  Biso   1.000  C
  C78      1.0000 0.18120  0.16200  0.89860  Biso   1.000  C
  C79      1.0000 0.31880  0.66200  0.60140  Biso   1.000  C
  C80      1.0000 0.81880  0.16200  0.60140  Biso   1.000  C
  C81      1.0000 0.16590  0.93710  0.12720  Biso   1.000  C
  C82      1.0000 0.66590  0.43710  0.12720  Biso   1.000  C
  C83      1.0000 0.83410  0.93710  0.37280  Biso   1.000  C
  C84      1.0000 0.33410  0.43710  0.37280  Biso   1.000  C
  C85      1.0000 0.83410  0.06290  0.87280  Biso   1.000  C
  C86      1.0000 0.33410  0.56290  0.87280  Biso   1.000  C
  C87      1.0000 0.16590  0.06290  0.62720  Biso   1.000  C
  C88      1.0000 0.66590  0.56290  0.62720  Biso   1.000  C
  C89      1.0000 0.01370  0.84710  0.03460  Biso   1.000  C
  C90      1.0000 0.51370  0.34710  0.03460  Biso   1.000  C
  C91      1.0000 0.98630  0.84710  0.46540  Biso   1.000  C
  C92      1.0000 0.48630  0.34710  0.46540  Biso   1.000  C
  C93      1.0000 0.98630  0.15290  0.96540  Biso   1.000  C
  C94      1.0000 0.48630  0.65290  0.96540  Biso   1.000  C
  C95      1.0000 0.01370  0.15290  0.53460  Biso   1.000  C
  C96      1.0000 0.51370  0.65290  0.53460  Biso   1.000  C
  C97      1.0000 0.15840  0.37790  0.06030  Biso   1.000  C
  C98      1.0000 0.65840  0.87790  0.06030  Biso   1.000  C
  C99      1.0000 0.84160  0.37790  0.43970  Biso   1.000  C
  C100     1.0000 0.34160  0.87790  0.43970  Biso   1.000  C
  C101     1.0000 0.84160  0.62210  0.93970  Biso   1.000  C
  C102     1.0000 0.34160  0.12210  0.93970  Biso   1.000  C
  C103     1.0000 0.15840  0.62210  0.56030  Biso   1.000  C
  C104     1.0000 0.65840  0.12210  0.56030  Biso   1.000  C
  C105     1.0000 0.27140  0.40330  0.03510  Biso   1.000  C
  C106     1.0000 0.77140  0.90330  0.03510  Biso   1.000  C
  C107     1.0000 0.72860  0.40330  0.46490  Biso   1.000  C
  C108     1.0000 0.22860  0.90330  0.46490  Biso   1.000  C
  C109     1.0000 0.72860  0.59670  0.96490  Biso   1.000  C
  C110     1.0000 0.22860  0.09670  0.96490  Biso   1.000  C
  C111     1.0000 0.27140  0.59670  0.53510  Biso   1.000  C
  C112     1.0000 0.77140  0.09670  0.53510  Biso   1.000  C
  C113     1.0000 0.04640  0.51750  0.91470  Biso   1.000  C
  C114     1.0000 0.54640  0.01750  0.91470  Biso   1.000  C
  C115     1.0000 0.95360  0.51750  0.58530  Biso   1.000  C
  C116     1.0000 0.45360  0.01750  0.58530  Biso   1.000  C
  C117     1.0000 0.95360  0.48250  0.08530  Biso   1.000  C
  C118     1.0000 0.45360  0.98250  0.08530  Biso   1.000  C
  C119     1.0000 0.04640  0.48250  0.41470  Biso   1.000  C
  C120     1.0000 0.54640  0.98250  0.41470  Biso   1.000  C
  C121     1.0000 0.11800  0.73240  0.91420  Biso   1.000  C
  C122     1.0000 0.61800  0.23240  0.91420  Biso   1.000  C
  C123     1.0000 0.88200  0.73240  0.58580  Biso   1.000  C
  C124     1.0000 0.38200  0.23240  0.58580  Biso   1.000  C
  C125     1.0000 0.88200  0.26760  0.08580  Biso   1.000  C
  C126     1.0000 0.38200  0.76760  0.08580  Biso   1.000  C
  C127     1.0000 0.11800  0.26760  0.41420  Biso   1.000  C
  C128     1.0000 0.61800  0.76760  0.41420  Biso   1.000  C
  H1       1.0000 0.18862  0.28279  0.16078  Biso   1.000  H
  H2       1.0000 0.68862  0.78279  0.16078  Biso   1.000  H
  H3       1.0000 0.81138  0.28279  0.33922  Biso   1.000  H
  H4       1.0000 0.31138  0.78279  0.33922  Biso   1.000  H
  H5       1.0000 0.81138  0.71721  0.83922  Biso   1.000  H
  H6       1.0000 0.31138  0.21721  0.83922  Biso   1.000  H
  H7       1.0000 0.18862  0.71721  0.66078  Biso   1.000  H
  H8       1.0000 0.68862  0.21721  0.66078  Biso   1.000  H
  H9       1.0000 0.19544  0.85804  0.04639  Biso   1.000  H
  H10      1.0000 0.69544  0.35804  0.04639  Biso   1.000  H
  H11      1.0000 0.80456  0.85804  0.45361  Biso   1.000  H
  H12      1.0000 0.30456  0.35804  0.45361  Biso   1.000  H
  H13      1.0000 0.80456  0.14196  0.95361  Biso   1.000  H
  H14      1.0000 0.30456  0.64196  0.95361  Biso   1.000  H
  H15      1.0000 0.19544  0.14196  0.54639  Biso   1.000  H
  H16      1.0000 0.69544  0.64196  0.54639  Biso   1.000  H
  H17      1.0000 0.98551  0.92479  0.10848  Biso   1.000  H
  H18      1.0000 0.48551  0.42479  0.10848  Biso   1.000  H
  H19      1.0000 0.01449  0.92479  0.39152  Biso   1.000  H
  H20      1.0000 0.51449  0.42479  0.39152  Biso   1.000  H
  H21      1.0000 0.01449  0.07521  0.89152  Biso   1.000  H
  H22      1.0000 0.51449  0.57521  0.89152  Biso   1.000  H
  H23      1.0000 0.98551  0.07521  0.60848  Biso   1.000  H
  H24      1.0000 0.48551  0.57521  0.60848  Biso   1.000  H
  H25      1.0000 0.37546  0.32480  0.11429  Biso   1.000  H
  H26      1.0000 0.87546  0.82480  0.11429  Biso   1.000  H
  H27      1.0000 0.62454  0.32480  0.38571  Biso   1.000  H
  H28      1.0000 0.12454  0.82480  0.38571  Biso   1.000  H
  H29      1.0000 0.62454  0.67520  0.88571  Biso   1.000  H
  H30      1.0000 0.12454  0.17520  0.88571  Biso   1.000  H
  H31      1.0000 0.37546  0.67520  0.61429  Biso   1.000  H
  H32      1.0000 0.87546  0.17520  0.61429  Biso   1.000  H
  H33      1.0000 0.22127  0.96804  0.15954  Biso   1.000  H
  H34      1.0000 0.72127  0.46804  0.15954  Biso   1.000  H
  H35      1.0000 0.77873  0.96804  0.34046  Biso   1.000  H
  H36      1.0000 0.27873  0.46804  0.34046  Biso   1.000  H
  H37      1.0000 0.77873  0.03196  0.84046  Biso   1.000  H
  H38      1.0000 0.27873  0.53196  0.84046  Biso   1.000  H
  H39      1.0000 0.22127  0.03196  0.65954  Biso   1.000  H
  H40      1.0000 0.72127  0.53196  0.65954  Biso   1.000  H
  H41      1.0000 0.95833  0.81646  0.00322  Biso   1.000  H
  H42      1.0000 0.45833  0.31646  0.00322  Biso   1.000  H
  H43      1.0000 0.04167  0.81646  0.49678  Biso   1.000  H
  H44      1.0000 0.54167  0.31646  0.49678  Biso   1.000  H
  H45      1.0000 0.04167  0.18354  0.99678  Biso   1.000  H
  H46      1.0000 0.54167  0.68354  0.99678  Biso   1.000  H
  H47      1.0000 0.95833  0.18354  0.50322  Biso   1.000  H
  H48      1.0000 0.45833  0.68354  0.50322  Biso   1.000  H
  H49      1.0000 0.10083  0.38943  0.04614  Biso   1.000  H
  H50      1.0000 0.60083  0.88943  0.04614  Biso   1.000  H
  H51      1.0000 0.89917  0.38943  0.45386  Biso   1.000  H
  H52      1.0000 0.39917  0.88943  0.45386  Biso   1.000  H
  H53      1.0000 0.89917  0.61057  0.95386  Biso   1.000  H
  H54      1.0000 0.39917  0.11057  0.95386  Biso   1.000  H
  H55      1.0000 0.10083  0.61057  0.54614  Biso   1.000  H
  H56      1.0000 0.60083  0.11057  0.54614  Biso   1.000  H
  H57      1.0000 0.29450  0.43496  0.00370  Biso   1.000  H
  H58      1.0000 0.79450  0.93496  0.00370  Biso   1.000  H
  H59      1.0000 0.70550  0.43496  0.49630  Biso   1.000  H
  H60      1.0000 0.20550  0.93496  0.49630  Biso   1.000  H
  H61      1.0000 0.70550  0.56504  0.99630  Biso   1.000  H
  H62      1.0000 0.20550  0.06504  0.99630  Biso   1.000  H
  H63      1.0000 0.29450  0.56504  0.50370  Biso   1.000  H
  H64      1.0000 0.79450  0.06504  0.50370  Biso   1.000  H
  H65      1.0000 0.03492  0.48069  0.95458  Biso   1.000  H
  H66      1.0000 0.53492  0.98069  0.95458  Biso   1.000  H
  H67      1.0000 0.96508  0.48069  0.54542  Biso   1.000  H
  H68      1.0000 0.46508  0.98069  0.54542  Biso   1.000  H
  H69      1.0000 0.96508  0.51931  0.04542  Biso   1.000  H
  H70      1.0000 0.46508  0.01931  0.04542  Biso   1.000  H
  H71      1.0000 0.03492  0.51931  0.45458  Biso   1.000  H
  H72      1.0000 0.53492  0.01931  0.45458  Biso   1.000  H
  H73      1.0000 0.99405  0.51661  0.82874  Biso   1.000  H
  H74      1.0000 0.49405  0.01661  0.82874  Biso   1.000  H
  H75      1.0000 0.00595  0.51661  0.67126  Biso   1.000  H
  H76      1.0000 0.50595  0.01661  0.67126  Biso   1.000  H
  H77      1.0000 0.00595  0.48339  0.17126  Biso   1.000  H
  H78      1.0000 0.50595  0.98339  0.17126  Biso   1.000  H
  H79      1.0000 0.99405  0.48339  0.32874  Biso   1.000  H
  H80      1.0000 0.49405  0.98339  0.32874  Biso   1.000  H
  H81      1.0000 0.05285  0.56912  0.94570  Biso   1.000  H
  H82      1.0000 0.55285  0.06912  0.94570  Biso   1.000  H
  H83      1.0000 0.94715  0.56912  0.55430  Biso   1.000  H
  H84      1.0000 0.44715  0.06912  0.55430  Biso   1.000  H
  H85      1.0000 0.94715  0.43088  0.05430  Biso   1.000  H
  H86      1.0000 0.44715  0.93088  0.05430  Biso   1.000  H
  H87      1.0000 0.05285  0.43088  0.44570  Biso   1.000  H
  H88      1.0000 0.55285  0.93088  0.44570  Biso   1.000  H
  H89      1.0000 0.16854  0.77018  0.95378  Biso   1.000  H
  H90      1.0000 0.66854  0.27018  0.95378  Biso   1.000  H
  H91      1.0000 0.83146  0.77018  0.54622  Biso   1.000  H
  H92      1.0000 0.33146  0.27018  0.54622  Biso   1.000  H
  H93      1.0000 0.83146  0.22982  0.04622  Biso   1.000  H
  H94      1.0000 0.33146  0.72982  0.04622  Biso   1.000  H
  H95      1.0000 0.16854  0.22982  0.45378  Biso   1.000  H
  H96      1.0000 0.66854  0.72982  0.45378  Biso   1.000  H
  H97      1.0000 0.08451  0.73293  0.82832  Biso   1.000  H
  H98      1.0000 0.58451  0.23293  0.82832  Biso   1.000  H
  H99      1.0000 0.91549  0.73293  0.67168  Biso   1.000  H
  H100     1.0000 0.41549  0.23293  0.67168  Biso   1.000  H
  H101     1.0000 0.91549  0.26707  0.17168  Biso   1.000  H
  H102     1.0000 0.41549  0.76707  0.17168  Biso   1.000  H
  H103     1.0000 0.08451  0.26707  0.32832  Biso   1.000  H
  H104     1.0000 0.58451  0.76707  0.32832  Biso   1.000  H
  H105     1.0000 0.14402  0.68123  0.94614  Biso   1.000  H
  H106     1.0000 0.64402  0.18123  0.94614  Biso   1.000  H
  H107     1.0000 0.85598  0.68123  0.55386  Biso   1.000  H
  H108     1.0000 0.35598  0.18123  0.55386  Biso   1.000  H
  H109     1.0000 0.85598  0.31877  0.05386  Biso   1.000  H
  H110     1.0000 0.35598  0.81877  0.05386  Biso   1.000  H
  H111     1.0000 0.14402  0.31877  0.44614  Biso   1.000  H
  H112     1.0000 0.64402  0.81877  0.44614  Biso   1.000  H
