data_image0
_cell_length_a       13.8445
_cell_length_b       13.8445
_cell_length_c       6.7902
_cell_angle_alpha    90
_cell_angle_beta     90
_cell_angle_gamma    90

_symmetry_space_group_name_H-M    "P 1"
_symmetry_int_tables_number       1

loop_
  _symmetry_equiv_pos_as_xyz
  'x, y, z'

loop_
  _atom_site_label
  _atom_site_occupancy
  _atom_site_fract_x
  _atom_site_fract_y
  _atom_site_fract_z
  _atom_site_thermal_displace_type
  _atom_site_B_iso_or_equiv
  _atom_site_type_symbol
  B1       1.0000 0.28300  0.36850  0.62800  Biso   1.000  B
  B2       1.0000 0.21700  0.13150  0.62800  Biso   1.000  B
  B3       1.0000 0.13150  0.28300  0.62800  Biso   1.000  B
  B4       1.0000 0.36850  0.21700  0.62800  Biso   1.000  B
  B5       1.0000 0.71700  0.63150  0.37200  Biso   1.000  B
  B6       1.0000 0.78300  0.86850  0.37200  Biso   1.000  B
  B7       1.0000 0.86850  0.71700  0.37200  Biso   1.000  B
  B8       1.0000 0.63150  0.78300  0.37200  Biso   1.000  B
  H1       1.0000 0.31040  0.44440  0.64130  Biso   1.000  H
  H2       1.0000 0.18960  0.05560  0.64130  Biso   1.000  H
  H3       1.0000 0.05560  0.31040  0.64130  Biso   1.000  H
  H4       1.0000 0.44440  0.18960  0.64130  Biso   1.000  H
  H5       1.0000 0.68960  0.55560  0.35870  Biso   1.000  H
  H6       1.0000 0.81040  0.94440  0.35870  Biso   1.000  H
  H7       1.0000 0.94440  0.68960  0.35870  Biso   1.000  H
  H8       1.0000 0.55560  0.81040  0.35870  Biso   1.000  H
  B9       1.0000 0.25500  0.28990  0.42600  Biso   1.000  B
  B10      1.0000 0.24500  0.21010  0.42600  Biso   1.000  B
  B11      1.0000 0.21010  0.25500  0.42600  Biso   1.000  B
  B12      1.0000 0.28990  0.24500  0.42600  Biso   1.000  B
  B13      1.0000 0.74500  0.71010  0.57400  Biso   1.000  B
  B14      1.0000 0.75500  0.78990  0.57400  Biso   1.000  B
  B15      1.0000 0.78990  0.74500  0.57400  Biso   1.000  B
  B16      1.0000 0.71010  0.75500  0.57400  Biso   1.000  B
  H9       1.0000 0.27500  0.33800  0.30300  Biso   1.000  H
  H10      1.0000 0.22500  0.16200  0.30300  Biso   1.000  H
  H11      1.0000 0.16200  0.27500  0.30300  Biso   1.000  H
  H12      1.0000 0.33800  0.22500  0.30300  Biso   1.000  H
  H13      1.0000 0.72500  0.66200  0.69700  Biso   1.000  H
  H14      1.0000 0.77500  0.83800  0.69700  Biso   1.000  H
  H15      1.0000 0.83800  0.72500  0.69700  Biso   1.000  H
  H16      1.0000 0.66200  0.77500  0.69700  Biso   1.000  H
  B17      1.0000 0.33950  0.25160  0.61200  Biso   1.000  B
  B18      1.0000 0.16050  0.24840  0.61200  Biso   1.000  B
  B19      1.0000 0.24840  0.33950  0.61200  Biso   1.000  B
  B20      1.0000 0.25160  0.16050  0.61200  Biso   1.000  B
  B21      1.0000 0.66050  0.74840  0.38800  Biso   1.000  B
  B22      1.0000 0.83950  0.75160  0.38800  Biso   1.000  B
  B23      1.0000 0.75160  0.66050  0.38800  Biso   1.000  B
  B24      1.0000 0.74840  0.83950  0.38800  Biso   1.000  B
  H17      1.0000 0.42040  0.25320  0.61590  Biso   1.000  H
  H18      1.0000 0.07960  0.24680  0.61590  Biso   1.000  H
  H19      1.0000 0.24680  0.42040  0.61590  Biso   1.000  H
  H20      1.0000 0.25320  0.07960  0.61590  Biso   1.000  H
  H21      1.0000 0.57960  0.74680  0.38410  Biso   1.000  H
  H22      1.0000 0.92040  0.75320  0.38410  Biso   1.000  H
  H23      1.0000 0.75320  0.57960  0.38410  Biso   1.000  H
  H24      1.0000 0.74680  0.92040  0.38410  Biso   1.000  H
  B25      1.0000 0.25090  0.27580  0.80090  Biso   1.000  B
  B26      1.0000 0.24910  0.22420  0.80090  Biso   1.000  B
  B27      1.0000 0.22420  0.25090  0.80090  Biso   1.000  B
  B28      1.0000 0.27580  0.24910  0.80090  Biso   1.000  B
  B29      1.0000 0.74910  0.72420  0.19910  Biso   1.000  B
  B30      1.0000 0.75090  0.77580  0.19910  Biso   1.000  B
  B31      1.0000 0.77580  0.74910  0.19910  Biso   1.000  B
  B32      1.0000 0.72420  0.75090  0.19910  Biso   1.000  B
  H25      1.0000 0.30000  0.31000  0.91000  Biso   1.000  H
  H26      1.0000 0.20000  0.19000  0.91000  Biso   1.000  H
  H27      1.0000 0.19000  0.30000  0.91000  Biso   1.000  H
  H28      1.0000 0.31000  0.20000  0.91000  Biso   1.000  H
  H29      1.0000 0.70000  0.69000  0.09000  Biso   1.000  H
  H30      1.0000 0.80000  0.81000  0.09000  Biso   1.000  H
  H31      1.0000 0.81000  0.70000  0.09000  Biso   1.000  H
  H32      1.0000 0.69000  0.80000  0.09000  Biso   1.000  H
  B33      1.0000 0.16610  0.31310  0.61400  Biso   1.000  B
  B34      1.0000 0.33390  0.18690  0.61400  Biso   1.000  B
  B35      1.0000 0.18690  0.16610  0.61400  Biso   1.000  B
  B36      1.0000 0.31310  0.33390  0.61400  Biso   1.000  B
  B37      1.0000 0.83390  0.68690  0.38600  Biso   1.000  B
  B38      1.0000 0.66610  0.81310  0.38600  Biso   1.000  B
  B39      1.0000 0.81310  0.83390  0.38600  Biso   1.000  B
  B40      1.0000 0.68690  0.66610  0.38600  Biso   1.000  B
  H33      1.0000 0.10440  0.36540  0.61990  Biso   1.000  H
  H34      1.0000 0.39560  0.13460  0.61990  Biso   1.000  H
  H35      1.0000 0.13460  0.10440  0.61990  Biso   1.000  H
  H36      1.0000 0.36540  0.39560  0.61990  Biso   1.000  H
  H37      1.0000 0.89560  0.63460  0.38010  Biso   1.000  H
  H38      1.0000 0.60440  0.86540  0.38010  Biso   1.000  H
  H39      1.0000 0.86540  0.89560  0.38010  Biso   1.000  H
  H40      1.0000 0.63460  0.60440  0.38010  Biso   1.000  H
  B41      1.0000 0.27900  0.16330  0.46200  Biso   1.000  B
  B42      1.0000 0.22100  0.33670  0.46200  Biso   1.000  B
  B43      1.0000 0.33670  0.27900  0.46200  Biso   1.000  B
  B44      1.0000 0.16330  0.22100  0.46200  Biso   1.000  B
  B45      1.0000 0.72100  0.83670  0.53800  Biso   1.000  B
  B46      1.0000 0.77900  0.66330  0.53800  Biso   1.000  B
  B47      1.0000 0.66330  0.72100  0.53800  Biso   1.000  B
  B48      1.0000 0.83670  0.77900  0.53800  Biso   1.000  B
  H41      1.0000 0.32070  0.12240  0.34800  Biso   1.000  H
  H42      1.0000 0.17930  0.37760  0.34800  Biso   1.000  H
  H43      1.0000 0.37760  0.32070  0.34800  Biso   1.000  H
  H44      1.0000 0.12240  0.17930  0.34800  Biso   1.000  H
  H45      1.0000 0.67930  0.87760  0.65200  Biso   1.000  H
  H46      1.0000 0.82070  0.62240  0.65200  Biso   1.000  H
  H47      1.0000 0.62240  0.67930  0.65200  Biso   1.000  H
  H48      1.0000 0.87760  0.82070  0.65200  Biso   1.000  H
  B49      1.0000 0.27620  0.15330  0.72700  Biso   1.000  B
  B50      1.0000 0.22380  0.34670  0.72700  Biso   1.000  B
  B51      1.0000 0.34670  0.27620  0.72700  Biso   1.000  B
  B52      1.0000 0.15330  0.22380  0.72700  Biso   1.000  B
  B53      1.0000 0.72380  0.84670  0.27300  Biso   1.000  B
  B54      1.0000 0.77620  0.65330  0.27300  Biso   1.000  B
  B55      1.0000 0.65330  0.72380  0.27300  Biso   1.000  B
  B56      1.0000 0.84670  0.77620  0.27300  Biso   1.000  B
  H49      1.0000 0.31570  0.10410  0.83030  Biso   1.000  H
  H50      1.0000 0.18430  0.39590  0.83030  Biso   1.000  H
  H51      1.0000 0.39590  0.31570  0.83030  Biso   1.000  H
  H52      1.0000 0.10410  0.18430  0.83030  Biso   1.000  H
  H53      1.0000 0.68430  0.89590  0.16970  Biso   1.000  H
  H54      1.0000 0.81570  0.60410  0.16970  Biso   1.000  H
  H55      1.0000 0.60410  0.68430  0.16970  Biso   1.000  H
  H56      1.0000 0.89590  0.81570  0.16970  Biso   1.000  H
  B57      1.0000 0.15380  0.19670  0.72900  Biso   1.000  B
  B58      1.0000 0.34620  0.30330  0.72900  Biso   1.000  B
  B59      1.0000 0.30330  0.15380  0.72900  Biso   1.000  B
  B60      1.0000 0.19670  0.34620  0.72900  Biso   1.000  B
  B61      1.0000 0.84620  0.80330  0.27100  Biso   1.000  B
  B62      1.0000 0.65380  0.69670  0.27100  Biso   1.000  B
  B63      1.0000 0.69670  0.84620  0.27100  Biso   1.000  B
  B64      1.0000 0.80330  0.65380  0.27100  Biso   1.000  B
  H57      1.0000 0.09280  0.18310  0.83360  Biso   1.000  H
  H58      1.0000 0.40720  0.31690  0.83360  Biso   1.000  H
  H59      1.0000 0.31690  0.09280  0.83360  Biso   1.000  H
  H60      1.0000 0.18310  0.40720  0.83360  Biso   1.000  H
  H61      1.0000 0.90720  0.81690  0.16640  Biso   1.000  H
  H62      1.0000 0.59280  0.68310  0.16640  Biso   1.000  H
  H63      1.0000 0.68310  0.90720  0.16640  Biso   1.000  H
  H64      1.0000 0.81690  0.59280  0.16640  Biso   1.000  H
  B65      1.0000 0.15660  0.20670  0.46400  Biso   1.000  B
  B66      1.0000 0.34340  0.29330  0.46400  Biso   1.000  B
  B67      1.0000 0.29330  0.15660  0.46400  Biso   1.000  B
  B68      1.0000 0.20670  0.34340  0.46400  Biso   1.000  B
  B69      1.0000 0.84340  0.79330  0.53600  Biso   1.000  B
  B70      1.0000 0.65660  0.70670  0.53600  Biso   1.000  B
  B71      1.0000 0.70670  0.84340  0.53600  Biso   1.000  B
  B72      1.0000 0.79330  0.65660  0.53600  Biso   1.000  B
  H65      1.0000 0.09770  0.20130  0.35150  Biso   1.000  H
  H66      1.0000 0.40230  0.29870  0.35150  Biso   1.000  H
  H67      1.0000 0.29870  0.09770  0.35150  Biso   1.000  H
  H68      1.0000 0.20130  0.40230  0.35150  Biso   1.000  H
  H69      1.0000 0.90230  0.79870  0.64850  Biso   1.000  H
  H70      1.0000 0.59770  0.70130  0.64850  Biso   1.000  H
  H71      1.0000 0.70130  0.90230  0.64850  Biso   1.000  H
  H72      1.0000 0.79870  0.59770  0.64850  Biso   1.000  H
  H73      1.0000 0.15870  0.01770  0.56760  Biso   1.000  H
  H74      1.0000 0.34130  0.48230  0.56760  Biso   1.000  H
  H75      1.0000 0.48230  0.15870  0.56760  Biso   1.000  H
  H76      1.0000 0.01770  0.34130  0.56760  Biso   1.000  H
  H77      1.0000 0.84130  0.98230  0.43240  Biso   1.000  H
  H78      1.0000 0.65870  0.51770  0.43240  Biso   1.000  H
  H79      1.0000 0.51770  0.84130  0.43240  Biso   1.000  H
  H80      1.0000 0.98230  0.65870  0.43240  Biso   1.000  H
  Cu1      1.0000 0.25000  0.25000  0.11864  Biso   1.000  Cu
  Cu2      1.0000 0.75000  0.75000  0.88136  Biso   1.000  Cu
  B73      1.0000 0.18570  0.09370  0.58100  Biso   1.000  B
  B74      1.0000 0.31430  0.40630  0.58100  Biso   1.000  B
  B75      1.0000 0.40630  0.18570  0.58100  Biso   1.000  B
  B76      1.0000 0.09370  0.31430  0.58100  Biso   1.000  B
  B77      1.0000 0.81430  0.90630  0.41900  Biso   1.000  B
  B78      1.0000 0.68570  0.59370  0.41900  Biso   1.000  B
  B79      1.0000 0.59370  0.81430  0.41900  Biso   1.000  B
  B80      1.0000 0.90630  0.68570  0.41900  Biso   1.000  B
  P1       1.0000 0.75000  0.25000  0.50000  Biso   1.000  P
  P2       1.0000 0.25000  0.75000  0.50000  Biso   1.000  P
  C1       1.0000 0.80150  0.15840  0.65370  Biso   1.000  C
  C2       1.0000 0.69850  0.34160  0.65370  Biso   1.000  C
  C3       1.0000 0.34160  0.80150  0.65370  Biso   1.000  C
  C4       1.0000 0.15840  0.69850  0.65370  Biso   1.000  C
  C5       1.0000 0.19850  0.84160  0.34630  Biso   1.000  C
  C6       1.0000 0.30150  0.65840  0.34630  Biso   1.000  C
  C7       1.0000 0.65840  0.19850  0.34630  Biso   1.000  C
  C8       1.0000 0.84160  0.30150  0.34630  Biso   1.000  C
  C9       1.0000 0.74400  0.11870  0.80220  Biso   1.000  C
  C10      1.0000 0.75600  0.38130  0.80220  Biso   1.000  C
  C11      1.0000 0.38130  0.74400  0.80220  Biso   1.000  C
  C12      1.0000 0.11870  0.75600  0.80220  Biso   1.000  C
  C13      1.0000 0.25600  0.88130  0.19780  Biso   1.000  C
  C14      1.0000 0.24400  0.61870  0.19780  Biso   1.000  C
  C15      1.0000 0.61870  0.25600  0.19780  Biso   1.000  C
  C16      1.0000 0.88130  0.24400  0.19780  Biso   1.000  C
  H81      1.0000 0.68080  0.14310  0.82420  Biso   1.000  H
  H82      1.0000 0.81920  0.35690  0.82420  Biso   1.000  H
  H83      1.0000 0.35690  0.68080  0.82420  Biso   1.000  H
  H84      1.0000 0.14310  0.81920  0.82420  Biso   1.000  H
  H85      1.0000 0.31920  0.85690  0.17580  Biso   1.000  H
  H86      1.0000 0.18080  0.64310  0.17580  Biso   1.000  H
  H87      1.0000 0.64310  0.31920  0.17580  Biso   1.000  H
  H88      1.0000 0.85690  0.18080  0.17580  Biso   1.000  H
  C17      1.0000 0.77920  0.04360  0.91770  Biso   1.000  C
  C18      1.0000 0.72080  0.45640  0.91770  Biso   1.000  C
  C19      1.0000 0.45640  0.77920  0.91770  Biso   1.000  C
  C20      1.0000 0.04360  0.72080  0.91770  Biso   1.000  C
  C21      1.0000 0.22080  0.95640  0.08230  Biso   1.000  C
  C22      1.0000 0.27920  0.54360  0.08230  Biso   1.000  C
  C23      1.0000 0.54360  0.22080  0.08230  Biso   1.000  C
  C24      1.0000 0.95640  0.27920  0.08230  Biso   1.000  C
  H89      1.0000 0.73950  0.01560  0.01670  Biso   1.000  H
  H90      1.0000 0.76050  0.48440  0.01670  Biso   1.000  H
  H91      1.0000 0.48440  0.73950  0.01670  Biso   1.000  H
  H92      1.0000 0.01560  0.76050  0.01670  Biso   1.000  H
  H93      1.0000 0.26050  0.98440  0.98330  Biso   1.000  H
  H94      1.0000 0.23950  0.51560  0.98330  Biso   1.000  H
  H95      1.0000 0.51560  0.26050  0.98330  Biso   1.000  H
  H96      1.0000 0.98440  0.23950  0.98330  Biso   1.000  H
  C25      1.0000 0.87120  0.00990  0.88840  Biso   1.000  C
  C26      1.0000 0.62880  0.49010  0.88840  Biso   1.000  C
  C27      1.0000 0.49010  0.87120  0.88840  Biso   1.000  C
  C28      1.0000 0.00990  0.62880  0.88840  Biso   1.000  C
  C29      1.0000 0.12880  0.99010  0.11160  Biso   1.000  C
  C30      1.0000 0.37120  0.50990  0.11160  Biso   1.000  C
  C31      1.0000 0.50990  0.12880  0.11160  Biso   1.000  C
  C32      1.0000 0.99010  0.37120  0.11160  Biso   1.000  C
  H97      1.0000 0.89490  0.95850  0.96750  Biso   1.000  H
  H98      1.0000 0.60510  0.54150  0.96750  Biso   1.000  H
  H99      1.0000 0.54150  0.89490  0.96750  Biso   1.000  H
  H100     1.0000 0.95850  0.60510  0.96750  Biso   1.000  H
  H101     1.0000 0.10510  0.04150  0.03250  Biso   1.000  H
  H102     1.0000 0.39490  0.45850  0.03250  Biso   1.000  H
  H103     1.0000 0.45850  0.10510  0.03250  Biso   1.000  H
  H104     1.0000 0.04150  0.39490  0.03250  Biso   1.000  H
  C33      1.0000 0.92940  0.04930  0.74690  Biso   1.000  C
  C34      1.0000 0.57060  0.45070  0.74690  Biso   1.000  C
  C35      1.0000 0.45070  0.92940  0.74690  Biso   1.000  C
  C36      1.0000 0.04930  0.57060  0.74690  Biso   1.000  C
  C37      1.0000 0.07060  0.95070  0.25310  Biso   1.000  C
  C38      1.0000 0.42940  0.54930  0.25310  Biso   1.000  C
  C39      1.0000 0.54930  0.07060  0.25310  Biso   1.000  C
  C40      1.0000 0.95070  0.42940  0.25310  Biso   1.000  C
  H105     1.0000 0.99330  0.02570  0.72970  Biso   1.000  H
  H106     1.0000 0.50670  0.47430  0.72970  Biso   1.000  H
  H107     1.0000 0.47430  0.99330  0.72970  Biso   1.000  H
  H108     1.0000 0.02570  0.50670  0.72970  Biso   1.000  H
  H109     1.0000 0.00670  0.97430  0.27030  Biso   1.000  H
  H110     1.0000 0.49330  0.52570  0.27030  Biso   1.000  H
  H111     1.0000 0.52570  0.00670  0.27030  Biso   1.000  H
  H112     1.0000 0.97430  0.49330  0.27030  Biso   1.000  H
  C41      1.0000 0.89490  0.12470  0.62650  Biso   1.000  C
  C42      1.0000 0.60510  0.37530  0.62650  Biso   1.000  C
  C43      1.0000 0.37530  0.89490  0.62650  Biso   1.000  C
  C44      1.0000 0.12470  0.60510  0.62650  Biso   1.000  C
  C45      1.0000 0.10510  0.87530  0.37350  Biso   1.000  C
  C46      1.0000 0.39490  0.62470  0.37350  Biso   1.000  C
  C47      1.0000 0.62470  0.10510  0.37350  Biso   1.000  C
  C48      1.0000 0.87530  0.39490  0.37350  Biso   1.000  C
  H113     1.0000 0.93520  0.15220  0.52800  Biso   1.000  H
  H114     1.0000 0.56480  0.34780  0.52800  Biso   1.000  H
  H115     1.0000 0.34780  0.93520  0.52800  Biso   1.000  H
  H116     1.0000 0.15220  0.56480  0.52800  Biso   1.000  H
  H117     1.0000 0.06480  0.84780  0.47200  Biso   1.000  H
  H118     1.0000 0.43520  0.65220  0.47200  Biso   1.000  H
  H119     1.0000 0.65220  0.06480  0.47200  Biso   1.000  H
  H120     1.0000 0.84780  0.43520  0.47200  Biso   1.000  H
