data_image0
_cell_length_a       14.0574
_cell_length_b       16.8368
_cell_length_c       17.7546
_cell_angle_alpha    77.782
_cell_angle_beta     68.041
_cell_angle_gamma    67.392

_symmetry_space_group_name_H-M    "P 1"
_symmetry_int_tables_number       1

loop_
  _symmetry_equiv_pos_as_xyz
  'x, y, z'

loop_
  _atom_site_label
  _atom_site_occupancy
  _atom_site_fract_x
  _atom_site_fract_y
  _atom_site_fract_z
  _atom_site_thermal_displace_type
  _atom_site_B_iso_or_equiv
  _atom_site_type_symbol
  Cu1      1.0000 0.36355  0.26016  0.82743  Biso   1.000  Cu
  Cu2      1.0000 0.63645  0.73984  0.17257  Biso   1.000  Cu
  Cu3      1.0000 0.11572  0.26552  0.80797  Biso   1.000  Cu
  Cu4      1.0000 0.88428  0.73448  0.19203  Biso   1.000  Cu
  Cu5      1.0000 0.88788  0.25046  0.77788  Biso   1.000  Cu
  Cu6      1.0000 0.11212  0.74954  0.22212  Biso   1.000  Cu
  Cu7      1.0000 0.63363  0.23210  0.81352  Biso   1.000  Cu
  Cu8      1.0000 0.36637  0.76790  0.18648  Biso   1.000  Cu
  Cu9      1.0000 0.95142  0.67911  0.77138  Biso   1.000  Cu
  Cu10     1.0000 0.04858  0.32089  0.22862  Biso   1.000  Cu
  Cu11     1.0000 0.91810  0.83197  0.67532  Biso   1.000  Cu
  Cu12     1.0000 0.08190  0.16803  0.32468  Biso   1.000  Cu
  Cu13     1.0000 0.75313  0.79009  0.77920  Biso   1.000  Cu
  Cu14     1.0000 0.24687  0.20991  0.22080  Biso   1.000  Cu
  Cu15     1.0000 0.11456  0.29828  0.35745  Biso   1.000  Cu
  Cu16     1.0000 0.88544  0.70172  0.64255  Biso   1.000  Cu
  I1       1.0000 0.55517  0.15854  0.74562  Biso   1.000  I
  I2       1.0000 0.44483  0.84146  0.25438  Biso   1.000  I
  I3       1.0000 0.22146  0.18090  0.90875  Biso   1.000  I
  I4       1.0000 0.77854  0.81910  0.09125  Biso   1.000  I
  I5       1.0000 0.90637  0.33789  0.87664  Biso   1.000  I
  I6       1.0000 0.09363  0.66211  0.12336  Biso   1.000  I
  I7       1.0000 0.73592  0.33692  0.71288  Biso   1.000  I
  I8       1.0000 0.26408  0.66308  0.28712  Biso   1.000  I
  I9       1.0000 0.08960  0.69881  0.61525  Biso   1.000  I
  I10      1.0000 0.91040  0.30119  0.38475  Biso   1.000  I
  I11      1.0000 0.79145  0.62165  0.77987  Biso   1.000  I
  I12      1.0000 0.20855  0.37835  0.22013  Biso   1.000  I
  I13      1.0000 0.26347  0.13401  0.36385  Biso   1.000  I
  I14      1.0000 0.73653  0.86599  0.63615  Biso   1.000  I
  I15      1.0000 0.89313  0.82616  0.83328  Biso   1.000  I
  I16      1.0000 0.10687  0.17384  0.16672  Biso   1.000  I
  N1       1.0000 0.29070  0.35190  0.75330  Biso   1.000  N
  N2       1.0000 0.70930  0.64810  0.24670  Biso   1.000  N
  N3       1.0000 0.20170  0.35270  0.74340  Biso   1.000  N
  N4       1.0000 0.79830  0.64730  0.25660  Biso   1.000  N
  N5       1.0000 0.17430  0.42100  0.69160  Biso   1.000  N
  N6       1.0000 0.82570  0.57900  0.30840  Biso   1.000  N
  N7       1.0000 0.09940  0.35400  0.45470  Biso   1.000  N
  N8       1.0000 0.90060  0.64600  0.54530  Biso   1.000  N
  N9       1.0000 0.13230  0.20420  0.71420  Biso   1.000  N
  N10      1.0000 0.86770  0.79580  0.28580  Biso   1.000  N
  N11      1.0000 0.04670  0.21320  0.69400  Biso   1.000  N
  N12      1.0000 0.95330  0.78680  0.30600  Biso   1.000  N
  N13      1.0000 0.08570  0.18300  0.61990  Biso   1.000  N
  N14      1.0000 0.91430  0.81700  0.38010  Biso   1.000  N
  N15      1.0000 0.95080  0.94310  0.63250  Biso   1.000  N
  N16      1.0000 0.04920  0.05690  0.36750  Biso   1.000  N
  N17      1.0000 0.84650  0.14730  0.84790  Biso   1.000  N
  N18      1.0000 0.15350  0.85270  0.15210  Biso   1.000  N
  N19      1.0000 0.75250  0.13810  0.86000  Biso   1.000  N
  N20      1.0000 0.24750  0.86190  0.14000  Biso   1.000  N
  N21      1.0000 0.75080  0.06520  0.90910  Biso   1.000  N
  N22      1.0000 0.24920  0.93480  0.09090  Biso   1.000  N
  N23      1.0000 0.50000  0.31250  0.89320  Biso   1.000  N
  N24      1.0000 0.50000  0.68750  0.10680  Biso   1.000  N
  N25      1.0000 0.39950  0.32060  0.90080  Biso   1.000  N
  N26      1.0000 0.60050  0.67940  0.09920  Biso   1.000  N
  N27      1.0000 0.33330  0.37470  0.95780  Biso   1.000  N
  N28      1.0000 0.66670  0.62530  0.04220  Biso   1.000  N
  N29      1.0000 0.04000  0.58830  0.83850  Biso   1.000  N
  N30      1.0000 0.96000  0.41170  0.16150  Biso   1.000  N
  N31      1.0000 0.38590  0.15490  0.13190  Biso   1.000  N
  N32      1.0000 0.61410  0.84510  0.86810  Biso   1.000  N
  C1       1.0000 0.31920  0.42080  0.70950  Biso   1.000  C
  C2       1.0000 0.68080  0.57920  0.29050  Biso   1.000  C
  C3       1.0000 0.24570  0.46380  0.66890  Biso   1.000  C
  C4       1.0000 0.75430  0.53620  0.33110  Biso   1.000  C
  H1       1.0000 0.24500  0.51330  0.63240  Biso   1.000  H
  H2       1.0000 0.75500  0.48670  0.36760  Biso   1.000  H
  C5       1.0000 0.07470  0.44420  0.67260  Biso   1.000  C
  C6       1.0000 0.92530  0.55580  0.32740  Biso   1.000  C
  H3       1.0000 0.04250  0.50720  0.66820  Biso   1.000  H
  H4       1.0000 0.95750  0.49280  0.33180  Biso   1.000  H
  H5       1.0000 0.02310  0.42210  0.71810  Biso   1.000  H
  H6       1.0000 0.97690  0.57790  0.28190  Biso   1.000  H
  C7       1.0000 0.00470  0.38420  0.51290  Biso   1.000  C
  C8       1.0000 0.99530  0.61580  0.48710  Biso   1.000  C
  H7       1.0000 0.94100  0.38600  0.50550  Biso   1.000  H
  H8       1.0000 0.05900  0.61400  0.49450  Biso   1.000  H
  C9       1.0000 0.99510  0.41310  0.58390  Biso   1.000  C
  C10      1.0000 0.00490  0.58690  0.41610  Biso   1.000  C
  H9       1.0000 0.92650  0.43380  0.62340  Biso   1.000  H
  H10      1.0000 0.07350  0.56620  0.37660  Biso   1.000  H
  C11      1.0000 0.08840  0.41110  0.59560  Biso   1.000  C
  C12      1.0000 0.91160  0.58890  0.40440  Biso   1.000  C
  C13      1.0000 0.18640  0.38120  0.53450  Biso   1.000  C
  C14      1.0000 0.81360  0.61880  0.46550  Biso   1.000  C
  H11      1.0000 0.25130  0.37940  0.53980  Biso   1.000  H
  H12      1.0000 0.74870  0.62060  0.46020  Biso   1.000  H
  C15      1.0000 0.18840  0.35420  0.46570  Biso   1.000  C
  C16      1.0000 0.81160  0.64580  0.53430  Biso   1.000  C
  H13      1.0000 0.25570  0.33500  0.42450  Biso   1.000  H
  H14      1.0000 0.74430  0.66500  0.57550  Biso   1.000  H
  C17      1.0000 0.22420  0.16650  0.65460  Biso   1.000  C
  C18      1.0000 0.77580  0.83350  0.34540  Biso   1.000  C
  C19      1.0000 0.19470  0.15420  0.59430  Biso   1.000  C
  C20      1.0000 0.80530  0.84580  0.40570  Biso   1.000  C
  H15      1.0000 0.24150  0.13040  0.54470  Biso   1.000  H
  H16      1.0000 0.75850  0.86960  0.45530  Biso   1.000  H
  C21      1.0000 0.01160  0.18310  0.57990  Biso   1.000  C
  C22      1.0000 0.98840  0.81690  0.42010  Biso   1.000  C
  H17      1.0000 0.04270  0.19440  0.52100  Biso   1.000  H
  H18      1.0000 0.95730  0.80560  0.47900  Biso   1.000  H
  H19      1.0000 0.94200  0.22960  0.59910  Biso   1.000  H
  H20      1.0000 0.05800  0.77040  0.40090  Biso   1.000  H
  C23      1.0000 0.04890  0.94750  0.58680  Biso   1.000  C
  C24      1.0000 0.95110  0.05250  0.41320  Biso   1.000  C
  H21      1.0000 0.10480  0.89640  0.56680  Biso   1.000  H
  H22      1.0000 0.89520  0.10360  0.43320  Biso   1.000  H
  C25      1.0000 0.07210  0.02280  0.56740  Biso   1.000  C
  C26      1.0000 0.92790  0.97720  0.43260  Biso   1.000  C
  H23      1.0000 0.14210  0.02290  0.53420  Biso   1.000  H
  H24      1.0000 0.85790  0.97710  0.46580  Biso   1.000  H
  C27      1.0000 0.99160  0.09840  0.59720  Biso   1.000  C
  C28      1.0000 0.00840  0.90160  0.40280  Biso   1.000  C
  C29      1.0000 0.88920  0.09520  0.64230  Biso   1.000  C
  C30      1.0000 0.11080  0.90480  0.35770  Biso   1.000  C
  H25      1.0000 0.83150  0.14570  0.66170  Biso   1.000  H
  H26      1.0000 0.16850  0.85430  0.33830  Biso   1.000  H
  C31      1.0000 0.87230  0.01570  0.65900  Biso   1.000  C
  C32      1.0000 0.12770  0.98430  0.34100  Biso   1.000  C
  H27      1.0000 0.80240  0.01380  0.69030  Biso   1.000  H
  H28      1.0000 0.19760  0.98620  0.30970  Biso   1.000  H
  C33      1.0000 0.90430  0.08030  0.88890  Biso   1.000  C
  C34      1.0000 0.09570  0.91970  0.11110  Biso   1.000  C
  C35      1.0000 0.84300  0.02830  0.92710  Biso   1.000  C
  C36      1.0000 0.15700  0.97170  0.07290  Biso   1.000  C
  H29      1.0000 0.86200  0.97670  0.95960  Biso   1.000  H
  H30      1.0000 0.13800  0.02330  0.04040  Biso   1.000  H
  C37      1.0000 0.01660  0.06920  0.88590  Biso   1.000  C
  C38      1.0000 0.98340  0.93080  0.11410  Biso   1.000  C
  H31      1.0000 0.01460  0.07420  0.94050  Biso   1.000  H
  H32      1.0000 0.98540  0.92580  0.05950  Biso   1.000  H
  H33      1.0000 0.03930  0.11590  0.84960  Biso   1.000  H
  H34      1.0000 0.96070  0.88410  0.15040  Biso   1.000  H
  C39      1.0000 0.09950  0.98420  0.85670  Biso   1.000  C
  C40      1.0000 0.90050  0.01580  0.14330  Biso   1.000  C
  H35      1.0000 0.17060  0.98190  0.85600  Biso   1.000  H
  H36      1.0000 0.82940  0.01810  0.14400  Biso   1.000  H
  H37      1.0000 0.08010  0.93790  0.89600  Biso   1.000  H
  H38      1.0000 0.91990  0.06210  0.10400  Biso   1.000  H
  C41      1.0000 0.11000  0.96750  0.77480  Biso   1.000  C
  C42      1.0000 0.89000  0.03250  0.22520  Biso   1.000  C
  H39      1.0000 0.13620  0.01050  0.73450  Biso   1.000  H
  H40      1.0000 0.86380  0.98950  0.26550  Biso   1.000  H
  H41      1.0000 0.03800  0.97440  0.77390  Biso   1.000  H
  H42      1.0000 0.96200  0.02560  0.22610  Biso   1.000  H
  C43      1.0000 0.18940  0.87560  0.75040  Biso   1.000  C
  C44      1.0000 0.81060  0.12440  0.24960  Biso   1.000  C
  H43      1.0000 0.26370  0.87250  0.73930  Biso   1.000  H
  H44      1.0000 0.73630  0.12750  0.26070  Biso   1.000  H
  H45      1.0000 0.18240  0.86370  0.70190  Biso   1.000  H
  H46      1.0000 0.81760  0.13630  0.29810  Biso   1.000  H
  H47      1.0000 0.17160  0.83320  0.79460  Biso   1.000  H
  H48      1.0000 0.82840  0.16680  0.20540  Biso   1.000  H
  C45      1.0000 0.66040  0.03210  0.93220  Biso   1.000  C
  C46      1.0000 0.33960  0.96790  0.06780  Biso   1.000  C
  H49      1.0000 0.68670  0.96980  0.94650  Biso   1.000  H
  H50      1.0000 0.31330  0.03020  0.05350  Biso   1.000  H
  H51      1.0000 0.63570  0.04120  0.88520  Biso   1.000  H
  H52      1.0000 0.36430  0.95880  0.11480  Biso   1.000  H
  C47      1.0000 0.38320  0.16940  0.05610  Biso   1.000  C
  C48      1.0000 0.61680  0.83060  0.94390  Biso   1.000  C
  H53      1.0000 0.31870  0.20740  0.04640  Biso   1.000  H
  H54      1.0000 0.68130  0.79260  0.95360  Biso   1.000  H
  C49      1.0000 0.47090  0.13110  0.99040  Biso   1.000  C
  C50      1.0000 0.52910  0.86890  0.00960  Biso   1.000  C
  H55      1.0000 0.46570  0.14370  0.93760  Biso   1.000  H
  H56      1.0000 0.53430  0.85630  0.06240  Biso   1.000  H
  C51      1.0000 0.56510  0.07500  0.00330  Biso   1.000  C
  C52      1.0000 0.43490  0.92500  0.99670  Biso   1.000  C
  C53      1.0000 0.56870  0.05790  0.08230  Biso   1.000  C
  C54      1.0000 0.43130  0.94210  0.91770  Biso   1.000  C
  H57      1.0000 0.63210  0.01990  0.09350  Biso   1.000  H
  H58      1.0000 0.36790  0.98010  0.90650  Biso   1.000  H
  C55      1.0000 0.47730  0.09790  0.14410  Biso   1.000  C
  C56      1.0000 0.52270  0.90210  0.85590  Biso   1.000  C
  H59      1.0000 0.47930  0.08440  0.19780  Biso   1.000  H
  H60      1.0000 0.52070  0.91560  0.80220  Biso   1.000  H
  C57      1.0000 0.49690  0.36330  0.94350  Biso   1.000  C
  C58      1.0000 0.50310  0.63670  0.05650  Biso   1.000  C
  C59      1.0000 0.38890  0.40360  0.98630  Biso   1.000  C
  C60      1.0000 0.61110  0.59640  0.01370  Biso   1.000  C
  H61      1.0000 0.36070  0.44250  0.02650  Biso   1.000  H
  H62      1.0000 0.63930  0.55750  0.97350  Biso   1.000  H
  C61      1.0000 0.21420  0.39480  0.98600  Biso   1.000  C
  C62      1.0000 0.78580  0.60520  0.01400  Biso   1.000  C
  H63      1.0000 0.18370  0.41410  0.04110  Biso   1.000  H
  H64      1.0000 0.81630  0.58590  0.95890  Biso   1.000  H
  H65      1.0000 0.19900  0.34180  0.98920  Biso   1.000  H
  H66      1.0000 0.80100  0.65820  0.01080  Biso   1.000  H
  C63      1.0000 0.11050  0.60410  0.86240  Biso   1.000  C
  C64      1.0000 0.88950  0.39590  0.13760  Biso   1.000  C
  H67      1.0000 0.12040  0.65810  0.84680  Biso   1.000  H
  H68      1.0000 0.87960  0.34190  0.15320  Biso   1.000  H
  C65      1.0000 0.16950  0.54340  0.90940  Biso   1.000  C
  C66      1.0000 0.83050  0.45660  0.09060  Biso   1.000  C
  H69      1.0000 0.21760  0.55680  0.92570  Biso   1.000  H
  H70      1.0000 0.78240  0.44320  0.07430  Biso   1.000  H
  C67      1.0000 0.15700  0.46320  0.93220  Biso   1.000  C
  C68      1.0000 0.84300  0.53680  0.06780  Biso   1.000  C
  C69      1.0000 0.08270  0.44820  0.90860  Biso   1.000  C
  C70      1.0000 0.91730  0.55180  0.09140  Biso   1.000  C
  H71      1.0000 0.06970  0.39540  0.92460  Biso   1.000  H
  H72      1.0000 0.93030  0.60460  0.07540  Biso   1.000  H
  C71      1.0000 0.02780  0.51100  0.86170  Biso   1.000  C
  C72      1.0000 0.97220  0.48900  0.13830  Biso   1.000  C
  H73      1.0000 0.97900  0.49890  0.84500  Biso   1.000  H
  H74      1.0000 0.02100  0.50110  0.15500  Biso   1.000  H
  C73      1.0000 0.40080  0.45360  0.72980  Biso   1.000  C
  C74      1.0000 0.59920  0.54640  0.27020  Biso   1.000  C
  H75      1.0000 0.38450  0.44780  0.78900  Biso   1.000  H
  H76      1.0000 0.61550  0.55220  0.21100  Biso   1.000  H
  H77      1.0000 0.47570  0.41540  0.70610  Biso   1.000  H
  H78      1.0000 0.52430  0.58460  0.29390  Biso   1.000  H
  C75      1.0000 0.39480  0.54790  0.69820  Biso   1.000  C
  C76      1.0000 0.60520  0.45210  0.30180  Biso   1.000  C
  H79      1.0000 0.40820  0.55570  0.63930  Biso   1.000  H
  H80      1.0000 0.59180  0.44430  0.36070  Biso   1.000  H
  H81      1.0000 0.32210  0.58760  0.72460  Biso   1.000  H
  H82      1.0000 0.67790  0.41240  0.27540  Biso   1.000  H
  C77      1.0000 0.48080  0.56790  0.71720  Biso   1.000  C
  C78      1.0000 0.51920  0.43210  0.28280  Biso   1.000  C
  H83      1.0000 0.55340  0.52720  0.69190  Biso   1.000  H
  H84      1.0000 0.44660  0.47280  0.30810  Biso   1.000  H
  H85      1.0000 0.46630  0.56170  0.77620  Biso   1.000  H
  H86      1.0000 0.53370  0.43830  0.22380  Biso   1.000  H
  C79      1.0000 0.47700  0.66100  0.68350  Biso   1.000  C
  C80      1.0000 0.52300  0.33900  0.31650  Biso   1.000  C
  H87      1.0000 0.54410  0.65990  0.64010  Biso   1.000  H
  H88      1.0000 0.45590  0.34010  0.35990  Biso   1.000  H
  H89      1.0000 0.46680  0.69310  0.72680  Biso   1.000  H
  H90      1.0000 0.53320  0.30690  0.27320  Biso   1.000  H
  H91      1.0000 0.41610  0.68870  0.66230  Biso   1.000  H
  H92      1.0000 0.58390  0.31130  0.33770  Biso   1.000  H
  C81      1.0000 0.33300  0.13580  0.66880  Biso   1.000  C
  C82      1.0000 0.66700  0.86420  0.33120  Biso   1.000  C
  H93      1.0000 0.34110  0.18500  0.68390  Biso   1.000  H
  H94      1.0000 0.65890  0.81500  0.31610  Biso   1.000  H
  H95      1.0000 0.33040  0.09300  0.71590  Biso   1.000  H
  H96      1.0000 0.66960  0.90700  0.28410  Biso   1.000  H
  C83      1.0000 0.43250  0.09710  0.60100  Biso   1.000  C
  C84      1.0000 0.56750  0.90290  0.39900  Biso   1.000  C
  H97      1.0000 0.41970  0.05590  0.57760  Biso   1.000  H
  H98      1.0000 0.58030  0.94410  0.42240  Biso   1.000  H
  H99      1.0000 0.49250  0.06500  0.62290  Biso   1.000  H
  H100     1.0000 0.50750  0.93500  0.37710  Biso   1.000  H
  C85      1.0000 0.46640  0.16330  0.53370  Biso   1.000  C
  C86      1.0000 0.53360  0.83670  0.46630  Biso   1.000  C
  H101     1.0000 0.46920  0.20890  0.55830  Biso   1.000  H
  H102     1.0000 0.53080  0.79110  0.44170  Biso   1.000  H
  H103     1.0000 0.41070  0.18980  0.50680  Biso   1.000  H
  H104     1.0000 0.58930  0.81020  0.49320  Biso   1.000  H
  C87      1.0000 0.57780  0.12500  0.46900  Biso   1.000  C
  C88      1.0000 0.42220  0.87500  0.53100  Biso   1.000  C
  H105     1.0000 0.63170  0.09220  0.49570  Biso   1.000  H
  H106     1.0000 0.36830  0.90780  0.50430  Biso   1.000  H
  H107     1.0000 0.59970  0.17160  0.43300  Biso   1.000  H
  H108     1.0000 0.40030  0.82840  0.56700  Biso   1.000  H
  H109     1.0000 0.57200  0.08770  0.43750  Biso   1.000  H
  H110     1.0000 0.42800  0.91230  0.56250  Biso   1.000  H
  C89      1.0000 0.59600  0.36330  0.95920  Biso   1.000  C
  C90      1.0000 0.40400  0.63670  0.04080  Biso   1.000  C
  H111     1.0000 0.65460  0.30880  0.94230  Biso   1.000  H
  H112     1.0000 0.34540  0.69120  0.05770  Biso   1.000  H
  H113     1.0000 0.61950  0.40980  0.92320  Biso   1.000  H
  H114     1.0000 0.38050  0.59020  0.07680  Biso   1.000  H
  C91      1.0000 0.58610  0.37360  0.04380  Biso   1.000  C
  C92      1.0000 0.41390  0.62640  0.95620  Biso   1.000  C
  H115     1.0000 0.65030  0.38390  0.04340  Biso   1.000  H
  H116     1.0000 0.34970  0.61610  0.95660  Biso   1.000  H
  H117     1.0000 0.52130  0.42280  0.06620  Biso   1.000  H
  H118     1.0000 0.47870  0.57720  0.93380  Biso   1.000  H
  C93      1.0000 0.57690  0.29280  0.09380  Biso   1.000  C
  C94      1.0000 0.42310  0.70720  0.90620  Biso   1.000  C
  H119     1.0000 0.52270  0.27660  0.08440  Biso   1.000  H
  H120     1.0000 0.47730  0.72340  0.91560  Biso   1.000  H
  H121     1.0000 0.55240  0.30220  0.15170  Biso   1.000  H
  H122     1.0000 0.44760  0.69780  0.84830  Biso   1.000  H
  C95      1.0000 0.68970  0.21770  0.07180  Biso   1.000  C
  C96      1.0000 0.31030  0.78230  0.92820  Biso   1.000  C
  H123     1.0000 0.70760  0.20130  0.01770  Biso   1.000  H
  H124     1.0000 0.29240  0.79870  0.98230  Biso   1.000  H
  H125     1.0000 0.68530  0.16840  0.11100  Biso   1.000  H
  H126     1.0000 0.31470  0.83160  0.88900  Biso   1.000  H
  H127     1.0000 0.74570  0.23710  0.07300  Biso   1.000  H
  H128     1.0000 0.25430  0.76290  0.92700  Biso   1.000  H
  N33      1.0000 0.63540  0.48650  0.51900  Biso   1.000  N
  N34      1.0000 0.36460  0.51350  0.48100  Biso   1.000  N
  C97      1.0000 0.62060  0.42240  0.52810  Biso   1.000  C
  C98      1.0000 0.37940  0.57760  0.47190  Biso   1.000  C
  C99      1.0000 0.60380  0.33740  0.54470  Biso   1.000  C
  C100     1.0000 0.39620  0.66260  0.45530  Biso   1.000  C
  H129     1.0000 0.62210  0.30730  0.59300  Biso   1.000  H
  H130     1.0000 0.37790  0.69270  0.40700  Biso   1.000  H
  H131     1.0000 0.65010  0.30310  0.49850  Biso   1.000  H
  H132     1.0000 0.34990  0.69690  0.50150  Biso   1.000  H
  H133     1.0000 0.52810  0.34650  0.55330  Biso   1.000  H
  H134     1.0000 0.47190  0.65350  0.44670  Biso   1.000  H
  C101     1.0000 0.33730  0.15380  0.64900  Biso   1.000  C
  C102     1.0000 0.66270  0.84620  0.35100  Biso   1.000  C
  C103     1.0000 0.37700  0.05450  0.68060  Biso   1.000  C
  C104     1.0000 0.62300  0.94550  0.31940  Biso   1.000  C
  C105     1.0000 0.39100  0.98100  0.63920  Biso   1.000  C
  C106     1.0000 0.60900  0.01900  0.36080  Biso   1.000  C
  C107     1.0000 0.45600  0.88600  0.63500  Biso   1.000  C
  C108     1.0000 0.54400  0.11400  0.36500  Biso   1.000  C
  C109     1.0000 0.54250  0.26660  0.51490  Biso   1.000  C
  C110     1.0000 0.45750  0.73340  0.48510  Biso   1.000  C
  C111     1.0000 0.65840  0.23400  0.51200  Biso   1.000  C
  C112     1.0000 0.34160  0.76600  0.48800  Biso   1.000  C
  C113     1.0000 0.59930  0.37900  0.93570  Biso   1.000  C
  C114     1.0000 0.40070  0.62100  0.06430  Biso   1.000  C
  C115     1.0000 0.43230  0.42020  0.68190  Biso   1.000  C
  C116     1.0000 0.56770  0.57980  0.31810  Biso   1.000  C
  C117     1.0000 0.60200  0.36660  0.02310  Biso   1.000  C
  C118     1.0000 0.39800  0.63340  0.97690  Biso   1.000  C
  C119     1.0000 0.63200  0.26980  0.03920  Biso   1.000  C
  C120     1.0000 0.36800  0.73020  0.96080  Biso   1.000  C
  C121     1.0000 0.61600  0.25000  0.12970  Biso   1.000  C
  C122     1.0000 0.38400  0.75000  0.87030  Biso   1.000  C
  C123     1.0000 0.42250  0.51700  0.65470  Biso   1.000  C
  C124     1.0000 0.57750  0.48300  0.34530  Biso   1.000  C
  C125     1.0000 0.52220  0.54450  0.63380  Biso   1.000  C
  C126     1.0000 0.47780  0.45550  0.36620  Biso   1.000  C
  C127     1.0000 0.48300  0.63670  0.66200  Biso   1.000  C
  C128     1.0000 0.51700  0.36330  0.33800  Biso   1.000  C
  H135     1.0000 0.33840  0.19090  0.68420  Biso   1.000  H
  H136     1.0000 0.66160  0.80910  0.31580  Biso   1.000  H
  H137     1.0000 0.38180  0.16440  0.59280  Biso   1.000  H
  H138     1.0000 0.61820  0.83560  0.40720  Biso   1.000  H
  H139     1.0000 0.44690  0.04300  0.68750  Biso   1.000  H
  H140     1.0000 0.55310  0.95700  0.31250  Biso   1.000  H
  H141     1.0000 0.32540  0.04960  0.73550  Biso   1.000  H
  H142     1.0000 0.67460  0.95040  0.26450  Biso   1.000  H
  H143     1.0000 0.41070  0.00260  0.58170  Biso   1.000  H
  H144     1.0000 0.58930  0.99740  0.41830  Biso   1.000  H
  H145     1.0000 0.31650  0.98180  0.65380  Biso   1.000  H
  H146     1.0000 0.68350  0.01820  0.34620  Biso   1.000  H
  H147     1.0000 0.52590  0.87840  0.59310  Biso   1.000  H
  H148     1.0000 0.47410  0.12160  0.40690  Biso   1.000  H
  H149     1.0000 0.41640  0.85720  0.62310  Biso   1.000  H
  H150     1.0000 0.58360  0.14280  0.37690  Biso   1.000  H
  H151     1.0000 0.46660  0.86260  0.68750  Biso   1.000  H
  H152     1.0000 0.53340  0.13740  0.31250  Biso   1.000  H
  H153     1.0000 0.69960  0.26310  0.46610  Biso   1.000  H
  H154     1.0000 0.30040  0.73690  0.53390  Biso   1.000  H
  H155     1.0000 0.68860  0.17220  0.50580  Biso   1.000  H
  H156     1.0000 0.31140  0.82780  0.49420  Biso   1.000  H
  H157     1.0000 0.66240  0.24440  0.56210  Biso   1.000  H
  H158     1.0000 0.33760  0.75560  0.43790  Biso   1.000  H
  H159     1.0000 0.59640  0.43770  0.91190  Biso   1.000  H
  H160     1.0000 0.40360  0.56230  0.08810  Biso   1.000  H
  H161     1.0000 0.66390  0.33770  0.90130  Biso   1.000  H
  H162     1.0000 0.33610  0.66230  0.09870  Biso   1.000  H
  H163     1.0000 0.47790  0.38400  0.63620  Biso   1.000  H
  H164     1.0000 0.52210  0.61600  0.36380  Biso   1.000  H
  H165     1.0000 0.46350  0.39860  0.72620  Biso   1.000  H
  H166     1.0000 0.53650  0.60140  0.27380  Biso   1.000  H
  H167     1.0000 0.65690  0.38680  0.02650  Biso   1.000  H
  H168     1.0000 0.34310  0.61320  0.97350  Biso   1.000  H
  H169     1.0000 0.53070  0.39640  0.06100  Biso   1.000  H
  H170     1.0000 0.46930  0.60360  0.93900  Biso   1.000  H
  H171     1.0000 0.70840  0.24140  0.00750  Biso   1.000  H
  H172     1.0000 0.29160  0.75860  0.99250  Biso   1.000  H
  H173     1.0000 0.58580  0.24950  0.02390  Biso   1.000  H
  H174     1.0000 0.41420  0.75050  0.97610  Biso   1.000  H
  H175     1.0000 0.67930  0.24770  0.14040  Biso   1.000  H
  H176     1.0000 0.32070  0.75230  0.85960  Biso   1.000  H
  H177     1.0000 0.60480  0.19430  0.14700  Biso   1.000  H
  H178     1.0000 0.39520  0.80570  0.85300  Biso   1.000  H
  H179     1.0000 0.55200  0.29430  0.15960  Biso   1.000  H
  H180     1.0000 0.44800  0.70570  0.84040  Biso   1.000  H
  H181     1.0000 0.39830  0.53330  0.60680  Biso   1.000  H
  H182     1.0000 0.60170  0.46670  0.39320  Biso   1.000  H
  H183     1.0000 0.36410  0.55160  0.69830  Biso   1.000  H
  H184     1.0000 0.63590  0.44840  0.30170  Biso   1.000  H
  H185     1.0000 0.56050  0.54450  0.57500  Biso   1.000  H
  H186     1.0000 0.43950  0.45550  0.42500  Biso   1.000  H
  H187     1.0000 0.57260  0.50390  0.66170  Biso   1.000  H
  H188     1.0000 0.42740  0.49610  0.33830  Biso   1.000  H
  H189     1.0000 0.45660  0.67900  0.62110  Biso   1.000  H
  H190     1.0000 0.54340  0.32100  0.37890  Biso   1.000  H
  H191     1.0000 0.54250  0.64670  0.66810  Biso   1.000  H
  H192     1.0000 0.45750  0.35330  0.33190  Biso   1.000  H
  H193     1.0000 0.42390  0.64180  0.71330  Biso   1.000  H
  H194     1.0000 0.57610  0.35820  0.28670  Biso   1.000  H
  N35      1.0000 0.45580  0.29900  0.51690  Biso   1.000  N
  N36      1.0000 0.54420  0.70100  0.48310  Biso   1.000  N
