data_image0
_cell_length_a       8.9089
_cell_length_b       16.0244
_cell_length_c       13.7163
_cell_angle_alpha    90
_cell_angle_beta     103.806
_cell_angle_gamma    90

_symmetry_space_group_name_H-M    "P 1"
_symmetry_int_tables_number       1

loop_
  _symmetry_equiv_pos_as_xyz
  'x, y, z'

loop_
  _atom_site_label
  _atom_site_occupancy
  _atom_site_fract_x
  _atom_site_fract_y
  _atom_site_fract_z
  _atom_site_thermal_displace_type
  _atom_site_B_iso_or_equiv
  _atom_site_type_symbol
  Cu1      1.0000 0.23384  0.50210  0.19538  Biso   1.000  Cu
  Cu2      1.0000 0.76616  0.00210  0.30462  Biso   1.000  Cu
  Cu3      1.0000 0.76616  0.49790  0.80462  Biso   1.000  Cu
  Cu4      1.0000 0.23384  0.99790  0.69538  Biso   1.000  Cu
  Cu5      1.0000 0.03609  0.45734  0.92177  Biso   1.000  Cu
  Cu6      1.0000 0.96391  0.95734  0.57823  Biso   1.000  Cu
  Cu7      1.0000 0.96391  0.54266  0.07823  Biso   1.000  Cu
  Cu8      1.0000 0.03609  0.04266  0.42177  Biso   1.000  Cu
  I1       1.0000 0.22755  0.57210  0.01892  Biso   1.000  I
  I2       1.0000 0.77245  0.07210  0.48108  Biso   1.000  I
  I3       1.0000 0.77245  0.42790  0.98108  Biso   1.000  I
  I4       1.0000 0.22755  0.92790  0.51892  Biso   1.000  I
  I5       1.0000 0.00725  0.52445  0.27816  Biso   1.000  I
  I6       1.0000 0.99275  0.02445  0.22184  Biso   1.000  I
  I7       1.0000 0.99275  0.47555  0.72184  Biso   1.000  I
  I8       1.0000 0.00725  0.97555  0.77816  Biso   1.000  I
  N1       1.0000 0.33240  0.38614  0.19810  Biso   1.000  N
  N2       1.0000 0.66760  0.88614  0.30190  Biso   1.000  N
  N3       1.0000 0.66760  0.61386  0.80190  Biso   1.000  N
  N4       1.0000 0.33240  0.11386  0.69810  Biso   1.000  N
  N5       1.0000 0.48890  0.37885  0.21150  Biso   1.000  N
  N6       1.0000 0.51110  0.87885  0.28850  Biso   1.000  N
  N7       1.0000 0.51110  0.62115  0.78850  Biso   1.000  N
  N8       1.0000 0.48890  0.12115  0.71150  Biso   1.000  N
  N9       1.0000 0.43060  0.54737  0.29950  Biso   1.000  N
  N10      1.0000 0.56940  0.04737  0.20050  Biso   1.000  N
  N11      1.0000 0.56940  0.45263  0.70050  Biso   1.000  N
  N12      1.0000 0.43060  0.95263  0.79950  Biso   1.000  N
  N13      1.0000 0.43810  0.58603  0.38530  Biso   1.000  N
  N14      1.0000 0.56190  0.08603  0.11470  Biso   1.000  N
  N15      1.0000 0.56190  0.41397  0.61470  Biso   1.000  N
  N16      1.0000 0.43810  0.91397  0.88530  Biso   1.000  N
  N17      1.0000 0.58010  0.57132  0.44230  Biso   1.000  N
  N18      1.0000 0.41990  0.07132  0.05770  Biso   1.000  N
  N19      1.0000 0.41990  0.42868  0.55770  Biso   1.000  N
  N20      1.0000 0.58010  0.92868  0.94230  Biso   1.000  N
  N21      1.0000 0.84930  0.84606  0.55330  Biso   1.000  N
  N22      1.0000 0.15070  0.34606  0.94670  Biso   1.000  N
  N23      1.0000 0.15070  0.15394  0.44670  Biso   1.000  N
  N24      1.0000 0.84930  0.65394  0.05330  Biso   1.000  N
  C1       1.0000 0.28020  0.30860  0.20310  Biso   1.000  C
  C2       1.0000 0.71980  0.80860  0.29690  Biso   1.000  C
  C3       1.0000 0.71980  0.69140  0.79690  Biso   1.000  C
  C4       1.0000 0.28020  0.19140  0.70310  Biso   1.000  C
  C5       1.0000 0.40400  0.25230  0.22000  Biso   1.000  C
  C6       1.0000 0.59600  0.75230  0.28000  Biso   1.000  C
  C7       1.0000 0.59600  0.74770  0.78000  Biso   1.000  C
  C8       1.0000 0.40400  0.24770  0.72000  Biso   1.000  C
  H1       1.0000 0.39780  0.19340  0.22650  Biso   1.000  H
  H2       1.0000 0.60220  0.69340  0.27350  Biso   1.000  H
  H3       1.0000 0.60220  0.80660  0.77350  Biso   1.000  H
  H4       1.0000 0.39780  0.30660  0.72650  Biso   1.000  H
  C9       1.0000 0.53590  0.29820  0.22570  Biso   1.000  C
  C10      1.0000 0.46410  0.79820  0.27430  Biso   1.000  C
  C11      1.0000 0.46410  0.70180  0.77430  Biso   1.000  C
  C12      1.0000 0.53590  0.20180  0.72570  Biso   1.000  C
  C13      1.0000 0.11300  0.29160  0.19110  Biso   1.000  C
  C14      1.0000 0.88700  0.79160  0.30890  Biso   1.000  C
  C15      1.0000 0.88700  0.70840  0.80890  Biso   1.000  C
  C16      1.0000 0.11300  0.20840  0.69110  Biso   1.000  C
  H5       1.0000 0.07540  0.32270  0.24210  Biso   1.000  H
  H6       1.0000 0.92460  0.82270  0.25790  Biso   1.000  H
  H7       1.0000 0.92460  0.67730  0.75790  Biso   1.000  H
  H8       1.0000 0.07540  0.17730  0.74210  Biso   1.000  H
  H9       1.0000 0.09730  0.23170  0.19930  Biso   1.000  H
  H10      1.0000 0.90270  0.73170  0.30070  Biso   1.000  H
  H11      1.0000 0.90270  0.76830  0.80070  Biso   1.000  H
  H12      1.0000 0.09730  0.26830  0.69930  Biso   1.000  H
  H13      1.0000 0.05590  0.30920  0.12410  Biso   1.000  H
  H14      1.0000 0.94410  0.80920  0.37590  Biso   1.000  H
  H15      1.0000 0.94410  0.69080  0.87590  Biso   1.000  H
  H16      1.0000 0.05590  0.19080  0.62410  Biso   1.000  H
  C17      1.0000 0.70180  0.27360  0.24240  Biso   1.000  C
  C18      1.0000 0.29820  0.77360  0.25760  Biso   1.000  C
  C19      1.0000 0.29820  0.72640  0.75760  Biso   1.000  C
  C20      1.0000 0.70180  0.22640  0.74240  Biso   1.000  C
  H17      1.0000 0.73890  0.28680  0.18250  Biso   1.000  H
  H18      1.0000 0.26110  0.78680  0.31750  Biso   1.000  H
  H19      1.0000 0.26110  0.71320  0.81750  Biso   1.000  H
  H20      1.0000 0.73890  0.21320  0.68250  Biso   1.000  H
  H21      1.0000 0.71200  0.21350  0.25570  Biso   1.000  H
  H22      1.0000 0.28800  0.71350  0.24430  Biso   1.000  H
  H23      1.0000 0.28800  0.78650  0.74430  Biso   1.000  H
  H24      1.0000 0.71200  0.28650  0.75570  Biso   1.000  H
  H25      1.0000 0.76330  0.30420  0.30010  Biso   1.000  H
  H26      1.0000 0.23670  0.80420  0.19990  Biso   1.000  H
  H27      1.0000 0.23670  0.69580  0.69990  Biso   1.000  H
  H28      1.0000 0.76330  0.19580  0.80010  Biso   1.000  H
  C21      1.0000 0.58260  0.45500  0.21620  Biso   1.000  C
  C22      1.0000 0.41740  0.95500  0.28380  Biso   1.000  C
  C23      1.0000 0.41740  0.54500  0.78380  Biso   1.000  C
  C24      1.0000 0.58260  0.04500  0.71620  Biso   1.000  C
  H29      1.0000 0.54860  0.48660  0.15270  Biso   1.000  H
  H30      1.0000 0.45140  0.98660  0.34730  Biso   1.000  H
  H31      1.0000 0.45140  0.51340  0.84730  Biso   1.000  H
  H32      1.0000 0.54860  0.01340  0.65270  Biso   1.000  H
  H33      1.0000 0.69250  0.43960  0.22410  Biso   1.000  H
  H34      1.0000 0.30750  0.93960  0.27590  Biso   1.000  H
  H35      1.0000 0.30750  0.56040  0.77590  Biso   1.000  H
  H36      1.0000 0.69250  0.06040  0.72410  Biso   1.000  H
  C25      1.0000 0.56670  0.50840  0.30210  Biso   1.000  C
  C26      1.0000 0.43330  0.00840  0.19790  Biso   1.000  C
  C27      1.0000 0.43330  0.49160  0.69790  Biso   1.000  C
  C28      1.0000 0.56670  0.99160  0.80210  Biso   1.000  C
  C29      1.0000 0.66380  0.52390  0.39430  Biso   1.000  C
  C30      1.0000 0.33620  0.02390  0.10570  Biso   1.000  C
  C31      1.0000 0.33620  0.47610  0.60570  Biso   1.000  C
  C32      1.0000 0.66380  0.97610  0.89430  Biso   1.000  C
  H37      1.0000 0.76720  0.50530  0.41860  Biso   1.000  H
  H38      1.0000 0.23280  0.00530  0.08140  Biso   1.000  H
  H39      1.0000 0.23280  0.49470  0.58140  Biso   1.000  H
  H40      1.0000 0.76720  0.99470  0.91860  Biso   1.000  H
  C33      1.0000 0.62540  0.60790  0.54370  Biso   1.000  C
  C34      1.0000 0.37460  0.10790  0.95630  Biso   1.000  C
  C35      1.0000 0.37460  0.39210  0.45630  Biso   1.000  C
  C36      1.0000 0.62540  0.89210  0.04370  Biso   1.000  C
  H41      1.0000 0.69740  0.56940  0.58840  Biso   1.000  H
  H42      1.0000 0.30260  0.06940  0.91160  Biso   1.000  H
  H43      1.0000 0.30260  0.43060  0.41160  Biso   1.000  H
  H44      1.0000 0.69740  0.93060  0.08840  Biso   1.000  H
  H45      1.0000 0.53240  0.61410  0.57070  Biso   1.000  H
  H46      1.0000 0.46760  0.11410  0.92930  Biso   1.000  H
  H47      1.0000 0.46760  0.38590  0.42930  Biso   1.000  H
  H48      1.0000 0.53240  0.88590  0.07070  Biso   1.000  H
  C37      1.0000 0.92870  0.77440  0.55970  Biso   1.000  C
  C38      1.0000 0.07130  0.27440  0.94030  Biso   1.000  C
  C39      1.0000 0.07130  0.22560  0.44030  Biso   1.000  C
  C40      1.0000 0.92870  0.72560  0.05970  Biso   1.000  C
  H49      1.0000 0.03760  0.77700  0.56820  Biso   1.000  H
  H50      1.0000 0.96240  0.27700  0.93180  Biso   1.000  H
  H51      1.0000 0.96240  0.22300  0.43180  Biso   1.000  H
  H52      1.0000 0.03760  0.72300  0.06820  Biso   1.000  H
  C41      1.0000 0.85940  0.69680  0.55450  Biso   1.000  C
  C42      1.0000 0.14060  0.19680  0.94550  Biso   1.000  C
  C43      1.0000 0.14060  0.30320  0.44550  Biso   1.000  C
  C44      1.0000 0.85940  0.80320  0.05450  Biso   1.000  C
  H53      1.0000 0.91960  0.64750  0.55810  Biso   1.000  H
  H54      1.0000 0.08040  0.14750  0.94190  Biso   1.000  H
  H55      1.0000 0.08040  0.35250  0.44190  Biso   1.000  H
  H56      1.0000 0.91960  0.85250  0.05810  Biso   1.000  H
  C45      1.0000 0.70200  0.69180  0.54410  Biso   1.000  C
  C46      1.0000 0.29800  0.19180  0.95590  Biso   1.000  C
  C47      1.0000 0.29800  0.30820  0.45590  Biso   1.000  C
  C48      1.0000 0.70200  0.80820  0.04410  Biso   1.000  C
  C49      1.0000 0.61800  0.76510  0.53590  Biso   1.000  C
  C50      1.0000 0.38200  0.26510  0.96410  Biso   1.000  C
  C51      1.0000 0.38200  0.23490  0.46410  Biso   1.000  C
  C52      1.0000 0.61800  0.73490  0.03590  Biso   1.000  C
  H57      1.0000 0.50900  0.76380  0.52690  Biso   1.000  H
  H58      1.0000 0.49100  0.26380  0.97310  Biso   1.000  H
  H59      1.0000 0.49100  0.23620  0.47310  Biso   1.000  H
  H60      1.0000 0.50900  0.73620  0.02690  Biso   1.000  H
  C53      1.0000 0.69550  0.84040  0.54110  Biso   1.000  C
  C54      1.0000 0.30450  0.34040  0.95890  Biso   1.000  C
  C55      1.0000 0.30450  0.15960  0.45890  Biso   1.000  C
  C56      1.0000 0.69550  0.65960  0.04110  Biso   1.000  C
  H61      1.0000 0.63710  0.89050  0.53580  Biso   1.000  H
  H62      1.0000 0.36290  0.39050  0.96420  Biso   1.000  H
  H63      1.0000 0.36290  0.10950  0.46420  Biso   1.000  H
  H64      1.0000 0.63710  0.60950  0.03580  Biso   1.000  H
  O1       1.0000 0.21430  0.66120  0.49250  Biso   1.000  O
  O2       1.0000 0.78570  0.16120  0.00750  Biso   1.000  O
  O3       1.0000 0.78570  0.33880  0.50750  Biso   1.000  O
  O4       1.0000 0.21430  0.83880  0.99250  Biso   1.000  O
  H65      1.0000 0.12400  0.65800  0.45500  Biso   1.000  H
  H66      1.0000 0.87600  0.15800  0.04500  Biso   1.000  H
  H67      1.0000 0.87600  0.34200  0.54500  Biso   1.000  H
  H68      1.0000 0.12400  0.84200  0.95500  Biso   1.000  H
  H69      1.0000 0.26900  0.64600  0.45300  Biso   1.000  H
  H70      1.0000 0.73100  0.14600  0.04700  Biso   1.000  H
  H71      1.0000 0.73100  0.35400  0.54700  Biso   1.000  H
  H72      1.0000 0.26900  0.85400  0.95300  Biso   1.000  H
