data_image0
_cell_length_a       14.4297
_cell_length_b       16.937
_cell_length_c       17.684
_cell_angle_alpha    76.127
_cell_angle_beta     66.663
_cell_angle_gamma    65.04

_symmetry_space_group_name_H-M    "P 1"
_symmetry_int_tables_number       1

loop_
  _symmetry_equiv_pos_as_xyz
  'x, y, z'

loop_
  _atom_site_label
  _atom_site_occupancy
  _atom_site_fract_x
  _atom_site_fract_y
  _atom_site_fract_z
  _atom_site_thermal_displace_type
  _atom_site_B_iso_or_equiv
  _atom_site_type_symbol
  Cu1      1.0000 0.85533  0.77665  0.69067  Biso   1.000  Cu
  Cu2      1.0000 0.14467  0.22335  0.30933  Biso   1.000  Cu
  Cu3      1.0000 0.60276  0.75565  0.72762  Biso   1.000  Cu
  Cu4      1.0000 0.39724  0.24435  0.27238  Biso   1.000  Cu
  Cu5      1.0000 0.37225  0.74424  0.70157  Biso   1.000  Cu
  Cu6      1.0000 0.62775  0.25576  0.29843  Biso   1.000  Cu
  Cu7      1.0000 0.12158  0.75417  0.68274  Biso   1.000  Cu
  Cu8      1.0000 0.87842  0.24583  0.31726  Biso   1.000  Cu
  Cu9      1.0000 0.60535  0.29693  0.85970  Biso   1.000  Cu
  Cu10     1.0000 0.39465  0.70307  0.14030  Biso   1.000  Cu
  Cu11     1.0000 0.57327  0.17644  0.81947  Biso   1.000  Cu
  Cu12     1.0000 0.42673  0.82356  0.18053  Biso   1.000  Cu
  Cu13     1.0000 0.53863  0.33597  0.73380  Biso   1.000  Cu
  Cu14     1.0000 0.46137  0.66403  0.26620  Biso   1.000  Cu
  Cu15     1.0000 0.26476  0.78111  0.29137  Biso   1.000  Cu
  Cu16     1.0000 0.73524  0.21889  0.70863  Biso   1.000  Cu
  I1       1.0000 0.92358  0.85373  0.75841  Biso   1.000  I
  I2       1.0000 0.07642  0.14627  0.24159  Biso   1.000  I
  I3       1.0000 0.76141  0.66577  0.78558  Biso   1.000  I
  I4       1.0000 0.23859  0.33423  0.21442  Biso   1.000  I
  I5       1.0000 0.58162  0.67467  0.62934  Biso   1.000  I
  I6       1.0000 0.41838  0.32533  0.37066  Biso   1.000  I
  I7       1.0000 0.25602  0.84007  0.60860  Biso   1.000  I
  I8       1.0000 0.74398  0.15993  0.39140  Biso   1.000  I
  I9       1.0000 0.40133  0.31109  0.88871  Biso   1.000  I
  I10      1.0000 0.59867  0.68891  0.11129  Biso   1.000  I
  I11      1.0000 0.24234  0.86687  0.14723  Biso   1.000  I
  I12      1.0000 0.75766  0.13313  0.85277  Biso   1.000  I
  I13      1.0000 0.69918  0.38423  0.72419  Biso   1.000  I
  I14      1.0000 0.30082  0.61577  0.27581  Biso   1.000  I
  I15      1.0000 0.59350  0.19466  0.65979  Biso   1.000  I
  I16      1.0000 0.40650  0.80534  0.34021  Biso   1.000  I
  N1       1.0000 0.45160  0.43430  0.66960  Biso   1.000  N
  N2       1.0000 0.54840  0.56570  0.33040  Biso   1.000  N
  N3       1.0000 0.16740  0.64930  0.54270  Biso   1.000  N
  N4       1.0000 0.83260  0.35070  0.45730  Biso   1.000  N
  N5       1.0000 0.09390  0.69760  0.60460  Biso   1.000  N
  N6       1.0000 0.90610  0.30240  0.39540  Biso   1.000  N
  N7       1.0000 0.99680  0.70410  0.60880  Biso   1.000  N
  N8       1.0000 0.00320  0.29590  0.39120  Biso   1.000  N
  N9       1.0000 0.12130  0.83440  0.38010  Biso   1.000  N
  N10      1.0000 0.87870  0.16560  0.61990  Biso   1.000  N
  N11      1.0000 0.73750  0.93870  0.59260  Biso   1.000  N
  N12      1.0000 0.26250  0.06130  0.40740  Biso   1.000  N
  N13      1.0000 0.73580  0.86600  0.64180  Biso   1.000  N
  N14      1.0000 0.26420  0.13400  0.35820  Biso   1.000  N
  N15      1.0000 0.64040  0.86060  0.65820  Biso   1.000  N
  N16      1.0000 0.35960  0.13940  0.34180  Biso   1.000  N
  N17      1.0000 0.54050  0.06650  0.86220  Biso   1.000  N
  N18      1.0000 0.45950  0.93350  0.13780  Biso   1.000  N
  N19      1.0000 0.41100  0.82410  0.88630  Biso   1.000  N
  N20      1.0000 0.58900  0.17590  0.11370  Biso   1.000  N
  N21      1.0000 0.44760  0.79390  0.81170  Biso   1.000  N
  N22      1.0000 0.55240  0.20610  0.18830  Biso   1.000  N
  N23      1.0000 0.36050  0.79950  0.79770  Biso   1.000  N
  N24      1.0000 0.63950  0.20050  0.20230  Biso   1.000  N
  N25      1.0000 0.40730  0.65050  0.04440  Biso   1.000  N
  N26      1.0000 0.59270  0.34950  0.95560  Biso   1.000  N
  N27      1.0000 0.31670  0.58850  0.81670  Biso   1.000  N
  N28      1.0000 0.68330  0.41150  0.18330  Biso   1.000  N
  N29      1.0000 0.29040  0.65750  0.76160  Biso   1.000  N
  N30      1.0000 0.70960  0.34250  0.23840  Biso   1.000  N
  N31      1.0000 0.19700  0.66270  0.75890  Biso   1.000  N
  N32      1.0000 0.80300  0.33730  0.24110  Biso   1.000  N
  C1       1.0000 0.47960  0.50320  0.63000  Biso   1.000  C
  C2       1.0000 0.52040  0.49680  0.37000  Biso   1.000  C
  H1       1.0000 0.54030  0.50740  0.63540  Biso   1.000  H
  H2       1.0000 0.45970  0.49260  0.36460  Biso   1.000  H
  C3       1.0000 0.42480  0.56920  0.58110  Biso   1.000  C
  C4       1.0000 0.57520  0.43080  0.41890  Biso   1.000  C
  H3       1.0000 0.44690  0.61740  0.55510  Biso   1.000  H
  H4       1.0000 0.55310  0.38260  0.44490  Biso   1.000  H
  C5       1.0000 0.33760  0.56280  0.57150  Biso   1.000  C
  C6       1.0000 0.66240  0.43720  0.42850  Biso   1.000  C
  C7       1.0000 0.30840  0.49120  0.61110  Biso   1.000  C
  C8       1.0000 0.69160  0.50880  0.38890  Biso   1.000  C
  H5       1.0000 0.24870  0.48530  0.60580  Biso   1.000  H
  H6       1.0000 0.75130  0.51470  0.39420  Biso   1.000  H
  C9       1.0000 0.36630  0.42900  0.65790  Biso   1.000  C
  C10      1.0000 0.63370  0.57100  0.34210  Biso   1.000  C
  H7       1.0000 0.34620  0.37980  0.68340  Biso   1.000  H
  H8       1.0000 0.65380  0.62020  0.31660  Biso   1.000  H
  C11      1.0000 0.28180  0.63380  0.51740  Biso   1.000  C
  C12      1.0000 0.71820  0.36620  0.48260  Biso   1.000  C
  H9       1.0000 0.28990  0.68860  0.51870  Biso   1.000  H
  H10      1.0000 0.71010  0.31140  0.48130  Biso   1.000  H
  H11      1.0000 0.31760  0.61770  0.45970  Biso   1.000  H
  H12      1.0000 0.68240  0.38230  0.54030  Biso   1.000  H
  C13      1.0000 0.11770  0.62580  0.50520  Biso   1.000  C
  C14      1.0000 0.88230  0.37420  0.49480  Biso   1.000  C
  H13      1.0000 0.15140  0.59240  0.45880  Biso   1.000  H
  H14      1.0000 0.84860  0.40760  0.54120  Biso   1.000  H
  C15      1.0000 0.00860  0.66060  0.54840  Biso   1.000  C
  C16      1.0000 0.99140  0.33940  0.45160  Biso   1.000  C
  C17      1.0000 0.91420  0.66090  0.53310  Biso   1.000  C
  C18      1.0000 0.08580  0.33910  0.46690  Biso   1.000  C
  H15      1.0000 0.85820  0.72070  0.53750  Biso   1.000  H
  H16      1.0000 0.14180  0.27930  0.46250  Biso   1.000  H
  H17      1.0000 0.88230  0.62140  0.57630  Biso   1.000  H
  H18      1.0000 0.11770  0.37860  0.42370  Biso   1.000  H
  C19      1.0000 0.94550  0.63160  0.44710  Biso   1.000  C
  C20      1.0000 0.05450  0.36840  0.55290  Biso   1.000  C
  H19      1.0000 0.98620  0.66610  0.40460  Biso   1.000  H
  H20      1.0000 0.01380  0.33390  0.59540  Biso   1.000  H
  H21      1.0000 0.99450  0.56940  0.44550  Biso   1.000  H
  H22      1.0000 0.00550  0.43060  0.55450  Biso   1.000  H
  C21      1.0000 0.84910  0.64210  0.42510  Biso   1.000  C
  C22      1.0000 0.15090  0.35790  0.57490  Biso   1.000  C
  H23      1.0000 0.80520  0.61110  0.46930  Biso   1.000  H
  H24      1.0000 0.19480  0.38890  0.53070  Biso   1.000  H
  H25      1.0000 0.87560  0.61490  0.37310  Biso   1.000  H
  H26      1.0000 0.12440  0.38510  0.62690  Biso   1.000  H
  C23      1.0000 0.77760  0.73800  0.41450  Biso   1.000  C
  C24      1.0000 0.22240  0.26200  0.58550  Biso   1.000  C
  H27      1.0000 0.82340  0.77060  0.37540  Biso   1.000  H
  H28      1.0000 0.17660  0.22940  0.62460  Biso   1.000  H
  H29      1.0000 0.74390  0.76320  0.46840  Biso   1.000  H
  H30      1.0000 0.25610  0.23680  0.53160  Biso   1.000  H
  C25      1.0000 0.68790  0.74980  0.38190  Biso   1.000  C
  C26      1.0000 0.31210  0.25020  0.61810  Biso   1.000  C
  H31      1.0000 0.65650  0.70490  0.41010  Biso   1.000  H
  H32      1.0000 0.34350  0.29510  0.58990  Biso   1.000  H
  H33      1.0000 0.71880  0.74410  0.32230  Biso   1.000  H
  H34      1.0000 0.28120  0.25590  0.67770  Biso   1.000  H
  H35      1.0000 0.63110  0.80790  0.39270  Biso   1.000  H
  H36      1.0000 0.36890  0.19210  0.60730  Biso   1.000  H
  C27      1.0000 0.11900  0.84780  0.45220  Biso   1.000  C
  C28      1.0000 0.88100  0.15220  0.54780  Biso   1.000  C
  H37      1.0000 0.18620  0.82740  0.46150  Biso   1.000  H
  H38      1.0000 0.81380  0.17260  0.53850  Biso   1.000  H
  C29      1.0000 0.02640  0.88900  0.51410  Biso   1.000  C
  C30      1.0000 0.97360  0.11100  0.48590  Biso   1.000  C
  H39      1.0000 0.03020  0.89700  0.56400  Biso   1.000  H
  H40      1.0000 0.96980  0.10300  0.43600  Biso   1.000  H
  C31      1.0000 0.92670  0.91870  0.50190  Biso   1.000  C
  C32      1.0000 0.07330  0.08130  0.49810  Biso   1.000  C
  C33      1.0000 0.92660  0.90310  0.42890  Biso   1.000  C
  C34      1.0000 0.07340  0.09690  0.57110  Biso   1.000  C
  H41      1.0000 0.85990  0.92030  0.41950  Biso   1.000  H
  H42      1.0000 0.14010  0.07970  0.58050  Biso   1.000  H
  C35      1.0000 0.02490  0.86190  0.36850  Biso   1.000  C
  C36      1.0000 0.97510  0.13810  0.63150  Biso   1.000  C
  H43      1.0000 0.02380  0.85300  0.31790  Biso   1.000  H
  H44      1.0000 0.97620  0.14700  0.68210  Biso   1.000  H
  C37      1.0000 0.82610  0.96980  0.56700  Biso   1.000  C
  C38      1.0000 0.17390  0.03020  0.43300  Biso   1.000  C
  H45      1.0000 0.84480  0.96680  0.61600  Biso   1.000  H
  H46      1.0000 0.15520  0.03320  0.38400  Biso   1.000  H
  H47      1.0000 0.80120  0.03190  0.54520  Biso   1.000  H
  H48      1.0000 0.19880  0.96810  0.45480  Biso   1.000  H
  C39      1.0000 0.64240  0.98140  0.57710  Biso   1.000  C
  C40      1.0000 0.35760  0.01860  0.42290  Biso   1.000  C
  H49      1.0000 0.62270  0.03470  0.54380  Biso   1.000  H
  H50      1.0000 0.37730  0.96530  0.45620  Biso   1.000  H
  C41      1.0000 0.58050  0.93080  0.61990  Biso   1.000  C
  C42      1.0000 0.41950  0.06920  0.38010  Biso   1.000  C
  C43      1.0000 0.46440  0.95100  0.63340  Biso   1.000  C
  C44      1.0000 0.53560  0.04900  0.36660  Biso   1.000  C
  H51      1.0000 0.45250  0.89570  0.64120  Biso   1.000  H
  H52      1.0000 0.54750  0.10430  0.35880  Biso   1.000  H
  H53      1.0000 0.44660  0.98560  0.58400  Biso   1.000  H
  H54      1.0000 0.55340  0.01440  0.41600  Biso   1.000  H
  C45      1.0000 0.38880  0.00290  0.71010  Biso   1.000  C
  C46      1.0000 0.61120  0.99710  0.28990  Biso   1.000  C
  H55      1.0000 0.40130  0.96540  0.76020  Biso   1.000  H
  H56      1.0000 0.59870  0.03460  0.23980  Biso   1.000  H
  H57      1.0000 0.40740  0.05430  0.70520  Biso   1.000  H
  H58      1.0000 0.59260  0.94570  0.29480  Biso   1.000  H
  C47      1.0000 0.26960  0.03380  0.72040  Biso   1.000  C
  C48      1.0000 0.73040  0.96620  0.27960  Biso   1.000  C
  H59      1.0000 0.25130  0.98280  0.72330  Biso   1.000  H
  H60      1.0000 0.74870  0.01720  0.27670  Biso   1.000  H
  H61      1.0000 0.25620  0.07330  0.67140  Biso   1.000  H
  H62      1.0000 0.74380  0.92670  0.32860  Biso   1.000  H
  C49      1.0000 0.19650  0.08170  0.79780  Biso   1.000  C
  C50      1.0000 0.80350  0.91830  0.20220  Biso   1.000  C
  H63      1.0000 0.21840  0.13040  0.79620  Biso   1.000  H
  H64      1.0000 0.78160  0.86960  0.20380  Biso   1.000  H
  H65      1.0000 0.20760  0.04100  0.84670  Biso   1.000  H
  H66      1.0000 0.79240  0.95900  0.15330  Biso   1.000  H
  C51      1.0000 0.07560  0.11870  0.80820  Biso   1.000  C
  C52      1.0000 0.92440  0.88130  0.19180  Biso   1.000  C
  H67      1.0000 0.06140  0.16720  0.76600  Biso   1.000  H
  H68      1.0000 0.93860  0.83280  0.23400  Biso   1.000  H
  H69      1.0000 0.03270  0.13980  0.86320  Biso   1.000  H
  H70      1.0000 0.96730  0.86020  0.13680  Biso   1.000  H
  H71      1.0000 0.05540  0.07270  0.80210  Biso   1.000  H
  H72      1.0000 0.94460  0.92730  0.19790  Biso   1.000  H
  C53      1.0000 0.44230  0.06340  0.91020  Biso   1.000  C
  C54      1.0000 0.55770  0.93660  0.08980  Biso   1.000  C
  H73      1.0000 0.38500  0.11620  0.93000  Biso   1.000  H
  H74      1.0000 0.61500  0.88380  0.07000  Biso   1.000  H
  C55      1.0000 0.42080  0.98700  0.93190  Biso   1.000  C
  C56      1.0000 0.57920  0.01300  0.06810  Biso   1.000  C
  H75      1.0000 0.35050  0.98790  0.96660  Biso   1.000  H
  H76      1.0000 0.64950  0.01210  0.03340  Biso   1.000  H
  C57      1.0000 0.50180  0.90990  0.90300  Biso   1.000  C
  C58      1.0000 0.49820  0.09010  0.09700  Biso   1.000  C
  C59      1.0000 0.60270  0.91120  0.85630  Biso   1.000  C
  C60      1.0000 0.39730  0.08880  0.14370  Biso   1.000  C
  H77      1.0000 0.66120  0.85860  0.83750  Biso   1.000  H
  H78      1.0000 0.33880  0.14140  0.16250  Biso   1.000  H
  C61      1.0000 0.61970  0.99070  0.83590  Biso   1.000  C
  C62      1.0000 0.38030  0.00930  0.16410  Biso   1.000  C
  H79      1.0000 0.68990  0.99070  0.80220  Biso   1.000  H
  H80      1.0000 0.31010  0.00930  0.19780  Biso   1.000  H
  C63      1.0000 0.48460  0.82550  0.92300  Biso   1.000  C
  C64      1.0000 0.51540  0.17450  0.07700  Biso   1.000  C
  H81      1.0000 0.55540  0.77760  0.90300  Biso   1.000  H
  H82      1.0000 0.44460  0.22240  0.09700  Biso   1.000  H
  H83      1.0000 0.45490  0.81460  0.98380  Biso   1.000  H
  H84      1.0000 0.54510  0.18540  0.01620  Biso   1.000  H
  C65      1.0000 0.30120  0.85170  0.91830  Biso   1.000  C
  C66      1.0000 0.69880  0.14830  0.08170  Biso   1.000  C
  H85      1.0000 0.25560  0.87730  0.96900  Biso   1.000  H
  H86      1.0000 0.74440  0.12270  0.03100  Biso   1.000  H
  C67      1.0000 0.26970  0.83480  0.86210  Biso   1.000  C
  C68      1.0000 0.73030  0.16520  0.13790  Biso   1.000  C
  C69      1.0000 0.15860  0.84540  0.86740  Biso   1.000  C
  C70      1.0000 0.84140  0.15460  0.13260  Biso   1.000  C
  H87      1.0000 0.15860  0.78800  0.86380  Biso   1.000  H
  H88      1.0000 0.84140  0.21200  0.13620  Biso   1.000  H
  H89      1.0000 0.14020  0.88530  0.82010  Biso   1.000  H
  H90      1.0000 0.85980  0.11470  0.17990  Biso   1.000  H
  C71      1.0000 0.07200  0.88260  0.94890  Biso   1.000  C
  C72      1.0000 0.92800  0.11740  0.05110  Biso   1.000  C
  H91      1.0000 0.09700  0.84860  0.99570  Biso   1.000  H
  H92      1.0000 0.90300  0.15140  0.00430  Biso   1.000  H
  H93      1.0000 0.06340  0.94400  0.94810  Biso   1.000  H
  H94      1.0000 0.93660  0.05600  0.05190  Biso   1.000  H
  C73      1.0000 0.96250  0.87960  0.96240  Biso   1.000  C
  C74      1.0000 0.03750  0.12040  0.03760  Biso   1.000  C
  H95      1.0000 0.90720  0.91320  0.00990  Biso   1.000  H
  H96      1.0000 0.09280  0.08680  0.99010  Biso   1.000  H
  H97      1.0000 0.94130  0.90830  0.91280  Biso   1.000  H
  H98      1.0000 0.05870  0.09170  0.08720  Biso   1.000  H
  C75      1.0000 0.96310  0.78720  0.97880  Biso   1.000  C
  C76      1.0000 0.03690  0.21280  0.02120  Biso   1.000  C
  H99      1.0000 0.99550  0.75530  0.02250  Biso   1.000  H
  H100     1.0000 0.00450  0.24470  0.97750  Biso   1.000  H
  H101     1.0000 0.00910  0.75650  0.92800  Biso   1.000  H
  H102     1.0000 0.99090  0.24350  0.07200  Biso   1.000  H
  C77      1.0000 0.84880  0.78560  0.00600  Biso   1.000  C
  C78      1.0000 0.15120  0.21440  0.99400  Biso   1.000  C
  H103     1.0000 0.80650  0.80730  0.06080  Biso   1.000  H
  H104     1.0000 0.19350  0.19270  0.93920  Biso   1.000  H
  H105     1.0000 0.85400  0.72560  0.00820  Biso   1.000  H
  H106     1.0000 0.14600  0.27440  0.99180  Biso   1.000  H
  H107     1.0000 0.81300  0.82300  0.96620  Biso   1.000  H
  H108     1.0000 0.18700  0.17700  0.03380  Biso   1.000  H
  C79      1.0000 0.50020  0.61810  0.98070  Biso   1.000  C
  C80      1.0000 0.49980  0.38190  0.01930  Biso   1.000  C
  H109     1.0000 0.56580  0.61540  0.98370  Biso   1.000  H
  H110     1.0000 0.43420  0.38460  0.01630  Biso   1.000  H
  C81      1.0000 0.50590  0.58880  0.91190  Biso   1.000  C
  C82      1.0000 0.49410  0.41120  0.08810  Biso   1.000  C
  H111     1.0000 0.57350  0.56650  0.86950  Biso   1.000  H
  H112     1.0000 0.42650  0.43350  0.13050  Biso   1.000  H
  C83      1.0000 0.41130  0.59250  0.90590  Biso   1.000  C
  C84      1.0000 0.58870  0.40750  0.09410  Biso   1.000  C
  C85      1.0000 0.31680  0.62430  0.97000  Biso   1.000  C
  C86      1.0000 0.68320  0.37570  0.03000  Biso   1.000  C
  H113     1.0000 0.25050  0.62710  0.96820  Biso   1.000  H
  H114     1.0000 0.74950  0.37290  0.03180  Biso   1.000  H
  C87      1.0000 0.31730  0.65200  0.03680  Biso   1.000  C
  C88      1.0000 0.68270  0.34800  0.96320  Biso   1.000  C
  H115     1.0000 0.25030  0.67350  0.08000  Biso   1.000  H
  H116     1.0000 0.74970  0.32650  0.92000  Biso   1.000  H
  C89      1.0000 0.42080  0.56010  0.83100  Biso   1.000  C
  C90      1.0000 0.57920  0.43990  0.16900  Biso   1.000  C
  H117     1.0000 0.47170  0.58080  0.78210  Biso   1.000  H
  H118     1.0000 0.52830  0.41920  0.21790  Biso   1.000  H
  H119     1.0000 0.45220  0.49540  0.83630  Biso   1.000  H
  H120     1.0000 0.54780  0.50460  0.16370  Biso   1.000  H
  C91      1.0000 0.24360  0.55230  0.84750  Biso   1.000  C
  C92      1.0000 0.75640  0.44770  0.15250  Biso   1.000  C
  H121     1.0000 0.24430  0.50340  0.88740  Biso   1.000  H
  H122     1.0000 0.75570  0.49660  0.11260  Biso   1.000  H
  C93      1.0000 0.16570  0.59870  0.81090  Biso   1.000  C
  C94      1.0000 0.83430  0.40130  0.18910  Biso   1.000  C
  C95      1.0000 0.06630  0.58510  0.82040  Biso   1.000  C
  C96      1.0000 0.93370  0.41490  0.17960  Biso   1.000  C
  H123     1.0000 0.06640  0.58030  0.76560  Biso   1.000  H
  H124     1.0000 0.93360  0.41970  0.23440  Biso   1.000  H
  H125     1.0000 0.00100  0.63540  0.84520  Biso   1.000  H
  H126     1.0000 0.99900  0.36460  0.15480  Biso   1.000  H
  C97      1.0000 0.06410  0.49920  0.87750  Biso   1.000  C
  C98      1.0000 0.93590  0.50080  0.12250  Biso   1.000  C
  H127     1.0000 0.13660  0.45280  0.85830  Biso   1.000  H
  H128     1.0000 0.86340  0.54720  0.14170  Biso   1.000  H
  H129     1.0000 0.05140  0.50930  0.93430  Biso   1.000  H
  H130     1.0000 0.94860  0.49070  0.06570  Biso   1.000  H
  C99      1.0000 0.98080  0.46610  0.88130  Biso   1.000  C
  C100     1.0000 0.01920  0.53390  0.11870  Biso   1.000  C
  H131     1.0000 0.90930  0.51470  0.89230  Biso   1.000  H
  H132     1.0000 0.09070  0.48530  0.10770  Biso   1.000  H
  H133     1.0000 0.97490  0.42040  0.92800  Biso   1.000  H
  H134     1.0000 0.02510  0.57960  0.07200  Biso   1.000  H
  C101     1.0000 0.00740  0.42810  0.80190  Biso   1.000  C
  C102     1.0000 0.99260  0.57190  0.19810  Biso   1.000  C
  H135     1.0000 0.00640  0.47470  0.75570  Biso   1.000  H
  H136     1.0000 0.99360  0.52530  0.24430  Biso   1.000  H
  H137     1.0000 0.08100  0.38220  0.78800  Biso   1.000  H
  H138     1.0000 0.91900  0.61780  0.21200  Biso   1.000  H
  C103     1.0000 0.92600  0.38970  0.81290  Biso   1.000  C
  C104     1.0000 0.07400  0.61030  0.18710  Biso   1.000  C
  H139     1.0000 0.93460  0.33810  0.85280  Biso   1.000  H
  H140     1.0000 0.06540  0.66190  0.14720  Biso   1.000  H
  H141     1.0000 0.93750  0.37280  0.75970  Biso   1.000  H
  H142     1.0000 0.06250  0.62720  0.24030  Biso   1.000  H
  H143     1.0000 0.85260  0.43320  0.83330  Biso   1.000  H
  H144     1.0000 0.14740  0.56680  0.16670  Biso   1.000  H
