data_image0
_cell_length_a       12.9571
_cell_length_b       12.9571
_cell_length_c       30.97
_cell_angle_alpha    90
_cell_angle_beta     90
_cell_angle_gamma    90

_symmetry_space_group_name_H-M    "P 1"
_symmetry_int_tables_number       1

loop_
  _symmetry_equiv_pos_as_xyz
  'x, y, z'

loop_
  _atom_site_label
  _atom_site_occupancy
  _atom_site_fract_x
  _atom_site_fract_y
  _atom_site_fract_z
  _atom_site_thermal_displace_type
  _atom_site_B_iso_or_equiv
  _atom_site_type_symbol
  Cu1      1.0000 0.53388  0.86695  0.58880  Biso   1.000  Cu
  Cu2      1.0000 0.96612  0.13305  0.08880  Biso   1.000  Cu
  Cu3      1.0000 0.38305  0.28388  0.83880  Biso   1.000  Cu
  Cu4      1.0000 0.11695  0.71612  0.33880  Biso   1.000  Cu
  Cu5      1.0000 0.96612  0.86695  0.41120  Biso   1.000  Cu
  Cu6      1.0000 0.53388  0.13305  0.91120  Biso   1.000  Cu
  Cu7      1.0000 0.11695  0.28388  0.16120  Biso   1.000  Cu
  Cu8      1.0000 0.38305  0.71612  0.66120  Biso   1.000  Cu
  Cu9      1.0000 0.03388  0.36695  0.08880  Biso   1.000  Cu
  Cu10     1.0000 0.46612  0.63305  0.58880  Biso   1.000  Cu
  Cu11     1.0000 0.88305  0.78388  0.33880  Biso   1.000  Cu
  Cu12     1.0000 0.61695  0.21612  0.83880  Biso   1.000  Cu
  Cu13     1.0000 0.46612  0.36695  0.91120  Biso   1.000  Cu
  Cu14     1.0000 0.03388  0.63305  0.41120  Biso   1.000  Cu
  Cu15     1.0000 0.61695  0.78388  0.66120  Biso   1.000  Cu
  Cu16     1.0000 0.88305  0.21612  0.16120  Biso   1.000  Cu
  Cu17     1.0000 0.46612  0.13305  0.41120  Biso   1.000  Cu
  Cu18     1.0000 0.03388  0.86695  0.91120  Biso   1.000  Cu
  Cu19     1.0000 0.11695  0.21612  0.66120  Biso   1.000  Cu
  Cu20     1.0000 0.38305  0.78388  0.16120  Biso   1.000  Cu
  Cu21     1.0000 0.03388  0.13305  0.58880  Biso   1.000  Cu
  Cu22     1.0000 0.46612  0.86695  0.08880  Biso   1.000  Cu
  Cu23     1.0000 0.38305  0.21612  0.33880  Biso   1.000  Cu
  Cu24     1.0000 0.11695  0.78388  0.83880  Biso   1.000  Cu
  Cu25     1.0000 0.96612  0.63305  0.91120  Biso   1.000  Cu
  Cu26     1.0000 0.53388  0.36695  0.41120  Biso   1.000  Cu
  Cu27     1.0000 0.61695  0.71612  0.16120  Biso   1.000  Cu
  Cu28     1.0000 0.88305  0.28388  0.66120  Biso   1.000  Cu
  Cu29     1.0000 0.53388  0.63305  0.08880  Biso   1.000  Cu
  Cu30     1.0000 0.96612  0.36695  0.58880  Biso   1.000  Cu
  Cu31     1.0000 0.88305  0.71612  0.83880  Biso   1.000  Cu
  Cu32     1.0000 0.61695  0.28388  0.33880  Biso   1.000  Cu
  Cl1      1.0000 0.36004  0.76168  0.57623  Biso   1.000  Cl
  Cl2      1.0000 0.13996  0.23832  0.07623  Biso   1.000  Cl
  Cl3      1.0000 0.48832  0.11004  0.82623  Biso   1.000  Cl
  Cl4      1.0000 0.01168  0.88996  0.32623  Biso   1.000  Cl
  Cl5      1.0000 0.13996  0.76168  0.42377  Biso   1.000  Cl
  Cl6      1.0000 0.36004  0.23832  0.92377  Biso   1.000  Cl
  Cl7      1.0000 0.01168  0.11004  0.17377  Biso   1.000  Cl
  Cl8      1.0000 0.48832  0.88996  0.67377  Biso   1.000  Cl
  Cl9      1.0000 0.86004  0.26168  0.07623  Biso   1.000  Cl
  Cl10     1.0000 0.63996  0.73832  0.57623  Biso   1.000  Cl
  Cl11     1.0000 0.98832  0.61004  0.32623  Biso   1.000  Cl
  Cl12     1.0000 0.51168  0.38996  0.82623  Biso   1.000  Cl
  Cl13     1.0000 0.63996  0.26168  0.92377  Biso   1.000  Cl
  Cl14     1.0000 0.86004  0.73832  0.42377  Biso   1.000  Cl
  Cl15     1.0000 0.51168  0.61004  0.67377  Biso   1.000  Cl
  Cl16     1.0000 0.98832  0.38996  0.17377  Biso   1.000  Cl
  Cl17     1.0000 0.63996  0.23832  0.42377  Biso   1.000  Cl
  Cl18     1.0000 0.86004  0.76168  0.92377  Biso   1.000  Cl
  Cl19     1.0000 0.01168  0.38996  0.67377  Biso   1.000  Cl
  Cl20     1.0000 0.48832  0.61004  0.17377  Biso   1.000  Cl
  Cl21     1.0000 0.86004  0.23832  0.57623  Biso   1.000  Cl
  Cl22     1.0000 0.63996  0.76168  0.07623  Biso   1.000  Cl
  Cl23     1.0000 0.48832  0.38996  0.32623  Biso   1.000  Cl
  Cl24     1.0000 0.01168  0.61004  0.82623  Biso   1.000  Cl
  Cl25     1.0000 0.13996  0.73832  0.92377  Biso   1.000  Cl
  Cl26     1.0000 0.36004  0.26168  0.42377  Biso   1.000  Cl
  Cl27     1.0000 0.51168  0.88996  0.17377  Biso   1.000  Cl
  Cl28     1.0000 0.98832  0.11004  0.67377  Biso   1.000  Cl
  Cl29     1.0000 0.36004  0.73832  0.07623  Biso   1.000  Cl
  Cl30     1.0000 0.13996  0.26168  0.57623  Biso   1.000  Cl
  Cl31     1.0000 0.98832  0.88996  0.82623  Biso   1.000  Cl
  Cl32     1.0000 0.51168  0.11004  0.32623  Biso   1.000  Cl
  N1       1.0000 0.49300  0.00550  0.57597  Biso   1.000  N
  N2       1.0000 0.00700  0.99450  0.07597  Biso   1.000  N
  N3       1.0000 0.24450  0.24300  0.82597  Biso   1.000  N
  N4       1.0000 0.25550  0.75700  0.32597  Biso   1.000  N
  N5       1.0000 0.00700  0.00550  0.42403  Biso   1.000  N
  N6       1.0000 0.49300  0.99450  0.92403  Biso   1.000  N
  N7       1.0000 0.25550  0.24300  0.17403  Biso   1.000  N
  N8       1.0000 0.24450  0.75700  0.67403  Biso   1.000  N
  N9       1.0000 0.99300  0.50550  0.07597  Biso   1.000  N
  N10      1.0000 0.50700  0.49450  0.57597  Biso   1.000  N
  N11      1.0000 0.74450  0.74300  0.32597  Biso   1.000  N
  N12      1.0000 0.75550  0.25700  0.82597  Biso   1.000  N
  N13      1.0000 0.50700  0.50550  0.92403  Biso   1.000  N
  N14      1.0000 0.99300  0.49450  0.42403  Biso   1.000  N
  N15      1.0000 0.75550  0.74300  0.67403  Biso   1.000  N
  N16      1.0000 0.74450  0.25700  0.17403  Biso   1.000  N
  N17      1.0000 0.50700  0.99450  0.42403  Biso   1.000  N
  N18      1.0000 0.99300  0.00550  0.92403  Biso   1.000  N
  N19      1.0000 0.25550  0.25700  0.67403  Biso   1.000  N
  N20      1.0000 0.24450  0.74300  0.17403  Biso   1.000  N
  N21      1.0000 0.99300  0.99450  0.57597  Biso   1.000  N
  N22      1.0000 0.50700  0.00550  0.07597  Biso   1.000  N
  N23      1.0000 0.24450  0.25700  0.32597  Biso   1.000  N
  N24      1.0000 0.25550  0.74300  0.82597  Biso   1.000  N
  N25      1.0000 0.00700  0.49450  0.92403  Biso   1.000  N
  N26      1.0000 0.49300  0.50550  0.42403  Biso   1.000  N
  N27      1.0000 0.75550  0.75700  0.17403  Biso   1.000  N
  N28      1.0000 0.74450  0.24300  0.67403  Biso   1.000  N
  N29      1.0000 0.49300  0.49450  0.07597  Biso   1.000  N
  N30      1.0000 0.00700  0.50550  0.57597  Biso   1.000  N
  N31      1.0000 0.74450  0.75700  0.82597  Biso   1.000  N
  N32      1.0000 0.75550  0.24300  0.32597  Biso   1.000  N
  N33      1.0000 0.48010  0.16000  0.54855  Biso   1.000  N
  N34      1.0000 0.01990  0.84000  0.04855  Biso   1.000  N
  N35      1.0000 0.09000  0.23010  0.79855  Biso   1.000  N
  N36      1.0000 0.41000  0.76990  0.29855  Biso   1.000  N
  N37      1.0000 0.01990  0.16000  0.45145  Biso   1.000  N
  N38      1.0000 0.48010  0.84000  0.95145  Biso   1.000  N
  N39      1.0000 0.41000  0.23010  0.20145  Biso   1.000  N
  N40      1.0000 0.09000  0.76990  0.70145  Biso   1.000  N
  N41      1.0000 0.98010  0.66000  0.04855  Biso   1.000  N
  N42      1.0000 0.51990  0.34000  0.54855  Biso   1.000  N
  N43      1.0000 0.59000  0.73010  0.29855  Biso   1.000  N
  N44      1.0000 0.91000  0.26990  0.79855  Biso   1.000  N
  N45      1.0000 0.51990  0.66000  0.95145  Biso   1.000  N
  N46      1.0000 0.98010  0.34000  0.45145  Biso   1.000  N
  N47      1.0000 0.91000  0.73010  0.70145  Biso   1.000  N
  N48      1.0000 0.59000  0.26990  0.20145  Biso   1.000  N
  N49      1.0000 0.51990  0.84000  0.45145  Biso   1.000  N
  N50      1.0000 0.98010  0.16000  0.95145  Biso   1.000  N
  N51      1.0000 0.41000  0.26990  0.70145  Biso   1.000  N
  N52      1.0000 0.09000  0.73010  0.20145  Biso   1.000  N
  N53      1.0000 0.98010  0.84000  0.54855  Biso   1.000  N
  N54      1.0000 0.51990  0.16000  0.04855  Biso   1.000  N
  N55      1.0000 0.09000  0.26990  0.29855  Biso   1.000  N
  N56      1.0000 0.41000  0.73010  0.79855  Biso   1.000  N
  N57      1.0000 0.01990  0.34000  0.95145  Biso   1.000  N
  N58      1.0000 0.48010  0.66000  0.45145  Biso   1.000  N
  N59      1.0000 0.91000  0.76990  0.20145  Biso   1.000  N
  N60      1.0000 0.59000  0.23010  0.70145  Biso   1.000  N
  N61      1.0000 0.48010  0.34000  0.04855  Biso   1.000  N
  N62      1.0000 0.01990  0.66000  0.54855  Biso   1.000  N
  N63      1.0000 0.59000  0.76990  0.79855  Biso   1.000  N
  N64      1.0000 0.91000  0.23010  0.29855  Biso   1.000  N
  C1       1.0000 0.40180  0.05260  0.59045  Biso   1.000  C
  C2       1.0000 0.09820  0.94740  0.09045  Biso   1.000  C
  C3       1.0000 0.19740  0.15180  0.84045  Biso   1.000  C
  C4       1.0000 0.30260  0.84820  0.34045  Biso   1.000  C
  C5       1.0000 0.09820  0.05260  0.40955  Biso   1.000  C
  C6       1.0000 0.40180  0.94740  0.90955  Biso   1.000  C
  C7       1.0000 0.30260  0.15180  0.15955  Biso   1.000  C
  C8       1.0000 0.19740  0.84820  0.65955  Biso   1.000  C
  C9       1.0000 0.90180  0.55260  0.09045  Biso   1.000  C
  C10      1.0000 0.59820  0.44740  0.59045  Biso   1.000  C
  C11      1.0000 0.69740  0.65180  0.34045  Biso   1.000  C
  C12      1.0000 0.80260  0.34820  0.84045  Biso   1.000  C
  C13      1.0000 0.59820  0.55260  0.90955  Biso   1.000  C
  C14      1.0000 0.90180  0.44740  0.40955  Biso   1.000  C
  C15      1.0000 0.80260  0.65180  0.65955  Biso   1.000  C
  C16      1.0000 0.69740  0.34820  0.15955  Biso   1.000  C
  C17      1.0000 0.59820  0.94740  0.40955  Biso   1.000  C
  C18      1.0000 0.90180  0.05260  0.90955  Biso   1.000  C
  C19      1.0000 0.30260  0.34820  0.65955  Biso   1.000  C
  C20      1.0000 0.19740  0.65180  0.15955  Biso   1.000  C
  C21      1.0000 0.90180  0.94740  0.59045  Biso   1.000  C
  C22      1.0000 0.59820  0.05260  0.09045  Biso   1.000  C
  C23      1.0000 0.19740  0.34820  0.34045  Biso   1.000  C
  C24      1.0000 0.30260  0.65180  0.84045  Biso   1.000  C
  C25      1.0000 0.09820  0.44740  0.90955  Biso   1.000  C
  C26      1.0000 0.40180  0.55260  0.40955  Biso   1.000  C
  C27      1.0000 0.80260  0.84820  0.15955  Biso   1.000  C
  C28      1.0000 0.69740  0.15180  0.65955  Biso   1.000  C
  C29      1.0000 0.40180  0.44740  0.09045  Biso   1.000  C
  C30      1.0000 0.09820  0.55260  0.59045  Biso   1.000  C
  C31      1.0000 0.69740  0.84820  0.84045  Biso   1.000  C
  C32      1.0000 0.80260  0.15180  0.34045  Biso   1.000  C
  H1       1.0000 0.35350  0.02180  0.60960  Biso   1.000  H
  H2       1.0000 0.14650  0.97820  0.10960  Biso   1.000  H
  H3       1.0000 0.22820  0.10350  0.85960  Biso   1.000  H
  H4       1.0000 0.27180  0.89650  0.35960  Biso   1.000  H
  H5       1.0000 0.14650  0.02180  0.39040  Biso   1.000  H
  H6       1.0000 0.35350  0.97820  0.89040  Biso   1.000  H
  H7       1.0000 0.27180  0.10350  0.14040  Biso   1.000  H
  H8       1.0000 0.22820  0.89650  0.64040  Biso   1.000  H
  H9       1.0000 0.85350  0.52180  0.10960  Biso   1.000  H
  H10      1.0000 0.64650  0.47820  0.60960  Biso   1.000  H
  H11      1.0000 0.72820  0.60350  0.35960  Biso   1.000  H
  H12      1.0000 0.77180  0.39650  0.85960  Biso   1.000  H
  H13      1.0000 0.64650  0.52180  0.89040  Biso   1.000  H
  H14      1.0000 0.85350  0.47820  0.39040  Biso   1.000  H
  H15      1.0000 0.77180  0.60350  0.64040  Biso   1.000  H
  H16      1.0000 0.72820  0.39650  0.14040  Biso   1.000  H
  H17      1.0000 0.64650  0.97820  0.39040  Biso   1.000  H
  H18      1.0000 0.85350  0.02180  0.89040  Biso   1.000  H
  H19      1.0000 0.27180  0.39650  0.64040  Biso   1.000  H
  H20      1.0000 0.22820  0.60350  0.14040  Biso   1.000  H
  H21      1.0000 0.85350  0.97820  0.60960  Biso   1.000  H
  H22      1.0000 0.64650  0.02180  0.10960  Biso   1.000  H
  H23      1.0000 0.22820  0.39650  0.35960  Biso   1.000  H
  H24      1.0000 0.27180  0.60350  0.85960  Biso   1.000  H
  H25      1.0000 0.14650  0.47820  0.89040  Biso   1.000  H
  H26      1.0000 0.35350  0.52180  0.39040  Biso   1.000  H
  H27      1.0000 0.77180  0.89650  0.14040  Biso   1.000  H
  H28      1.0000 0.72820  0.10350  0.64040  Biso   1.000  H
  H29      1.0000 0.35350  0.47820  0.10960  Biso   1.000  H
  H30      1.0000 0.14650  0.52180  0.60960  Biso   1.000  H
  H31      1.0000 0.72820  0.89650  0.85960  Biso   1.000  H
  H32      1.0000 0.77180  0.10350  0.35960  Biso   1.000  H
  C33      1.0000 0.39270  0.14530  0.57380  Biso   1.000  C
  C34      1.0000 0.10730  0.85470  0.07380  Biso   1.000  C
  C35      1.0000 0.10470  0.14270  0.82380  Biso   1.000  C
  C36      1.0000 0.39530  0.85730  0.32380  Biso   1.000  C
  C37      1.0000 0.10730  0.14530  0.42620  Biso   1.000  C
  C38      1.0000 0.39270  0.85470  0.92620  Biso   1.000  C
  C39      1.0000 0.39530  0.14270  0.17620  Biso   1.000  C
  C40      1.0000 0.10470  0.85730  0.67620  Biso   1.000  C
  C41      1.0000 0.89270  0.64530  0.07380  Biso   1.000  C
  C42      1.0000 0.60730  0.35470  0.57380  Biso   1.000  C
  C43      1.0000 0.60470  0.64270  0.32380  Biso   1.000  C
  C44      1.0000 0.89530  0.35730  0.82380  Biso   1.000  C
  C45      1.0000 0.60730  0.64530  0.92620  Biso   1.000  C
  C46      1.0000 0.89270  0.35470  0.42620  Biso   1.000  C
  C47      1.0000 0.89530  0.64270  0.67620  Biso   1.000  C
  C48      1.0000 0.60470  0.35730  0.17620  Biso   1.000  C
  C49      1.0000 0.60730  0.85470  0.42620  Biso   1.000  C
  C50      1.0000 0.89270  0.14530  0.92620  Biso   1.000  C
  C51      1.0000 0.39530  0.35730  0.67620  Biso   1.000  C
  C52      1.0000 0.10470  0.64270  0.17620  Biso   1.000  C
  C53      1.0000 0.89270  0.85470  0.57380  Biso   1.000  C
  C54      1.0000 0.60730  0.14530  0.07380  Biso   1.000  C
  C55      1.0000 0.10470  0.35730  0.32380  Biso   1.000  C
  C56      1.0000 0.39530  0.64270  0.82380  Biso   1.000  C
  C57      1.0000 0.10730  0.35470  0.92620  Biso   1.000  C
  C58      1.0000 0.39270  0.64530  0.42620  Biso   1.000  C
  C59      1.0000 0.89530  0.85730  0.17620  Biso   1.000  C
  C60      1.0000 0.60470  0.14270  0.67620  Biso   1.000  C
  C61      1.0000 0.39270  0.35470  0.07380  Biso   1.000  C
  C62      1.0000 0.10730  0.64530  0.57380  Biso   1.000  C
  C63      1.0000 0.60470  0.85730  0.82380  Biso   1.000  C
  C64      1.0000 0.89530  0.14270  0.32380  Biso   1.000  C
  H33      1.0000 0.33770  0.19260  0.57810  Biso   1.000  H
  H34      1.0000 0.16230  0.80740  0.07810  Biso   1.000  H
  H35      1.0000 0.05740  0.08770  0.82810  Biso   1.000  H
  H36      1.0000 0.44260  0.91230  0.32810  Biso   1.000  H
  H37      1.0000 0.16230  0.19260  0.42190  Biso   1.000  H
  H38      1.0000 0.33770  0.80740  0.92190  Biso   1.000  H
  H39      1.0000 0.44260  0.08770  0.17190  Biso   1.000  H
  H40      1.0000 0.05740  0.91230  0.67190  Biso   1.000  H
  H41      1.0000 0.83770  0.69260  0.07810  Biso   1.000  H
  H42      1.0000 0.66230  0.30740  0.57810  Biso   1.000  H
  H43      1.0000 0.55740  0.58770  0.32810  Biso   1.000  H
  H44      1.0000 0.94260  0.41230  0.82810  Biso   1.000  H
  H45      1.0000 0.66230  0.69260  0.92190  Biso   1.000  H
  H46      1.0000 0.83770  0.30740  0.42190  Biso   1.000  H
  H47      1.0000 0.94260  0.58770  0.67190  Biso   1.000  H
  H48      1.0000 0.55740  0.41230  0.17190  Biso   1.000  H
  H49      1.0000 0.66230  0.80740  0.42190  Biso   1.000  H
  H50      1.0000 0.83770  0.19260  0.92190  Biso   1.000  H
  H51      1.0000 0.44260  0.41230  0.67190  Biso   1.000  H
  H52      1.0000 0.05740  0.58770  0.17190  Biso   1.000  H
  H53      1.0000 0.83770  0.80740  0.57810  Biso   1.000  H
  H54      1.0000 0.66230  0.19260  0.07810  Biso   1.000  H
  H55      1.0000 0.05740  0.41230  0.32810  Biso   1.000  H
  H56      1.0000 0.44260  0.58770  0.82810  Biso   1.000  H
  H57      1.0000 0.16230  0.30740  0.92190  Biso   1.000  H
  H58      1.0000 0.33770  0.69260  0.42190  Biso   1.000  H
  H59      1.0000 0.94260  0.91230  0.17190  Biso   1.000  H
  H60      1.0000 0.55740  0.08770  0.67190  Biso   1.000  H
  H61      1.0000 0.33770  0.30740  0.07810  Biso   1.000  H
  H62      1.0000 0.16230  0.69260  0.57810  Biso   1.000  H
  H63      1.0000 0.55740  0.91230  0.82810  Biso   1.000  H
  H64      1.0000 0.94260  0.08770  0.32810  Biso   1.000  H
  C65      1.0000 0.53760  0.07400  0.55121  Biso   1.000  C
  C66      1.0000 0.96240  0.92600  0.05121  Biso   1.000  C
  C67      1.0000 0.17600  0.28760  0.80121  Biso   1.000  C
  C68      1.0000 0.32400  0.71240  0.30121  Biso   1.000  C
  C69      1.0000 0.96240  0.07400  0.44879  Biso   1.000  C
  C70      1.0000 0.53760  0.92600  0.94879  Biso   1.000  C
  C71      1.0000 0.32400  0.28760  0.19879  Biso   1.000  C
  C72      1.0000 0.17600  0.71240  0.69879  Biso   1.000  C
  C73      1.0000 0.03760  0.57400  0.05121  Biso   1.000  C
  C74      1.0000 0.46240  0.42600  0.55121  Biso   1.000  C
  C75      1.0000 0.67600  0.78760  0.30121  Biso   1.000  C
  C76      1.0000 0.82400  0.21240  0.80121  Biso   1.000  C
  C77      1.0000 0.46240  0.57400  0.94879  Biso   1.000  C
  C78      1.0000 0.03760  0.42600  0.44879  Biso   1.000  C
  C79      1.0000 0.82400  0.78760  0.69879  Biso   1.000  C
  C80      1.0000 0.67600  0.21240  0.19879  Biso   1.000  C
  C81      1.0000 0.46240  0.92600  0.44879  Biso   1.000  C
  C82      1.0000 0.03760  0.07400  0.94879  Biso   1.000  C
  C83      1.0000 0.32400  0.21240  0.69879  Biso   1.000  C
  C84      1.0000 0.17600  0.78760  0.19879  Biso   1.000  C
  C85      1.0000 0.03760  0.92600  0.55121  Biso   1.000  C
  C86      1.0000 0.46240  0.07400  0.05121  Biso   1.000  C
  C87      1.0000 0.17600  0.21240  0.30121  Biso   1.000  C
  C88      1.0000 0.32400  0.78760  0.80121  Biso   1.000  C
  C89      1.0000 0.96240  0.42600  0.94879  Biso   1.000  C
  C90      1.0000 0.53760  0.57400  0.44879  Biso   1.000  C
  C91      1.0000 0.82400  0.71240  0.19879  Biso   1.000  C
  C92      1.0000 0.67600  0.28760  0.69879  Biso   1.000  C
  C93      1.0000 0.53760  0.42600  0.05121  Biso   1.000  C
  C94      1.0000 0.96240  0.57400  0.55121  Biso   1.000  C
  C95      1.0000 0.67600  0.71240  0.80121  Biso   1.000  C
  C96      1.0000 0.82400  0.28760  0.30121  Biso   1.000  C
  C97      1.0000 0.50000  0.25000  0.52240  Biso   1.000  C
  C98      1.0000 0.00000  0.75000  0.02240  Biso   1.000  C
  C99      1.0000 0.00000  0.25000  0.77240  Biso   1.000  C
  C100     1.0000 0.50000  0.75000  0.27240  Biso   1.000  C
  C101     1.0000 0.00000  0.25000  0.47760  Biso   1.000  C
  C102     1.0000 0.50000  0.75000  0.97760  Biso   1.000  C
  C103     1.0000 0.50000  0.25000  0.22760  Biso   1.000  C
  C104     1.0000 0.00000  0.75000  0.72760  Biso   1.000  C
  C105     1.0000 0.50000  0.75000  0.47760  Biso   1.000  C
  C106     1.0000 0.00000  0.25000  0.97760  Biso   1.000  C
  C107     1.0000 0.50000  0.25000  0.72760  Biso   1.000  C
  C108     1.0000 0.00000  0.75000  0.22760  Biso   1.000  C
  C109     1.0000 0.00000  0.75000  0.52240  Biso   1.000  C
  C110     1.0000 0.50000  0.25000  0.02240  Biso   1.000  C
  C111     1.0000 0.00000  0.25000  0.27240  Biso   1.000  C
  C112     1.0000 0.50000  0.75000  0.77240  Biso   1.000  C
  H65      1.0000 0.56030  0.23670  0.50360  Biso   1.000  H
  H66      1.0000 0.93970  0.76330  0.00360  Biso   1.000  H
  H67      1.0000 0.01330  0.31030  0.75360  Biso   1.000  H
  H68      1.0000 0.48670  0.68970  0.25360  Biso   1.000  H
  H69      1.0000 0.93970  0.23670  0.49640  Biso   1.000  H
  H70      1.0000 0.56030  0.76330  0.99640  Biso   1.000  H
  H71      1.0000 0.48670  0.31030  0.24640  Biso   1.000  H
  H72      1.0000 0.01330  0.68970  0.74640  Biso   1.000  H
  H73      1.0000 0.06030  0.73670  0.00360  Biso   1.000  H
  H74      1.0000 0.43970  0.26330  0.50360  Biso   1.000  H
  H75      1.0000 0.51330  0.81030  0.25360  Biso   1.000  H
  H76      1.0000 0.98670  0.18970  0.75360  Biso   1.000  H
  H77      1.0000 0.43970  0.73670  0.99640  Biso   1.000  H
  H78      1.0000 0.06030  0.26330  0.49640  Biso   1.000  H
  H79      1.0000 0.98670  0.81030  0.74640  Biso   1.000  H
  H80      1.0000 0.51330  0.18970  0.24640  Biso   1.000  H
  H81      1.0000 0.43970  0.76330  0.49640  Biso   1.000  H
  H82      1.0000 0.06030  0.23670  0.99640  Biso   1.000  H
  H83      1.0000 0.48670  0.18970  0.74640  Biso   1.000  H
  H84      1.0000 0.01330  0.81030  0.24640  Biso   1.000  H
  H85      1.0000 0.06030  0.76330  0.50360  Biso   1.000  H
  H86      1.0000 0.43970  0.23670  0.00360  Biso   1.000  H
  H87      1.0000 0.01330  0.18970  0.25360  Biso   1.000  H
  H88      1.0000 0.48670  0.81030  0.75360  Biso   1.000  H
  H89      1.0000 0.93970  0.26330  0.99640  Biso   1.000  H
  H90      1.0000 0.56030  0.73670  0.49640  Biso   1.000  H
  H91      1.0000 0.98670  0.68970  0.24640  Biso   1.000  H
  H92      1.0000 0.51330  0.31030  0.74640  Biso   1.000  H
  H93      1.0000 0.56030  0.26330  0.00360  Biso   1.000  H
  H94      1.0000 0.93970  0.73670  0.50360  Biso   1.000  H
  H95      1.0000 0.51330  0.68970  0.75360  Biso   1.000  H
  H96      1.0000 0.98670  0.31030  0.25360  Biso   1.000  H
  C113     1.0000 0.63670  0.05850  0.52907  Biso   1.000  C
  C114     1.0000 0.86330  0.94150  0.02907  Biso   1.000  C
  C115     1.0000 0.19150  0.38670  0.77907  Biso   1.000  C
  C116     1.0000 0.30850  0.61330  0.27907  Biso   1.000  C
  C117     1.0000 0.86330  0.05850  0.47093  Biso   1.000  C
  C118     1.0000 0.63670  0.94150  0.97093  Biso   1.000  C
  C119     1.0000 0.30850  0.38670  0.22093  Biso   1.000  C
  C120     1.0000 0.19150  0.61330  0.72093  Biso   1.000  C
  C121     1.0000 0.13670  0.55850  0.02907  Biso   1.000  C
  C122     1.0000 0.36330  0.44150  0.52907  Biso   1.000  C
  C123     1.0000 0.69150  0.88670  0.27907  Biso   1.000  C
  C124     1.0000 0.80850  0.11330  0.77907  Biso   1.000  C
  C125     1.0000 0.36330  0.55850  0.97093  Biso   1.000  C
  C126     1.0000 0.13670  0.44150  0.47093  Biso   1.000  C
  C127     1.0000 0.80850  0.88670  0.72093  Biso   1.000  C
  C128     1.0000 0.69150  0.11330  0.22093  Biso   1.000  C
  C129     1.0000 0.36330  0.94150  0.47093  Biso   1.000  C
  C130     1.0000 0.13670  0.05850  0.97093  Biso   1.000  C
  C131     1.0000 0.30850  0.11330  0.72093  Biso   1.000  C
  C132     1.0000 0.19150  0.88670  0.22093  Biso   1.000  C
  C133     1.0000 0.13670  0.94150  0.52907  Biso   1.000  C
  C134     1.0000 0.36330  0.05850  0.02907  Biso   1.000  C
  C135     1.0000 0.19150  0.11330  0.27907  Biso   1.000  C
  C136     1.0000 0.30850  0.88670  0.77907  Biso   1.000  C
  C137     1.0000 0.86330  0.44150  0.97093  Biso   1.000  C
  C138     1.0000 0.63670  0.55850  0.47093  Biso   1.000  C
  C139     1.0000 0.80850  0.61330  0.22093  Biso   1.000  C
  C140     1.0000 0.69150  0.38670  0.72093  Biso   1.000  C
  C141     1.0000 0.63670  0.44150  0.02907  Biso   1.000  C
  C142     1.0000 0.86330  0.55850  0.52907  Biso   1.000  C
  C143     1.0000 0.69150  0.61330  0.77907  Biso   1.000  C
  C144     1.0000 0.80850  0.38670  0.27907  Biso   1.000  C
  H97      1.0000 0.65890  0.98670  0.53260  Biso   1.000  H
  H98      1.0000 0.84110  0.01330  0.03260  Biso   1.000  H
  H99      1.0000 0.26330  0.40890  0.78260  Biso   1.000  H
  H100     1.0000 0.23670  0.59110  0.28260  Biso   1.000  H
  H101     1.0000 0.84110  0.98670  0.46740  Biso   1.000  H
  H102     1.0000 0.65890  0.01330  0.96740  Biso   1.000  H
  H103     1.0000 0.23670  0.40890  0.21740  Biso   1.000  H
  H104     1.0000 0.26330  0.59110  0.71740  Biso   1.000  H
  H105     1.0000 0.15890  0.48670  0.03260  Biso   1.000  H
  H106     1.0000 0.34110  0.51330  0.53260  Biso   1.000  H
  H107     1.0000 0.76330  0.90890  0.28260  Biso   1.000  H
  H108     1.0000 0.73670  0.09110  0.78260  Biso   1.000  H
  H109     1.0000 0.34110  0.48670  0.96740  Biso   1.000  H
  H110     1.0000 0.15890  0.51330  0.46740  Biso   1.000  H
  H111     1.0000 0.73670  0.90890  0.71740  Biso   1.000  H
  H112     1.0000 0.76330  0.09110  0.21740  Biso   1.000  H
  H113     1.0000 0.34110  0.01330  0.46740  Biso   1.000  H
  H114     1.0000 0.15890  0.98670  0.96740  Biso   1.000  H
  H115     1.0000 0.23670  0.09110  0.71740  Biso   1.000  H
  H116     1.0000 0.26330  0.90890  0.21740  Biso   1.000  H
  H117     1.0000 0.15890  0.01330  0.53260  Biso   1.000  H
  H118     1.0000 0.34110  0.98670  0.03260  Biso   1.000  H
  H119     1.0000 0.26330  0.09110  0.28260  Biso   1.000  H
  H120     1.0000 0.23670  0.90890  0.78260  Biso   1.000  H
  H121     1.0000 0.84110  0.51330  0.96740  Biso   1.000  H
  H122     1.0000 0.65890  0.48670  0.46740  Biso   1.000  H
  H123     1.0000 0.73670  0.59110  0.21740  Biso   1.000  H
  H124     1.0000 0.76330  0.40890  0.71740  Biso   1.000  H
  H125     1.0000 0.65890  0.51330  0.03260  Biso   1.000  H
  H126     1.0000 0.84110  0.48670  0.53260  Biso   1.000  H
  H127     1.0000 0.76330  0.59110  0.78260  Biso   1.000  H
  H128     1.0000 0.73670  0.40890  0.28260  Biso   1.000  H
  H129     1.0000 0.68870  0.10460  0.54160  Biso   1.000  H
  H130     1.0000 0.81130  0.89540  0.04160  Biso   1.000  H
  H131     1.0000 0.14540  0.43870  0.79160  Biso   1.000  H
  H132     1.0000 0.35460  0.56130  0.29160  Biso   1.000  H
  H133     1.0000 0.81130  0.10460  0.45840  Biso   1.000  H
  H134     1.0000 0.68870  0.89540  0.95840  Biso   1.000  H
  H135     1.0000 0.35460  0.43870  0.20840  Biso   1.000  H
  H136     1.0000 0.14540  0.56130  0.70840  Biso   1.000  H
  H137     1.0000 0.18870  0.60460  0.04160  Biso   1.000  H
  H138     1.0000 0.31130  0.39540  0.54160  Biso   1.000  H
  H139     1.0000 0.64540  0.93870  0.29160  Biso   1.000  H
  H140     1.0000 0.85460  0.06130  0.79160  Biso   1.000  H
  H141     1.0000 0.31130  0.60460  0.95840  Biso   1.000  H
  H142     1.0000 0.18870  0.39540  0.45840  Biso   1.000  H
  H143     1.0000 0.85460  0.93870  0.70840  Biso   1.000  H
  H144     1.0000 0.64540  0.06130  0.20840  Biso   1.000  H
  H145     1.0000 0.31130  0.89540  0.45840  Biso   1.000  H
  H146     1.0000 0.18870  0.10460  0.95840  Biso   1.000  H
  H147     1.0000 0.35460  0.06130  0.70840  Biso   1.000  H
  H148     1.0000 0.14540  0.93870  0.20840  Biso   1.000  H
  H149     1.0000 0.18870  0.89540  0.54160  Biso   1.000  H
  H150     1.0000 0.31130  0.10460  0.04160  Biso   1.000  H
  H151     1.0000 0.14540  0.06130  0.29160  Biso   1.000  H
  H152     1.0000 0.35460  0.93870  0.79160  Biso   1.000  H
  H153     1.0000 0.81130  0.39540  0.95840  Biso   1.000  H
  H154     1.0000 0.68870  0.60460  0.45840  Biso   1.000  H
  H155     1.0000 0.85460  0.56130  0.20840  Biso   1.000  H
  H156     1.0000 0.64540  0.43870  0.70840  Biso   1.000  H
  H157     1.0000 0.68870  0.39540  0.04160  Biso   1.000  H
  H158     1.0000 0.81130  0.60460  0.54160  Biso   1.000  H
  H159     1.0000 0.64540  0.56130  0.79160  Biso   1.000  H
  H160     1.0000 0.85460  0.43870  0.29160  Biso   1.000  H
  H161     1.0000 0.62860  0.07380  0.49830  Biso   1.000  H
  H162     1.0000 0.87140  0.92620  0.99830  Biso   1.000  H
  H163     1.0000 0.17620  0.37860  0.74830  Biso   1.000  H
  H164     1.0000 0.32380  0.62140  0.24830  Biso   1.000  H
  H165     1.0000 0.87140  0.07380  0.50170  Biso   1.000  H
  H166     1.0000 0.62860  0.92620  0.00170  Biso   1.000  H
  H167     1.0000 0.32380  0.37860  0.25170  Biso   1.000  H
  H168     1.0000 0.17620  0.62140  0.75170  Biso   1.000  H
  H169     1.0000 0.12860  0.57380  0.99830  Biso   1.000  H
  H170     1.0000 0.37140  0.42620  0.49830  Biso   1.000  H
  H171     1.0000 0.67620  0.87860  0.24830  Biso   1.000  H
  H172     1.0000 0.82380  0.12140  0.74830  Biso   1.000  H
  H173     1.0000 0.37140  0.57380  0.00170  Biso   1.000  H
  H174     1.0000 0.12860  0.42620  0.50170  Biso   1.000  H
  H175     1.0000 0.82380  0.87860  0.75170  Biso   1.000  H
  H176     1.0000 0.67620  0.12140  0.25170  Biso   1.000  H
  H177     1.0000 0.37140  0.92620  0.50170  Biso   1.000  H
  H178     1.0000 0.12860  0.07380  0.00170  Biso   1.000  H
  H179     1.0000 0.32380  0.12140  0.75170  Biso   1.000  H
  H180     1.0000 0.17620  0.87860  0.25170  Biso   1.000  H
  H181     1.0000 0.12860  0.92620  0.49830  Biso   1.000  H
  H182     1.0000 0.37140  0.07380  0.99830  Biso   1.000  H
  H183     1.0000 0.17620  0.12140  0.24830  Biso   1.000  H
  H184     1.0000 0.32380  0.87860  0.74830  Biso   1.000  H
  H185     1.0000 0.87140  0.42620  0.00170  Biso   1.000  H
  H186     1.0000 0.62860  0.57380  0.50170  Biso   1.000  H
  H187     1.0000 0.82380  0.62140  0.25170  Biso   1.000  H
  H188     1.0000 0.67620  0.37860  0.75170  Biso   1.000  H
  H189     1.0000 0.62860  0.42620  0.99830  Biso   1.000  H
  H190     1.0000 0.87140  0.57380  0.49830  Biso   1.000  H
  H191     1.0000 0.67620  0.62140  0.74830  Biso   1.000  H
  H192     1.0000 0.82380  0.37860  0.24830  Biso   1.000  H
