data_image0
_cell_length_a       13.115
_cell_length_b       22.273
_cell_length_c       10.6802
_cell_angle_alpha    90
_cell_angle_beta     118.973
_cell_angle_gamma    90

_symmetry_space_group_name_H-M    "P 1"
_symmetry_int_tables_number       1

loop_
  _symmetry_equiv_pos_as_xyz
  'x, y, z'

loop_
  _atom_site_label
  _atom_site_occupancy
  _atom_site_fract_x
  _atom_site_fract_y
  _atom_site_fract_z
  _atom_site_thermal_displace_type
  _atom_site_B_iso_or_equiv
  _atom_site_type_symbol
  Cu1      1.0000 0.91871  0.33624  0.79580  Biso   1.000  Cu
  Cu2      1.0000 0.08129  0.33624  0.70420  Biso   1.000  Cu
  Cu3      1.0000 0.41871  0.83624  0.79580  Biso   1.000  Cu
  Cu4      1.0000 0.58129  0.83624  0.70420  Biso   1.000  Cu
  Cu5      1.0000 0.08129  0.66376  0.20420  Biso   1.000  Cu
  Cu6      1.0000 0.91871  0.66376  0.29580  Biso   1.000  Cu
  Cu7      1.0000 0.58129  0.16376  0.20420  Biso   1.000  Cu
  Cu8      1.0000 0.41871  0.16376  0.29580  Biso   1.000  Cu
  Br1      1.0000 0.87224  0.37504  0.55449  Biso   1.000  Br
  Br2      1.0000 0.12776  0.37504  0.94551  Biso   1.000  Br
  Br3      1.0000 0.37224  0.87504  0.55449  Biso   1.000  Br
  Br4      1.0000 0.62776  0.87504  0.94551  Biso   1.000  Br
  Br5      1.0000 0.12776  0.62496  0.44551  Biso   1.000  Br
  Br6      1.0000 0.87224  0.62496  0.05449  Biso   1.000  Br
  Br7      1.0000 0.62776  0.12496  0.44551  Biso   1.000  Br
  Br8      1.0000 0.37224  0.12496  0.05449  Biso   1.000  Br
  N1       1.0000 0.92940  0.24655  0.83970  Biso   1.000  N
  N2       1.0000 0.07060  0.24655  0.66030  Biso   1.000  N
  N3       1.0000 0.42940  0.74655  0.83970  Biso   1.000  N
  N4       1.0000 0.57060  0.74655  0.66030  Biso   1.000  N
  N5       1.0000 0.07060  0.75345  0.16030  Biso   1.000  N
  N6       1.0000 0.92940  0.75345  0.33970  Biso   1.000  N
  N7       1.0000 0.57060  0.25345  0.16030  Biso   1.000  N
  N8       1.0000 0.42940  0.25345  0.33970  Biso   1.000  N
  N9       1.0000 0.68630  0.11970  0.14560  Biso   1.000  N
  N10      1.0000 0.31370  0.11970  0.35440  Biso   1.000  N
  N11      1.0000 0.18630  0.61970  0.14560  Biso   1.000  N
  N12      1.0000 0.81370  0.61970  0.35440  Biso   1.000  N
  N13      1.0000 0.31370  0.88030  0.85440  Biso   1.000  N
  N14      1.0000 0.68630  0.88030  0.64560  Biso   1.000  N
  N15      1.0000 0.81370  0.38030  0.85440  Biso   1.000  N
  N16      1.0000 0.18630  0.38030  0.64560  Biso   1.000  N
  C1       1.0000 0.03400  0.22330  0.92840  Biso   1.000  C
  C2       1.0000 0.96600  0.22330  0.57160  Biso   1.000  C
  C3       1.0000 0.53400  0.72330  0.92840  Biso   1.000  C
  C4       1.0000 0.46600  0.72330  0.57160  Biso   1.000  C
  C5       1.0000 0.96600  0.77670  0.07160  Biso   1.000  C
  C6       1.0000 0.03400  0.77670  0.42840  Biso   1.000  C
  C7       1.0000 0.46600  0.27670  0.07160  Biso   1.000  C
  C8       1.0000 0.53400  0.27670  0.42840  Biso   1.000  C
  H1       1.0000 0.09790  0.24890  0.96510  Biso   1.000  H
  H2       1.0000 0.90210  0.24890  0.53490  Biso   1.000  H
  H3       1.0000 0.59790  0.74890  0.96510  Biso   1.000  H
  H4       1.0000 0.40210  0.74890  0.53490  Biso   1.000  H
  H5       1.0000 0.90210  0.75110  0.03490  Biso   1.000  H
  H6       1.0000 0.09790  0.75110  0.46510  Biso   1.000  H
  H7       1.0000 0.40210  0.25110  0.03490  Biso   1.000  H
  H8       1.0000 0.59790  0.25110  0.46510  Biso   1.000  H
  C9       1.0000 0.05350  0.16410  0.96910  Biso   1.000  C
  C10      1.0000 0.94650  0.16410  0.53090  Biso   1.000  C
  C11      1.0000 0.55350  0.66410  0.96910  Biso   1.000  C
  C12      1.0000 0.44650  0.66410  0.53090  Biso   1.000  C
  C13      1.0000 0.94650  0.83590  0.03090  Biso   1.000  C
  C14      1.0000 0.05350  0.83590  0.46910  Biso   1.000  C
  C15      1.0000 0.44650  0.33590  0.03090  Biso   1.000  C
  C16      1.0000 0.55350  0.33590  0.46910  Biso   1.000  C
  H9       1.0000 0.12840  0.15020  0.03010  Biso   1.000  H
  H10      1.0000 0.87160  0.15020  0.46990  Biso   1.000  H
  H11      1.0000 0.62840  0.65020  0.03010  Biso   1.000  H
  H12      1.0000 0.37160  0.65020  0.46990  Biso   1.000  H
  H13      1.0000 0.87160  0.84980  0.96990  Biso   1.000  H
  H14      1.0000 0.12840  0.84980  0.53010  Biso   1.000  H
  H15      1.0000 0.37160  0.34980  0.96990  Biso   1.000  H
  H16      1.0000 0.62840  0.34980  0.53010  Biso   1.000  H
  C17      1.0000 0.95890  0.12560  0.91700  Biso   1.000  C
  C18      1.0000 0.04110  0.12560  0.58300  Biso   1.000  C
  C19      1.0000 0.45890  0.62560  0.91700  Biso   1.000  C
  C20      1.0000 0.54110  0.62560  0.58300  Biso   1.000  C
  C21      1.0000 0.04110  0.87440  0.08300  Biso   1.000  C
  C22      1.0000 0.95890  0.87440  0.41700  Biso   1.000  C
  C23      1.0000 0.54110  0.37440  0.08300  Biso   1.000  C
  C24      1.0000 0.45890  0.37440  0.41700  Biso   1.000  C
  C25      1.0000 0.85140  0.14800  0.82150  Biso   1.000  C
  C26      1.0000 0.14860  0.14800  0.67850  Biso   1.000  C
  C27      1.0000 0.35140  0.64800  0.82150  Biso   1.000  C
  C28      1.0000 0.64860  0.64800  0.67850  Biso   1.000  C
  C29      1.0000 0.14860  0.85200  0.17850  Biso   1.000  C
  C30      1.0000 0.85140  0.85200  0.32150  Biso   1.000  C
  C31      1.0000 0.64860  0.35200  0.17850  Biso   1.000  C
  C32      1.0000 0.35140  0.35200  0.32150  Biso   1.000  C
  H17      1.0000 0.78640  0.12310  0.78080  Biso   1.000  H
  H18      1.0000 0.21360  0.12310  0.71920  Biso   1.000  H
  H19      1.0000 0.28640  0.62310  0.78080  Biso   1.000  H
  H20      1.0000 0.71360  0.62310  0.71920  Biso   1.000  H
  H21      1.0000 0.21360  0.87690  0.21920  Biso   1.000  H
  H22      1.0000 0.78640  0.87690  0.28080  Biso   1.000  H
  H23      1.0000 0.71360  0.37690  0.21920  Biso   1.000  H
  H24      1.0000 0.28640  0.37690  0.28080  Biso   1.000  H
  C33      1.0000 0.84170  0.20800  0.78700  Biso   1.000  C
  C34      1.0000 0.15830  0.20800  0.71300  Biso   1.000  C
  C35      1.0000 0.34170  0.70800  0.78700  Biso   1.000  C
  C36      1.0000 0.65830  0.70800  0.71300  Biso   1.000  C
  C37      1.0000 0.15830  0.79200  0.21300  Biso   1.000  C
  C38      1.0000 0.84170  0.79200  0.28700  Biso   1.000  C
  C39      1.0000 0.65830  0.29200  0.21300  Biso   1.000  C
  C40      1.0000 0.34170  0.29200  0.28700  Biso   1.000  C
  H25      1.0000 0.76830  0.22250  0.72200  Biso   1.000  H
  H26      1.0000 0.23170  0.22250  0.77800  Biso   1.000  H
  H27      1.0000 0.26830  0.72250  0.72200  Biso   1.000  H
  H28      1.0000 0.73170  0.72250  0.77800  Biso   1.000  H
  H29      1.0000 0.23170  0.77750  0.27800  Biso   1.000  H
  H30      1.0000 0.76830  0.77750  0.22200  Biso   1.000  H
  H31      1.0000 0.73170  0.27750  0.27800  Biso   1.000  H
  H32      1.0000 0.26830  0.27750  0.22200  Biso   1.000  H
  C41      1.0000 0.97860  0.06090  0.96350  Biso   1.000  C
  C42      1.0000 0.02140  0.06090  0.53650  Biso   1.000  C
  C43      1.0000 0.47860  0.56090  0.96350  Biso   1.000  C
  C44      1.0000 0.52140  0.56090  0.53650  Biso   1.000  C
  C45      1.0000 0.02140  0.93910  0.03650  Biso   1.000  C
  C46      1.0000 0.97860  0.93910  0.46350  Biso   1.000  C
  C47      1.0000 0.52140  0.43910  0.03650  Biso   1.000  C
  C48      1.0000 0.47860  0.43910  0.46350  Biso   1.000  C
  C49      1.0000 0.05850  0.02820  0.94140  Biso   1.000  C
  C50      1.0000 0.94150  0.02820  0.55860  Biso   1.000  C
  C51      1.0000 0.55850  0.52820  0.94140  Biso   1.000  C
  C52      1.0000 0.44150  0.52820  0.55860  Biso   1.000  C
  C53      1.0000 0.94150  0.97180  0.05860  Biso   1.000  C
  C54      1.0000 0.05850  0.97180  0.44140  Biso   1.000  C
  C55      1.0000 0.44150  0.47180  0.05860  Biso   1.000  C
  C56      1.0000 0.55850  0.47180  0.44140  Biso   1.000  C
  H33      1.0000 0.09890  0.04790  0.90220  Biso   1.000  H
  H34      1.0000 0.90110  0.04790  0.59780  Biso   1.000  H
  H35      1.0000 0.59890  0.54790  0.90220  Biso   1.000  H
  H36      1.0000 0.40110  0.54790  0.59780  Biso   1.000  H
  H37      1.0000 0.90110  0.95210  0.09780  Biso   1.000  H
  H38      1.0000 0.09890  0.95210  0.40220  Biso   1.000  H
  H39      1.0000 0.40110  0.45210  0.09780  Biso   1.000  H
  H40      1.0000 0.59890  0.45210  0.40220  Biso   1.000  H
  C57      1.0000 0.91850  0.03190  0.02570  Biso   1.000  C
  C58      1.0000 0.08150  0.03190  0.47430  Biso   1.000  C
  C59      1.0000 0.41850  0.53190  0.02570  Biso   1.000  C
  C60      1.0000 0.58150  0.53190  0.47430  Biso   1.000  C
  C61      1.0000 0.08150  0.96810  0.97430  Biso   1.000  C
  C62      1.0000 0.91850  0.96810  0.52570  Biso   1.000  C
  C63      1.0000 0.58150  0.46810  0.97430  Biso   1.000  C
  C64      1.0000 0.41850  0.46810  0.52570  Biso   1.000  C
  C65      1.0000 0.83710  0.06270  0.06430  Biso   1.000  C
  C66      1.0000 0.16290  0.06270  0.43570  Biso   1.000  C
  C67      1.0000 0.33710  0.56270  0.06430  Biso   1.000  C
  C68      1.0000 0.66290  0.56270  0.43570  Biso   1.000  C
  C69      1.0000 0.16290  0.93730  0.93570  Biso   1.000  C
  C70      1.0000 0.83710  0.93730  0.56430  Biso   1.000  C
  C71      1.0000 0.66290  0.43730  0.93570  Biso   1.000  C
  C72      1.0000 0.33710  0.43730  0.56430  Biso   1.000  C
  C73      1.0000 0.74170  0.03380  0.05600  Biso   1.000  C
  C74      1.0000 0.25830  0.03380  0.44400  Biso   1.000  C
  C75      1.0000 0.24170  0.53380  0.05600  Biso   1.000  C
  C76      1.0000 0.75830  0.53380  0.44400  Biso   1.000  C
  C77      1.0000 0.25830  0.96620  0.94400  Biso   1.000  C
  C78      1.0000 0.74170  0.96620  0.55600  Biso   1.000  C
  C79      1.0000 0.75830  0.46620  0.94400  Biso   1.000  C
  C80      1.0000 0.24170  0.46620  0.55600  Biso   1.000  C
  H41      1.0000 0.72480  0.99450  0.02220  Biso   1.000  H
  H42      1.0000 0.27520  0.99450  0.47780  Biso   1.000  H
  H43      1.0000 0.22480  0.49450  0.02220  Biso   1.000  H
  H44      1.0000 0.77520  0.49450  0.47780  Biso   1.000  H
  H45      1.0000 0.27520  0.00550  0.97780  Biso   1.000  H
  H46      1.0000 0.72480  0.00550  0.52220  Biso   1.000  H
  H47      1.0000 0.77520  0.50550  0.97780  Biso   1.000  H
  H48      1.0000 0.22480  0.50550  0.52220  Biso   1.000  H
  C81      1.0000 0.67050  0.06350  0.09840  Biso   1.000  C
  C82      1.0000 0.32950  0.06350  0.40160  Biso   1.000  C
  C83      1.0000 0.17050  0.56350  0.09840  Biso   1.000  C
  C84      1.0000 0.82950  0.56350  0.40160  Biso   1.000  C
  C85      1.0000 0.32950  0.93650  0.90160  Biso   1.000  C
  C86      1.0000 0.67050  0.93650  0.59840  Biso   1.000  C
  C87      1.0000 0.82950  0.43650  0.90160  Biso   1.000  C
  C88      1.0000 0.17050  0.43650  0.59840  Biso   1.000  C
  H49      1.0000 0.60730  0.04260  0.09340  Biso   1.000  H
  H50      1.0000 0.39270  0.04260  0.40660  Biso   1.000  H
  H51      1.0000 0.10730  0.54260  0.09340  Biso   1.000  H
  H52      1.0000 0.89270  0.54260  0.40660  Biso   1.000  H
  H53      1.0000 0.39270  0.95740  0.90660  Biso   1.000  H
  H54      1.0000 0.60730  0.95740  0.59340  Biso   1.000  H
  H55      1.0000 0.89270  0.45740  0.90660  Biso   1.000  H
  H56      1.0000 0.10730  0.45740  0.59340  Biso   1.000  H
  C89      1.0000 0.77920  0.14760  0.15240  Biso   1.000  C
  C90      1.0000 0.22080  0.14760  0.34760  Biso   1.000  C
  C91      1.0000 0.27920  0.64760  0.15240  Biso   1.000  C
  C92      1.0000 0.72080  0.64760  0.34760  Biso   1.000  C
  C93      1.0000 0.22080  0.85240  0.84760  Biso   1.000  C
  C94      1.0000 0.77920  0.85240  0.65240  Biso   1.000  C
  C95      1.0000 0.72080  0.35240  0.84760  Biso   1.000  C
  C96      1.0000 0.27920  0.35240  0.65240  Biso   1.000  C
  H57      1.0000 0.79310  0.18710  0.18510  Biso   1.000  H
  H58      1.0000 0.20690  0.18710  0.31490  Biso   1.000  H
  H59      1.0000 0.29310  0.68710  0.18510  Biso   1.000  H
  H60      1.0000 0.70690  0.68710  0.31490  Biso   1.000  H
  H61      1.0000 0.20690  0.81290  0.81490  Biso   1.000  H
  H62      1.0000 0.79310  0.81290  0.68510  Biso   1.000  H
  H63      1.0000 0.70690  0.31290  0.81490  Biso   1.000  H
  H64      1.0000 0.29310  0.31290  0.68510  Biso   1.000  H
  C97      1.0000 0.85550  0.12190  0.11420  Biso   1.000  C
  C98      1.0000 0.14450  0.12190  0.38580  Biso   1.000  C
  C99      1.0000 0.35550  0.62190  0.11420  Biso   1.000  C
  C100     1.0000 0.64450  0.62190  0.38580  Biso   1.000  C
  C101     1.0000 0.14450  0.87810  0.88580  Biso   1.000  C
  C102     1.0000 0.85550  0.87810  0.61420  Biso   1.000  C
  C103     1.0000 0.64450  0.37810  0.88580  Biso   1.000  C
  C104     1.0000 0.35550  0.37810  0.61420  Biso   1.000  C
  H65      1.0000 0.91870  0.14360  0.12150  Biso   1.000  H
  H66      1.0000 0.08130  0.14360  0.37850  Biso   1.000  H
  H67      1.0000 0.41870  0.64360  0.12150  Biso   1.000  H
  H68      1.0000 0.58130  0.64360  0.37850  Biso   1.000  H
  H69      1.0000 0.08130  0.85640  0.87850  Biso   1.000  H
  H70      1.0000 0.91870  0.85640  0.62150  Biso   1.000  H
  H71      1.0000 0.58130  0.35640  0.87850  Biso   1.000  H
  H72      1.0000 0.41870  0.35640  0.62150  Biso   1.000  H
  C105     1.0000 0.00000  0.36870  0.25000  Biso   1.000  C
  C106     1.0000 0.50000  0.86870  0.25000  Biso   1.000  C
  C107     1.0000 0.00000  0.63130  0.75000  Biso   1.000  C
  C108     1.0000 0.50000  0.13130  0.75000  Biso   1.000  C
  C109     1.0000 0.00000  0.30390  0.25000  Biso   1.000  C
  C110     1.0000 0.50000  0.80390  0.25000  Biso   1.000  C
  C111     1.0000 0.00000  0.69610  0.75000  Biso   1.000  C
  C112     1.0000 0.50000  0.19610  0.75000  Biso   1.000  C
  N17      1.0000 0.00000  0.25530  0.25000  Biso   1.000  N
  N18      1.0000 0.50000  0.75530  0.25000  Biso   1.000  N
  N19      1.0000 0.00000  0.74470  0.75000  Biso   1.000  N
  N20      1.0000 0.50000  0.24470  0.75000  Biso   1.000  N
