data_image0
_cell_length_a       23.631
_cell_length_b       4.8043
_cell_length_c       23.56
_cell_angle_alpha    90
_cell_angle_beta     116.741
_cell_angle_gamma    90

_symmetry_space_group_name_H-M    "P 1"
_symmetry_int_tables_number       1

loop_
  _symmetry_equiv_pos_as_xyz
  'x, y, z'

loop_
  _atom_site_label
  _atom_site_occupancy
  _atom_site_fract_x
  _atom_site_fract_y
  _atom_site_fract_z
  _atom_site_thermal_displace_type
  _atom_site_B_iso_or_equiv
  _atom_site_type_symbol
  Cu1      1.0000 0.11368  0.45725  0.13167  Biso   1.000  Cu
  Cu2      1.0000 0.88632  0.45725  0.36833  Biso   1.000  Cu
  Cu3      1.0000 0.61368  0.95725  0.13167  Biso   1.000  Cu
  Cu4      1.0000 0.38632  0.95725  0.36833  Biso   1.000  Cu
  Cu5      1.0000 0.88632  0.54275  0.86833  Biso   1.000  Cu
  Cu6      1.0000 0.11368  0.54275  0.63167  Biso   1.000  Cu
  Cu7      1.0000 0.38632  0.04275  0.86833  Biso   1.000  Cu
  Cu8      1.0000 0.61368  0.04275  0.63167  Biso   1.000  Cu
  N1       1.0000 0.15056  0.52780  0.23389  Biso   1.000  N
  N2       1.0000 0.84944  0.52780  0.26611  Biso   1.000  N
  N3       1.0000 0.65056  0.02780  0.23389  Biso   1.000  N
  N4       1.0000 0.34944  0.02780  0.26611  Biso   1.000  N
  N5       1.0000 0.84944  0.47220  0.76611  Biso   1.000  N
  N6       1.0000 0.15056  0.47220  0.73389  Biso   1.000  N
  N7       1.0000 0.34944  0.97220  0.76611  Biso   1.000  N
  N8       1.0000 0.65056  0.97220  0.73389  Biso   1.000  N
  N9       1.0000 0.98599  0.50480  0.39237  Biso   1.000  N
  N10      1.0000 0.01401  0.50480  0.10763  Biso   1.000  N
  N11      1.0000 0.48599  0.00480  0.39237  Biso   1.000  N
  N12      1.0000 0.51401  0.00480  0.10763  Biso   1.000  N
  N13      1.0000 0.01401  0.49520  0.60763  Biso   1.000  N
  N14      1.0000 0.98599  0.49520  0.89237  Biso   1.000  N
  N15      1.0000 0.51401  0.99520  0.60763  Biso   1.000  N
  N16      1.0000 0.48599  0.99520  0.89237  Biso   1.000  N
  N17      1.0000 0.12723  0.84800  0.11231  Biso   1.000  N
  N18      1.0000 0.87277  0.84800  0.38769  Biso   1.000  N
  N19      1.0000 0.62723  0.34800  0.11231  Biso   1.000  N
  N20      1.0000 0.37277  0.34800  0.38769  Biso   1.000  N
  N21      1.0000 0.87277  0.15200  0.88769  Biso   1.000  N
  N22      1.0000 0.12723  0.15200  0.61231  Biso   1.000  N
  N23      1.0000 0.37277  0.65200  0.88769  Biso   1.000  N
  N24      1.0000 0.62723  0.65200  0.61231  Biso   1.000  N
  C1       1.0000 0.13230  0.37770  0.27020  Biso   1.000  C
  C2       1.0000 0.86770  0.37770  0.22980  Biso   1.000  C
  C3       1.0000 0.63230  0.87770  0.27020  Biso   1.000  C
  C4       1.0000 0.36770  0.87770  0.22980  Biso   1.000  C
  C5       1.0000 0.86770  0.62230  0.72980  Biso   1.000  C
  C6       1.0000 0.13230  0.62230  0.77020  Biso   1.000  C
  C7       1.0000 0.36770  0.12230  0.72980  Biso   1.000  C
  C8       1.0000 0.63230  0.12230  0.77020  Biso   1.000  C
  H1       1.0000 0.10380  0.23340  0.25110  Biso   1.000  H
  H2       1.0000 0.89620  0.23340  0.24890  Biso   1.000  H
  H3       1.0000 0.60380  0.73340  0.25110  Biso   1.000  H
  H4       1.0000 0.39620  0.73340  0.24890  Biso   1.000  H
  H5       1.0000 0.89620  0.76660  0.74890  Biso   1.000  H
  H6       1.0000 0.10380  0.76660  0.75110  Biso   1.000  H
  H7       1.0000 0.39620  0.26660  0.74890  Biso   1.000  H
  H8       1.0000 0.60380  0.26660  0.75110  Biso   1.000  H
  C9       1.0000 0.15310  0.42230  0.33460  Biso   1.000  C
  C10      1.0000 0.84690  0.42230  0.16540  Biso   1.000  C
  C11      1.0000 0.65310  0.92230  0.33460  Biso   1.000  C
  C12      1.0000 0.34690  0.92230  0.16540  Biso   1.000  C
  C13      1.0000 0.84690  0.57770  0.66540  Biso   1.000  C
  C14      1.0000 0.15310  0.57770  0.83460  Biso   1.000  C
  C15      1.0000 0.34690  0.07770  0.66540  Biso   1.000  C
  C16      1.0000 0.65310  0.07770  0.83460  Biso   1.000  C
  H9       1.0000 0.13830  0.31110  0.35740  Biso   1.000  H
  H10      1.0000 0.86170  0.31110  0.14260  Biso   1.000  H
  H11      1.0000 0.63830  0.81110  0.35740  Biso   1.000  H
  H12      1.0000 0.36170  0.81110  0.14260  Biso   1.000  H
  H13      1.0000 0.86170  0.68890  0.64260  Biso   1.000  H
  H14      1.0000 0.13830  0.68890  0.85740  Biso   1.000  H
  H15      1.0000 0.36170  0.18890  0.64260  Biso   1.000  H
  H16      1.0000 0.63830  0.18890  0.85740  Biso   1.000  H
  C17      1.0000 0.19614  0.63400  0.36484  Biso   1.000  C
  C18      1.0000 0.80386  0.63400  0.13516  Biso   1.000  C
  C19      1.0000 0.69614  0.13400  0.36484  Biso   1.000  C
  C20      1.0000 0.30386  0.13400  0.13516  Biso   1.000  C
  C21      1.0000 0.80386  0.36600  0.63516  Biso   1.000  C
  C22      1.0000 0.19614  0.36600  0.86484  Biso   1.000  C
  C23      1.0000 0.30386  0.86600  0.63516  Biso   1.000  C
  C24      1.0000 0.69614  0.86600  0.86484  Biso   1.000  C
  C25      1.0000 0.21628  0.78670  0.32755  Biso   1.000  C
  C26      1.0000 0.78372  0.78670  0.17245  Biso   1.000  C
  C27      1.0000 0.71628  0.28670  0.32755  Biso   1.000  C
  C28      1.0000 0.28372  0.28670  0.17245  Biso   1.000  C
  C29      1.0000 0.78372  0.21330  0.67245  Biso   1.000  C
  C30      1.0000 0.21628  0.21330  0.82755  Biso   1.000  C
  C31      1.0000 0.28372  0.71330  0.67245  Biso   1.000  C
  C32      1.0000 0.71628  0.71330  0.82755  Biso   1.000  C
  H17      1.0000 0.24580  0.92830  0.34570  Biso   1.000  H
  H18      1.0000 0.75420  0.92830  0.15430  Biso   1.000  H
  H19      1.0000 0.74580  0.42830  0.34570  Biso   1.000  H
  H20      1.0000 0.25420  0.42830  0.15430  Biso   1.000  H
  H21      1.0000 0.75420  0.07170  0.65430  Biso   1.000  H
  H22      1.0000 0.24580  0.07170  0.84570  Biso   1.000  H
  H23      1.0000 0.25420  0.57170  0.65430  Biso   1.000  H
  H24      1.0000 0.74580  0.57170  0.84570  Biso   1.000  H
  C33      1.0000 0.19248  0.72920  0.26319  Biso   1.000  C
  C34      1.0000 0.80752  0.72920  0.23681  Biso   1.000  C
  C35      1.0000 0.69248  0.22920  0.26319  Biso   1.000  C
  C36      1.0000 0.30752  0.22920  0.23681  Biso   1.000  C
  C37      1.0000 0.80752  0.27080  0.73681  Biso   1.000  C
  C38      1.0000 0.19248  0.27080  0.76319  Biso   1.000  C
  C39      1.0000 0.30752  0.77080  0.73681  Biso   1.000  C
  C40      1.0000 0.69248  0.77080  0.76319  Biso   1.000  C
  H25      1.0000 0.20650  0.83680  0.23920  Biso   1.000  H
  H26      1.0000 0.79350  0.83680  0.26080  Biso   1.000  H
  H27      1.0000 0.70650  0.33680  0.23920  Biso   1.000  H
  H28      1.0000 0.29350  0.33680  0.26080  Biso   1.000  H
  H29      1.0000 0.79350  0.16320  0.76080  Biso   1.000  H
  H30      1.0000 0.20650  0.16320  0.73920  Biso   1.000  H
  H31      1.0000 0.29350  0.66320  0.76080  Biso   1.000  H
  H32      1.0000 0.70650  0.66320  0.73920  Biso   1.000  H
  C41      1.0000 0.22132  0.69500  0.43383  Biso   1.000  C
  C42      1.0000 0.77868  0.69500  0.06617  Biso   1.000  C
  C43      1.0000 0.72132  0.19500  0.43383  Biso   1.000  C
  C44      1.0000 0.27868  0.19500  0.06617  Biso   1.000  C
  C45      1.0000 0.77868  0.30500  0.56617  Biso   1.000  C
  C46      1.0000 0.22132  0.30500  0.93383  Biso   1.000  C
  C47      1.0000 0.27868  0.80500  0.56617  Biso   1.000  C
  C48      1.0000 0.72132  0.80500  0.93383  Biso   1.000  C
  C49      1.0000 0.28497  0.76610  0.46712  Biso   1.000  C
  C50      1.0000 0.71503  0.76610  0.03288  Biso   1.000  C
  C51      1.0000 0.78497  0.26610  0.46712  Biso   1.000  C
  C52      1.0000 0.21503  0.26610  0.03288  Biso   1.000  C
  C53      1.0000 0.71503  0.23390  0.53288  Biso   1.000  C
  C54      1.0000 0.28497  0.23390  0.96712  Biso   1.000  C
  C55      1.0000 0.21503  0.73390  0.53288  Biso   1.000  C
  C56      1.0000 0.78497  0.73390  0.96712  Biso   1.000  C
  H33      1.0000 0.30890  0.77740  0.44490  Biso   1.000  H
  H34      1.0000 0.69110  0.77740  0.05510  Biso   1.000  H
  H35      1.0000 0.80890  0.27740  0.44490  Biso   1.000  H
  H36      1.0000 0.19110  0.27740  0.05510  Biso   1.000  H
  H37      1.0000 0.69110  0.22260  0.55510  Biso   1.000  H
  H38      1.0000 0.30890  0.22260  0.94490  Biso   1.000  H
  H39      1.0000 0.19110  0.72260  0.55510  Biso   1.000  H
  H40      1.0000 0.80890  0.72260  0.94490  Biso   1.000  H
  C57      1.0000 0.18511  0.67850  0.46759  Biso   1.000  C
  C58      1.0000 0.81489  0.67850  0.03241  Biso   1.000  C
  C59      1.0000 0.68511  0.17850  0.46759  Biso   1.000  C
  C60      1.0000 0.31489  0.17850  0.03241  Biso   1.000  C
  C61      1.0000 0.81489  0.32150  0.53241  Biso   1.000  C
  C62      1.0000 0.18511  0.32150  0.96759  Biso   1.000  C
  C63      1.0000 0.31489  0.82150  0.53241  Biso   1.000  C
  C64      1.0000 0.68511  0.82150  0.96759  Biso   1.000  C
  C65      1.0000 0.11599  0.61580  0.43901  Biso   1.000  C
  C66      1.0000 0.88401  0.61580  0.06099  Biso   1.000  C
  C67      1.0000 0.61599  0.11580  0.43901  Biso   1.000  C
  C68      1.0000 0.38401  0.11580  0.06099  Biso   1.000  C
  C69      1.0000 0.88401  0.38420  0.56099  Biso   1.000  C
  C70      1.0000 0.11599  0.38420  0.93901  Biso   1.000  C
  C71      1.0000 0.38401  0.88420  0.56099  Biso   1.000  C
  C72      1.0000 0.61599  0.88420  0.93901  Biso   1.000  C
  C73      1.0000 0.09398  0.41710  0.46660  Biso   1.000  C
  C74      1.0000 0.90602  0.41710  0.03340  Biso   1.000  C
  C75      1.0000 0.59398  0.91710  0.46660  Biso   1.000  C
  C76      1.0000 0.40602  0.91710  0.03340  Biso   1.000  C
  C77      1.0000 0.90602  0.58290  0.53340  Biso   1.000  C
  C78      1.0000 0.09398  0.58290  0.96660  Biso   1.000  C
  C79      1.0000 0.40602  0.08290  0.53340  Biso   1.000  C
  C80      1.0000 0.59398  0.08290  0.96660  Biso   1.000  C
  H41      1.0000 0.12240  0.31700  0.50170  Biso   1.000  H
  H42      1.0000 0.87760  0.31700  0.99830  Biso   1.000  H
  H43      1.0000 0.62240  0.81700  0.50170  Biso   1.000  H
  H44      1.0000 0.37760  0.81700  0.99830  Biso   1.000  H
  H45      1.0000 0.87760  0.68300  0.49830  Biso   1.000  H
  H46      1.0000 0.12240  0.68300  0.00170  Biso   1.000  H
  H47      1.0000 0.37760  0.18300  0.49830  Biso   1.000  H
  H48      1.0000 0.62240  0.18300  0.00170  Biso   1.000  H
  C81      1.0000 0.02975  0.36760  0.44210  Biso   1.000  C
  C82      1.0000 0.97025  0.36760  0.05790  Biso   1.000  C
  C83      1.0000 0.52975  0.86760  0.44210  Biso   1.000  C
  C84      1.0000 0.47025  0.86760  0.05790  Biso   1.000  C
  C85      1.0000 0.97025  0.63240  0.55790  Biso   1.000  C
  C86      1.0000 0.02975  0.63240  0.94210  Biso   1.000  C
  C87      1.0000 0.47025  0.13240  0.55790  Biso   1.000  C
  C88      1.0000 0.52975  0.13240  0.94210  Biso   1.000  C
  H49      1.0000 0.01620  0.23140  0.46130  Biso   1.000  H
  H50      1.0000 0.98380  0.23140  0.03870  Biso   1.000  H
  H51      1.0000 0.51620  0.73140  0.46130  Biso   1.000  H
  H52      1.0000 0.48380  0.73140  0.03870  Biso   1.000  H
  H53      1.0000 0.98380  0.76860  0.53870  Biso   1.000  H
  H54      1.0000 0.01620  0.76860  0.96130  Biso   1.000  H
  H55      1.0000 0.48380  0.26860  0.53870  Biso   1.000  H
  H56      1.0000 0.51620  0.26860  0.96130  Biso   1.000  H
  C89      1.0000 0.00773  0.69550  0.36580  Biso   1.000  C
  C90      1.0000 0.99227  0.69550  0.13420  Biso   1.000  C
  C91      1.0000 0.50773  0.19550  0.36580  Biso   1.000  C
  C92      1.0000 0.49227  0.19550  0.13420  Biso   1.000  C
  C93      1.0000 0.99227  0.30450  0.63420  Biso   1.000  C
  C94      1.0000 0.00773  0.30450  0.86580  Biso   1.000  C
  C95      1.0000 0.49227  0.80450  0.63420  Biso   1.000  C
  C96      1.0000 0.50773  0.80450  0.86580  Biso   1.000  C
  H57      1.0000 0.97840  0.79300  0.33080  Biso   1.000  H
  H58      1.0000 0.02160  0.79300  0.16920  Biso   1.000  H
  H59      1.0000 0.47840  0.29300  0.33080  Biso   1.000  H
  H60      1.0000 0.52160  0.29300  0.16920  Biso   1.000  H
  H61      1.0000 0.02160  0.20700  0.66920  Biso   1.000  H
  H62      1.0000 0.97840  0.20700  0.83080  Biso   1.000  H
  H63      1.0000 0.52160  0.70700  0.66920  Biso   1.000  H
  H64      1.0000 0.47840  0.70700  0.83080  Biso   1.000  H
  C97      1.0000 0.07086  0.75610  0.38700  Biso   1.000  C
  C98      1.0000 0.92914  0.75610  0.11300  Biso   1.000  C
  C99      1.0000 0.57086  0.25610  0.38700  Biso   1.000  C
  C100     1.0000 0.42914  0.25610  0.11300  Biso   1.000  C
  C101     1.0000 0.92914  0.24390  0.61300  Biso   1.000  C
  C102     1.0000 0.07086  0.24390  0.88700  Biso   1.000  C
  C103     1.0000 0.42914  0.74390  0.61300  Biso   1.000  C
  C104     1.0000 0.57086  0.74390  0.88700  Biso   1.000  C
  H65      1.0000 0.08320  0.89090  0.36650  Biso   1.000  H
  H66      1.0000 0.91680  0.89090  0.13350  Biso   1.000  H
  H67      1.0000 0.58320  0.39090  0.36650  Biso   1.000  H
  H68      1.0000 0.41680  0.39090  0.13350  Biso   1.000  H
  H69      1.0000 0.91680  0.10910  0.63350  Biso   1.000  H
  H70      1.0000 0.08320  0.10910  0.86650  Biso   1.000  H
  H71      1.0000 0.41680  0.60910  0.63350  Biso   1.000  H
  H72      1.0000 0.58320  0.60910  0.86650  Biso   1.000  H
  C105     1.0000 0.12498  0.07710  0.11517  Biso   1.000  C
  C106     1.0000 0.87502  0.07710  0.38483  Biso   1.000  C
  C107     1.0000 0.62498  0.57710  0.11517  Biso   1.000  C
  C108     1.0000 0.37502  0.57710  0.38483  Biso   1.000  C
  C109     1.0000 0.87502  0.92290  0.88483  Biso   1.000  C
  C110     1.0000 0.12498  0.92290  0.61517  Biso   1.000  C
  C111     1.0000 0.37502  0.42290  0.88483  Biso   1.000  C
  C112     1.0000 0.62498  0.42290  0.61517  Biso   1.000  C
