data_image0
_cell_length_a       13.9131
_cell_length_b       14.4528
_cell_length_c       20.545
_cell_angle_alpha    76.206
_cell_angle_beta     74.406
_cell_angle_gamma    64.936

_symmetry_space_group_name_H-M    "P 1"
_symmetry_int_tables_number       1

loop_
  _symmetry_equiv_pos_as_xyz
  'x, y, z'

loop_
  _atom_site_label
  _atom_site_occupancy
  _atom_site_fract_x
  _atom_site_fract_y
  _atom_site_fract_z
  _atom_site_thermal_displace_type
  _atom_site_B_iso_or_equiv
  _atom_site_type_symbol
  Cu1      1.0000 0.82169  0.83010  0.10174  Biso   1.000  Cu
  Cu2      1.0000 0.17831  0.16990  0.89826  Biso   1.000  Cu
  Cu3      1.0000 0.18420  0.61040  0.05761  Biso   1.000  Cu
  Cu4      1.0000 0.81580  0.38960  0.94239  Biso   1.000  Cu
  Cu5      1.0000 0.31111  0.13198  0.35892  Biso   1.000  Cu
  Cu6      1.0000 0.68889  0.86802  0.64108  Biso   1.000  Cu
  Cu7      1.0000 0.28788  0.76278  0.49814  Biso   1.000  Cu
  Cu8      1.0000 0.71212  0.23722  0.50186  Biso   1.000  Cu
  Cl1      1.0000 0.47544  0.24228  0.04000  Biso   1.000  Cl
  Cl2      1.0000 0.52456  0.75772  0.96000  Biso   1.000  Cl
  Cl3      1.0000 0.46331  0.39895  0.29392  Biso   1.000  Cl
  Cl4      1.0000 0.53669  0.60105  0.70608  Biso   1.000  Cl
  O1       1.0000 0.76590  0.11950  0.94870  Biso   1.000  O
  O2       1.0000 0.23410  0.88050  0.05130  Biso   1.000  O
  O3       1.0000 0.40050  0.51110  0.05310  Biso   1.000  O
  O4       1.0000 0.59950  0.48890  0.94690  Biso   1.000  O
  O5       1.0000 0.93120  0.92520  0.23090  Biso   1.000  O
  O6       1.0000 0.06880  0.07480  0.76910  Biso   1.000  O
  O7       1.0000 0.36000  0.57860  0.57590  Biso   1.000  O
  O8       1.0000 0.64000  0.42140  0.42410  Biso   1.000  O
  O9       1.0000 0.81850  0.91790  0.89487  Biso   1.000  O
  O10      1.0000 0.18150  0.08210  0.10513  Biso   1.000  O
  O11      1.0000 0.15910  0.66820  0.85267  Biso   1.000  O
  O12      1.0000 0.84090  0.33180  0.14733  Biso   1.000  O
  O13      1.0000 0.15780  0.36420  0.19964  Biso   1.000  O
  O14      1.0000 0.84220  0.63580  0.80036  Biso   1.000  O
  O15      1.0000 0.74760  0.57250  0.11760  Biso   1.000  O
  O16      1.0000 0.25240  0.42750  0.88240  Biso   1.000  O
  O17      1.0000 0.19620  0.21960  0.55353  Biso   1.000  O
  O18      1.0000 0.80380  0.78040  0.44647  Biso   1.000  O
  O19      1.0000 0.60320  0.74200  0.47790  Biso   1.000  O
  O20      1.0000 0.39680  0.25800  0.52210  Biso   1.000  O
  O21      1.0000 0.37260  0.96580  0.74240  Biso   1.000  O
  O22      1.0000 0.62740  0.03420  0.25760  Biso   1.000  O
  O23      1.0000 0.12640  0.70650  0.38140  Biso   1.000  O
  O24      1.0000 0.87360  0.29350  0.61860  Biso   1.000  O
  O25      1.0000 0.14980  0.94100  0.65737  Biso   1.000  O
  O26      1.0000 0.85020  0.05900  0.34263  Biso   1.000  O
  O27      1.0000 0.02820  0.12610  0.32981  Biso   1.000  O
  O28      1.0000 0.97180  0.87390  0.67019  Biso   1.000  O
  O29      1.0000 0.38410  0.28360  0.09060  Biso   1.000  O
  O30      1.0000 0.61590  0.71640  0.90940  Biso   1.000  O
  O31      1.0000 0.56560  0.25510  0.04480  Biso   1.000  O
  O32      1.0000 0.43440  0.74490  0.95520  Biso   1.000  O
  O33      1.0000 0.44650  0.27630  0.97540  Biso   1.000  O
  O34      1.0000 0.55350  0.72370  0.02460  Biso   1.000  O
  O35      1.0000 0.50450  0.13280  0.05260  Biso   1.000  O
  O36      1.0000 0.49550  0.86720  0.94740  Biso   1.000  O
  O37      1.0000 0.36170  0.40100  0.31590  Biso   1.000  O
  O38      1.0000 0.63830  0.59900  0.68410  Biso   1.000  O
  O39      1.0000 0.48600  0.40340  0.35750  Biso   1.000  O
  O40      1.0000 0.51400  0.59660  0.64250  Biso   1.000  O
  O41      1.0000 0.53210  0.30400  0.27060  Biso   1.000  O
  O42      1.0000 0.46790  0.69600  0.72940  Biso   1.000  O
  O43      1.0000 0.43300  0.47760  0.24320  Biso   1.000  O
  O44      1.0000 0.56700  0.52240  0.75680  Biso   1.000  O
  Cl5      1.0000 0.10320  0.53500  0.66100  Biso   1.000  Cl
  Cl6      1.0000 0.89680  0.46500  0.33900  Biso   1.000  Cl
  O45      1.0000 0.04810  0.63930  0.67110  Biso   1.000  O
  O46      1.0000 0.95190  0.36070  0.32890  Biso   1.000  O
  O47      1.0000 0.21590  0.50500  0.65600  Biso   1.000  O
  O48      1.0000 0.78410  0.49500  0.34400  Biso   1.000  O
  O49      1.0000 0.06840  0.47200  0.71960  Biso   1.000  O
  O50      1.0000 0.93160  0.52800  0.28040  Biso   1.000  O
  O51      1.0000 0.08060  0.52480  0.59970  Biso   1.000  O
  O52      1.0000 0.91940  0.47520  0.40030  Biso   1.000  O
  Cl7      1.0000 0.39540  0.84250  0.27430  Biso   1.000  Cl
  Cl8      1.0000 0.60460  0.15750  0.72570  Biso   1.000  Cl
  O53      1.0000 0.38600  0.90580  0.21040  Biso   1.000  O
  O54      1.0000 0.61400  0.09420  0.78960  Biso   1.000  O
  O55      1.0000 0.43200  0.73630  0.26430  Biso   1.000  O
  O56      1.0000 0.56800  0.26370  0.73570  Biso   1.000  O
  O57      1.0000 0.47910  0.85000  0.30100  Biso   1.000  O
  O58      1.0000 0.52090  0.15000  0.69900  Biso   1.000  O
  O59      1.0000 0.29620  0.86990  0.32210  Biso   1.000  O
  O60      1.0000 0.70380  0.13010  0.67790  Biso   1.000  O
  N1       1.0000 0.80410  0.26090  0.92310  Biso   1.000  N
  N2       1.0000 0.19590  0.73910  0.07690  Biso   1.000  N
  N3       1.0000 0.85860  0.86700  0.17350  Biso   1.000  N
  N4       1.0000 0.14140  0.13300  0.82650  Biso   1.000  N
  N5       1.0000 0.79850  0.87950  0.00840  Biso   1.000  N
  N6       1.0000 0.20150  0.12050  0.99160  Biso   1.000  N
  N7       1.0000 0.19070  0.62860  0.95940  Biso   1.000  N
  N8       1.0000 0.80930  0.37140  0.04060  Biso   1.000  N
  N9       1.0000 0.17290  0.50680  0.13540  Biso   1.000  N
  N10      1.0000 0.82710  0.49320  0.86460  Biso   1.000  N
  N11      1.0000 0.78800  0.70020  0.13050  Biso   1.000  N
  N12      1.0000 0.21200  0.29980  0.86950  Biso   1.000  N
  N13      1.0000 0.25360  0.19090  0.44480  Biso   1.000  N
  N14      1.0000 0.74640  0.80910  0.55520  Biso   1.000  N
  N15      1.0000 0.44510  0.74400  0.47150  Biso   1.000  N
  N16      1.0000 0.55490  0.25600  0.52850  Biso   1.000  N
  N17      1.0000 0.55070  0.89670  0.70410  Biso   1.000  N
  N18      1.0000 0.44930  0.10330  0.29590  Biso   1.000  N
  N19      1.0000 0.23580  0.70660  0.44340  Biso   1.000  N
  N20      1.0000 0.76420  0.29340  0.55660  Biso   1.000  N
  N21      1.0000 0.22060  0.83280  0.58000  Biso   1.000  N
  N22      1.0000 0.77940  0.16720  0.42000  Biso   1.000  N
  N23      1.0000 0.19200  0.11900  0.32800  Biso   1.000  N
  N24      1.0000 0.80800  0.88100  0.67200  Biso   1.000  N
  C1       1.0000 0.87950  0.12530  0.01500  Biso   1.000  C
  C2       1.0000 0.12050  0.87470  0.98500  Biso   1.000  C
  C3       1.0000 0.85220  0.05750  0.06930  Biso   1.000  C
  C4       1.0000 0.14780  0.94250  0.93070  Biso   1.000  C
  H1       1.0000 0.79170  0.04330  0.07250  Biso   1.000  H
  H2       1.0000 0.20830  0.95670  0.92750  Biso   1.000  H
  C5       1.0000 0.91610  0.01080  0.11890  Biso   1.000  C
  C6       1.0000 0.08390  0.98920  0.88110  Biso   1.000  C
  C7       1.0000 0.00550  0.03320  0.11390  Biso   1.000  C
  C8       1.0000 0.99450  0.96680  0.88610  Biso   1.000  C
  H3       1.0000 0.04550  0.00500  0.14860  Biso   1.000  H
  H4       1.0000 0.95450  0.99500  0.85140  Biso   1.000  H
  C9       1.0000 0.03630  0.09700  0.05800  Biso   1.000  C
  C10      1.0000 0.96370  0.90300  0.94200  Biso   1.000  C
  C11      1.0000 0.97270  0.14260  0.00850  Biso   1.000  C
  C12      1.0000 0.02730  0.85740  0.99150  Biso   1.000  C
  H5       1.0000 0.99270  0.18520  0.97050  Biso   1.000  H
  H6       1.0000 0.00730  0.81480  0.02950  Biso   1.000  H
  C13      1.0000 0.81470  0.17520  0.96020  Biso   1.000  C
  C14      1.0000 0.18530  0.82480  0.03980  Biso   1.000  C
  C15      1.0000 0.73610  0.27430  0.87500  Biso   1.000  C
  C16      1.0000 0.26390  0.72570  0.12500  Biso   1.000  C
  H7       1.0000 0.67050  0.33580  0.88040  Biso   1.000  H
  H8       1.0000 0.32950  0.66420  0.11960  Biso   1.000  H
  H9       1.0000 0.77490  0.28000  0.82820  Biso   1.000  H
  H10      1.0000 0.22510  0.72000  0.17180  Biso   1.000  H
  C17      1.0000 0.71050  0.18020  0.89240  Biso   1.000  C
  C18      1.0000 0.28950  0.81980  0.10760  Biso   1.000  C
  H11      1.0000 0.73710  0.14250  0.85370  Biso   1.000  H
  H12      1.0000 0.26290  0.85750  0.14630  Biso   1.000  H
  H13      1.0000 0.63310  0.19800  0.90630  Biso   1.000  H
  H14      1.0000 0.36690  0.80200  0.09370  Biso   1.000  H
  C19      1.0000 0.89730  0.93150  0.17450  Biso   1.000  C
  C20      1.0000 0.10270  0.06850  0.82550  Biso   1.000  C
  C21      1.0000 0.85670  0.80270  0.24230  Biso   1.000  C
  C22      1.0000 0.14330  0.19730  0.75770  Biso   1.000  C
  H15      1.0000 0.78310  0.81560  0.26670  Biso   1.000  H
  H16      1.0000 0.21690  0.18440  0.73330  Biso   1.000  H
  H17      1.0000 0.89410  0.72980  0.23850  Biso   1.000  H
  H18      1.0000 0.10590  0.27020  0.76150  Biso   1.000  H
  C23      1.0000 0.91500  0.83760  0.27780  Biso   1.000  C
  C24      1.0000 0.08500  0.16240  0.72220  Biso   1.000  C
  H19      1.0000 0.98370  0.78300  0.28520  Biso   1.000  H
  H20      1.0000 0.01630  0.21700  0.71480  Biso   1.000  H
  H21      1.0000 0.87160  0.85830  0.32140  Biso   1.000  H
  H22      1.0000 0.12840  0.14170  0.67860  Biso   1.000  H
  C25      1.0000 0.85780  0.89700  0.95170  Biso   1.000  C
  C26      1.0000 0.14220  0.10300  0.04830  Biso   1.000  C
  C27      1.0000 0.69460  0.89390  0.99350  Biso   1.000  C
  C28      1.0000 0.30540  0.10610  0.00650  Biso   1.000  C
  H23      1.0000 0.63640  0.95380  0.01160  Biso   1.000  H
  H24      1.0000 0.36360  0.04620  0.98840  Biso   1.000  H
  H25      1.0000 0.67700  0.83360  0.01270  Biso   1.000  H
  H26      1.0000 0.32300  0.16640  0.98730  Biso   1.000  H
  C29      1.0000 0.71350  0.90940  0.91650  Biso   1.000  C
  C30      1.0000 0.28650  0.09060  0.08350  Biso   1.000  C
  H27      1.0000 0.71470  0.85110  0.90020  Biso   1.000  H
  H28      1.0000 0.28530  0.14890  0.09980  Biso   1.000  H
  H29      1.0000 0.65750  0.97170  0.89960  Biso   1.000  H
  H30      1.0000 0.34250  0.02830  0.10040  Biso   1.000  H
  C31      1.0000 0.02050  0.63520  0.93970  Biso   1.000  C
  C32      1.0000 0.97950  0.36480  0.06030  Biso   1.000  C
  C33      1.0000 0.98090  0.61700  0.89070  Biso   1.000  C
  C34      1.0000 0.01910  0.38300  0.10930  Biso   1.000  C
  H31      1.0000 0.98290  0.38220  0.15450  Biso   1.000  H
  H32      1.0000 0.01710  0.61780  0.84550  Biso   1.000  H
  C35      1.0000 0.88750  0.59770  0.90980  Biso   1.000  C
  C36      1.0000 0.11250  0.40230  0.09020  Biso   1.000  C
  C37      1.0000 0.82990  0.60060  0.97600  Biso   1.000  C
  C38      1.0000 0.17010  0.39940  0.02400  Biso   1.000  C
  H33      1.0000 0.23300  0.41250  0.01180  Biso   1.000  H
  H34      1.0000 0.76700  0.58750  0.98820  Biso   1.000  H
  C39      1.0000 0.86720  0.62370  0.02460  Biso   1.000  C
  C40      1.0000 0.13280  0.37630  0.97540  Biso   1.000  C
  C41      1.0000 0.96370  0.63860  0.00630  Biso   1.000  C
  C42      1.0000 0.03630  0.36140  0.99370  Biso   1.000  C
  H35      1.0000 0.99030  0.65100  0.03890  Biso   1.000  H
  H36      1.0000 0.00970  0.34900  0.96110  Biso   1.000  H
  C43      1.0000 0.12720  0.64390  0.91990  Biso   1.000  C
  C44      1.0000 0.87280  0.35610  0.08010  Biso   1.000  C
  C45      1.0000 0.29170  0.63440  0.91510  Biso   1.000  C
  C46      1.0000 0.70830  0.36560  0.08490  Biso   1.000  C
  H37      1.0000 0.64950  0.43290  0.08330  Biso   1.000  H
  H38      1.0000 0.35050  0.56710  0.91670  Biso   1.000  H
  H39      1.0000 0.68810  0.31760  0.07130  Biso   1.000  H
  H40      1.0000 0.31190  0.68240  0.92870  Biso   1.000  H
  C47      1.0000 0.26450  0.67190  0.84450  Biso   1.000  C
  C48      1.0000 0.73550  0.32810  0.15550  Biso   1.000  C
  H41      1.0000 0.73850  0.25830  0.17130  Biso   1.000  H
  H42      1.0000 0.26150  0.74170  0.82870  Biso   1.000  H
  H43      1.0000 0.68220  0.37270  0.18780  Biso   1.000  H
  H44      1.0000 0.31780  0.62730  0.81220  Biso   1.000  H
  C49      1.0000 0.14980  0.42870  0.14170  Biso   1.000  C
  C50      1.0000 0.85020  0.57130  0.85830  Biso   1.000  C
  C51      1.0000 0.20400  0.50220  0.20000  Biso   1.000  C
  C52      1.0000 0.79600  0.49780  0.80000  Biso   1.000  C
  H45      1.0000 0.27590  0.50240  0.19150  Biso   1.000  H
  H46      1.0000 0.72410  0.49760  0.80850  Biso   1.000  H
  H47      1.0000 0.15330  0.56010  0.22350  Biso   1.000  H
  H48      1.0000 0.84670  0.43990  0.77650  Biso   1.000  H
  C53      1.0000 0.20080  0.40100  0.24150  Biso   1.000  C
  C54      1.0000 0.79920  0.59900  0.75850  Biso   1.000  C
  H49      1.0000 0.15380  0.41190  0.28580  Biso   1.000  H
  H50      1.0000 0.84620  0.58810  0.71420  Biso   1.000  H
  H51      1.0000 0.27260  0.35240  0.24810  Biso   1.000  H
  H52      1.0000 0.72740  0.64760  0.75190  Biso   1.000  H
  C55      1.0000 0.80100  0.63520  0.09390  Biso   1.000  C
  C56      1.0000 0.19900  0.36480  0.90610  Biso   1.000  C
  C57      1.0000 0.71260  0.68460  0.19420  Biso   1.000  C
  C58      1.0000 0.28740  0.31540  0.80580  Biso   1.000  C
  H53      1.0000 0.64990  0.74790  0.20160  Biso   1.000  H
  H54      1.0000 0.35010  0.25210  0.79840  Biso   1.000  H
  H55      1.0000 0.74790  0.66130  0.23330  Biso   1.000  H
  H56      1.0000 0.25210  0.33870  0.76670  Biso   1.000  H
  C59      1.0000 0.68110  0.60350  0.18300  Biso   1.000  C
  C60      1.0000 0.31890  0.39650  0.81700  Biso   1.000  C
  H57      1.0000 0.69580  0.54530  0.21930  Biso   1.000  H
  H58      1.0000 0.30420  0.45470  0.78070  Biso   1.000  H
  H59      1.0000 0.60490  0.63120  0.18120  Biso   1.000  H
  H60      1.0000 0.39510  0.36880  0.81880  Biso   1.000  H
  C61      1.0000 0.33150  0.05360  0.53490  Biso   1.000  C
  C62      1.0000 0.66850  0.94640  0.46510  Biso   1.000  C
  C63      1.0000 0.37780  0.97100  0.49850  Biso   1.000  C
  C64      1.0000 0.62220  0.02900  0.50150  Biso   1.000  C
  H61      1.0000 0.36160  0.97880  0.45590  Biso   1.000  H
  H62      1.0000 0.63840  0.02120  0.54410  Biso   1.000  H
  C65      1.0000 0.44880  0.87580  0.52540  Biso   1.000  C
  C66      1.0000 0.55120  0.12420  0.47460  Biso   1.000  C
  C67      1.0000 0.47570  0.86640  0.58770  Biso   1.000  C
  C68      1.0000 0.52430  0.13360  0.41230  Biso   1.000  C
  H63      1.0000 0.52550  0.80430  0.60500  Biso   1.000  H
  H64      1.0000 0.47450  0.19570  0.39500  Biso   1.000  H
  C69      1.0000 0.42920  0.94880  0.62410  Biso   1.000  C
  C70      1.0000 0.57080  0.05120  0.37590  Biso   1.000  C
  C71      1.0000 0.35600  0.04170  0.59870  Biso   1.000  C
  C72      1.0000 0.64400  0.95830  0.40130  Biso   1.000  C
  H65      1.0000 0.32310  0.09630  0.62400  Biso   1.000  H
  H66      1.0000 0.67690  0.90370  0.37600  Biso   1.000  H
  C73      1.0000 0.26000  0.15570  0.50740  Biso   1.000  C
  C74      1.0000 0.74000  0.84430  0.49260  Biso   1.000  C
  C75      1.0000 0.17770  0.29960  0.44140  Biso   1.000  C
  C76      1.0000 0.82230  0.70040  0.55860  Biso   1.000  C
  H67      1.0000 0.11930  0.31140  0.41920  Biso   1.000  H
  H68      1.0000 0.88070  0.68860  0.58080  Biso   1.000  H
  H69      1.0000 0.21440  0.34530  0.41680  Biso   1.000  H
  H70      1.0000 0.78560  0.65470  0.58320  Biso   1.000  H
  C77      1.0000 0.13540  0.31590  0.51590  Biso   1.000  C
  C78      1.0000 0.86460  0.68410  0.48410  Biso   1.000  C
  H71      1.0000 0.14780  0.37280  0.52440  Biso   1.000  H
  H72      1.0000 0.85220  0.62720  0.47560  Biso   1.000  H
  H73      1.0000 0.05860  0.33030  0.52850  Biso   1.000  H
  H74      1.0000 0.94140  0.66970  0.47150  Biso   1.000  H
  C79      1.0000 0.49490  0.78630  0.48990  Biso   1.000  C
  C80      1.0000 0.50510  0.21370  0.51010  Biso   1.000  C
  C81      1.0000 0.52700  0.65470  0.43930  Biso   1.000  C
  C82      1.0000 0.47300  0.34530  0.56070  Biso   1.000  C
  H75      1.0000 0.52260  0.66260  0.39190  Biso   1.000  H
  H76      1.0000 0.47740  0.33740  0.60810  Biso   1.000  H
  H77      1.0000 0.51850  0.59130  0.46310  Biso   1.000  H
  H78      1.0000 0.48150  0.40870  0.53690  Biso   1.000  H
  C83      1.0000 0.63230  0.65480  0.44530  Biso   1.000  C
  C84      1.0000 0.36770  0.34520  0.55470  Biso   1.000  C
  H79      1.0000 0.67170  0.59170  0.47250  Biso   1.000  H
  H80      1.0000 0.32830  0.40830  0.52750  Biso   1.000  H
  H81      1.0000 0.67710  0.66100  0.40060  Biso   1.000  H
  H82      1.0000 0.32290  0.33900  0.59940  Biso   1.000  H
  C85      1.0000 0.45660  0.93570  0.69100  Biso   1.000  C
  C86      1.0000 0.54340  0.06430  0.30900  Biso   1.000  C
  C87      1.0000 0.53770  0.89290  0.77880  Biso   1.000  C
  C88      1.0000 0.46230  0.10710  0.22120  Biso   1.000  C
  H83      1.0000 0.56630  0.82220  0.80100  Biso   1.000  H
  H84      1.0000 0.43370  0.17780  0.19900  Biso   1.000  H
  H85      1.0000 0.57430  0.93110  0.78800  Biso   1.000  H
  H86      1.0000 0.42570  0.06890  0.21200  Biso   1.000  H
  C89      1.0000 0.41920  0.94160  0.80250  Biso   1.000  C
  C90      1.0000 0.58080  0.05840  0.19750  Biso   1.000  C
  H87      1.0000 0.39330  0.89440  0.83720  Biso   1.000  H
  H88      1.0000 0.60670  0.10560  0.16280  Biso   1.000  H
  H89      1.0000 0.40060  0.00380  0.82140  Biso   1.000  H
  H90      1.0000 0.59940  0.99620  0.17860  Biso   1.000  H
  C91      1.0000 0.04660  0.82520  0.46150  Biso   1.000  C
  C92      1.0000 0.95340  0.17480  0.53850  Biso   1.000  C
  C93      1.0000 0.98510  0.90830  0.42160  Biso   1.000  C
  C94      1.0000 0.01490  0.09170  0.57840  Biso   1.000  C
  H91      1.0000 0.00240  0.91130  0.37440  Biso   1.000  H
  H92      1.0000 0.99760  0.08870  0.62560  Biso   1.000  H
  C95      1.0000 0.89710  0.98810  0.45130  Biso   1.000  C
  C96      1.0000 0.10290  0.01190  0.54870  Biso   1.000  C
  C97      1.0000 0.86950  0.98100  0.52220  Biso   1.000  C
  C98      1.0000 0.13050  0.01900  0.47780  Biso   1.000  C
  H93      1.0000 0.81110  0.03380  0.54270  Biso   1.000  H
  H94      1.0000 0.18890  0.96620  0.45730  Biso   1.000  H
  C99      1.0000 0.92970  0.89450  0.56180  Biso   1.000  C
  C100     1.0000 0.07030  0.10550  0.43820  Biso   1.000  C
  C101     1.0000 0.01950  0.81820  0.53220  Biso   1.000  C
  C102     1.0000 0.98050  0.18180  0.46780  Biso   1.000  C
  H95      1.0000 0.06160  0.76240  0.55930  Biso   1.000  H
  H96      1.0000 0.93840  0.23760  0.44070  Biso   1.000  H
  C103     1.0000 0.14220  0.74390  0.42930  Biso   1.000  C
  C104     1.0000 0.85780  0.25610  0.57070  Biso   1.000  C
  C105     1.0000 0.30290  0.62390  0.40210  Biso   1.000  C
  C106     1.0000 0.69710  0.37610  0.59790  Biso   1.000  C
  H97      1.0000 0.36740  0.63460  0.37560  Biso   1.000  H
  H98      1.0000 0.63260  0.36540  0.62440  Biso   1.000  H
  H99      1.0000 0.32410  0.55740  0.43080  Biso   1.000  H
  H100     1.0000 0.67590  0.44260  0.56920  Biso   1.000  H
  C107     1.0000 0.23110  0.62960  0.35540  Biso   1.000  C
  C108     1.0000 0.76890  0.37040  0.64460  Biso   1.000  C
  H101     1.0000 0.22650  0.56340  0.35890  Biso   1.000  H
  H102     1.0000 0.77350  0.43660  0.64110  Biso   1.000  H
  H103     1.0000 0.25800  0.65170  0.30820  Biso   1.000  H
  H104     1.0000 0.74200  0.34830  0.69180  Biso   1.000  H
  C109     1.0000 0.16290  0.92210  0.59340  Biso   1.000  C
  C110     1.0000 0.83710  0.07790  0.40660  Biso   1.000  C
  C111     1.0000 0.20940  0.84490  0.69510  Biso   1.000  C
  C112     1.0000 0.79060  0.15510  0.30490  Biso   1.000  C
  H105     1.0000 0.16210  0.82400  0.73440  Biso   1.000  H
  H106     1.0000 0.83790  0.17600  0.26560  Biso   1.000  H
  H107     1.0000 0.26640  0.85040  0.71060  Biso   1.000  H
  H108     1.0000 0.73360  0.14960  0.28940  Biso   1.000  H
  C113     1.0000 0.25510  0.77030  0.64510  Biso   1.000  C
  C114     1.0000 0.74490  0.22970  0.35490  Biso   1.000  C
  H109     1.0000 0.22680  0.71620  0.66040  Biso   1.000  H
  H110     1.0000 0.77320  0.28380  0.33960  Biso   1.000  H
  H111     1.0000 0.33330  0.73890  0.63900  Biso   1.000  H
  H112     1.0000 0.66670  0.26110  0.36100  Biso   1.000  H
  C115     1.0000 0.10310  0.11680  0.36240  Biso   1.000  C
  C116     1.0000 0.89690  0.88320  0.63760  Biso   1.000  C
  C117     1.0000 0.18770  0.12580  0.25580  Biso   1.000  C
  C118     1.0000 0.81230  0.87420  0.74420  Biso   1.000  C
  H113     1.0000 0.23670  0.06200  0.23800  Biso   1.000  H
  H114     1.0000 0.76330  0.93800  0.76200  Biso   1.000  H
  H115     1.0000 0.20630  0.18230  0.22770  Biso   1.000  H
  H116     1.0000 0.79370  0.81770  0.77230  Biso   1.000  H
  C119     1.0000 0.07220  0.14440  0.25760  Biso   1.000  C
  C120     1.0000 0.92780  0.85560  0.74240  Biso   1.000  C
  H117     1.0000 0.03360  0.21470  0.23800  Biso   1.000  H
  H118     1.0000 0.96640  0.78530  0.76200  Biso   1.000  H
  H119     1.0000 0.06840  0.09710  0.23280  Biso   1.000  H
  H120     1.0000 0.93160  0.90290  0.76720  Biso   1.000  H
  O61      1.0000 0.45500  0.32900  0.02800  Biso   1.000  O
  O62      1.0000 0.54500  0.67100  0.97200  Biso   1.000  O
  O63      1.0000 0.37900  0.39000  0.34100  Biso   1.000  O
  O64      1.0000 0.62100  0.61000  0.65900  Biso   1.000  O
  O65      1.0000 0.53570  0.43660  0.29580  Biso   1.000  O
  O66      1.0000 0.46430  0.56340  0.70420  Biso   1.000  O
  O67      1.0000 0.00640  0.62420  0.66520  Biso   1.000  O
  O68      1.0000 0.99360  0.37580  0.33480  Biso   1.000  O
  O69      1.0000 0.16400  0.53300  0.70740  Biso   1.000  O
  O70      1.0000 0.83600  0.46700  0.29260  Biso   1.000  O
  O71      1.0000 0.09400  0.44020  0.66490  Biso   1.000  O
  O72      1.0000 0.90600  0.55980  0.33510  Biso   1.000  O
  O73      1.0000 0.16100  0.55370  0.59130  Biso   1.000  O
  O74      1.0000 0.83900  0.44630  0.40870  Biso   1.000  O
  O75      1.0000 0.43810  0.89260  0.21260  Biso   1.000  O
  O76      1.0000 0.56190  0.10740  0.78740  Biso   1.000  O
  O77      1.0000 0.46290  0.73560  0.28510  Biso   1.000  O
  O78      1.0000 0.53710  0.26440  0.71490  Biso   1.000  O
  O79      1.0000 0.38640  0.89000  0.33110  Biso   1.000  O
  O80      1.0000 0.61360  0.11000  0.66890  Biso   1.000  O
  O81      1.0000 0.28400  0.85830  0.27450  Biso   1.000  O
  O82      1.0000 0.71600  0.14170  0.72550  Biso   1.000  O
