data_image0
_cell_length_a       9.599
_cell_length_b       16.338
_cell_length_c       12.934
_cell_angle_alpha    90
_cell_angle_beta     97.99
_cell_angle_gamma    90

_symmetry_space_group_name_H-M    "P 1"
_symmetry_int_tables_number       1

loop_
  _symmetry_equiv_pos_as_xyz
  'x, y, z'

loop_
  _atom_site_label
  _atom_site_occupancy
  _atom_site_fract_x
  _atom_site_fract_y
  _atom_site_fract_z
  _atom_site_thermal_displace_type
  _atom_site_B_iso_or_equiv
  _atom_site_type_symbol
  Br1      1.0000 0.11673  0.01356  0.62871  Biso   1.000  Br
  Br2      1.0000 0.38327  0.51356  0.87129  Biso   1.000  Br
  Br3      1.0000 0.88327  0.98644  0.37129  Biso   1.000  Br
  Br4      1.0000 0.61673  0.48644  0.12871  Biso   1.000  Br
  Cu1      1.0000 0.11539  0.05297  0.44224  Biso   1.000  Cu
  Cu2      1.0000 0.38461  0.55297  0.05776  Biso   1.000  Cu
  Cu3      1.0000 0.88461  0.94703  0.55776  Biso   1.000  Cu
  Cu4      1.0000 0.61539  0.44703  0.94224  Biso   1.000  Cu
  N1       1.0000 0.26380  0.02870  0.34800  Biso   1.000  N
  N2       1.0000 0.23620  0.52870  0.15200  Biso   1.000  N
  N3       1.0000 0.73620  0.97130  0.65200  Biso   1.000  N
  N4       1.0000 0.76380  0.47130  0.84800  Biso   1.000  N
  C1       1.0000 0.23020  0.99030  0.25670  Biso   1.000  C
  C2       1.0000 0.26980  0.49030  0.24330  Biso   1.000  C
  C3       1.0000 0.76980  0.00970  0.74330  Biso   1.000  C
  C4       1.0000 0.73020  0.50970  0.75670  Biso   1.000  C
  H1       1.0000 0.14000  0.96880  0.24130  Biso   1.000  H
  H2       1.0000 0.36000  0.46880  0.25870  Biso   1.000  H
  H3       1.0000 0.86000  0.03120  0.75870  Biso   1.000  H
  H4       1.0000 0.64000  0.53120  0.74130  Biso   1.000  H
  C5       1.0000 0.32150  0.98060  0.18370  Biso   1.000  C
  C6       1.0000 0.17850  0.48060  0.31630  Biso   1.000  C
  C7       1.0000 0.67850  0.01940  0.81630  Biso   1.000  C
  C8       1.0000 0.82150  0.51940  0.68370  Biso   1.000  C
  C9       1.0000 0.45480  0.01290  0.20530  Biso   1.000  C
  C10      1.0000 0.04520  0.51290  0.29470  Biso   1.000  C
  C11      1.0000 0.54520  0.98710  0.79470  Biso   1.000  C
  C12      1.0000 0.95480  0.48710  0.70530  Biso   1.000  C
  H5       1.0000 0.51730  0.00950  0.15660  Biso   1.000  H
  H6       1.0000 0.98270  0.50950  0.34340  Biso   1.000  H
  H7       1.0000 0.48270  0.99050  0.84340  Biso   1.000  H
  H8       1.0000 0.01730  0.49050  0.65660  Biso   1.000  H
  C13      1.0000 0.49400  0.05020  0.30010  Biso   1.000  C
  C14      1.0000 0.00600  0.55020  0.19990  Biso   1.000  C
  C15      1.0000 0.50600  0.94980  0.69990  Biso   1.000  C
  C16      1.0000 0.99400  0.44980  0.80010  Biso   1.000  C
  H9       1.0000 0.58530  0.06960  0.31780  Biso   1.000  H
  H10      1.0000 0.91470  0.56960  0.18220  Biso   1.000  H
  H11      1.0000 0.41470  0.93040  0.68220  Biso   1.000  H
  H12      1.0000 0.08530  0.43040  0.81780  Biso   1.000  H
  C17      1.0000 0.39670  0.05870  0.36910  Biso   1.000  C
  C18      1.0000 0.10330  0.55870  0.13090  Biso   1.000  C
  C19      1.0000 0.60330  0.94130  0.63090  Biso   1.000  C
  C20      1.0000 0.89670  0.44130  0.86910  Biso   1.000  C
  C21      1.0000 0.43540  0.09850  0.46730  Biso   1.000  C
  C22      1.0000 0.06460  0.59850  0.03270  Biso   1.000  C
  C23      1.0000 0.56460  0.90150  0.53270  Biso   1.000  C
  C24      1.0000 0.93540  0.40150  0.96730  Biso   1.000  C
  C25      1.0000 0.47130  0.13180  0.54910  Biso   1.000  C
  C26      1.0000 0.02870  0.63180  0.95090  Biso   1.000  C
  C27      1.0000 0.52870  0.86820  0.45090  Biso   1.000  C
  C28      1.0000 0.97130  0.36820  0.04910  Biso   1.000  C
  C29      1.0000 0.49950  0.17210  0.64810  Biso   1.000  C
  C30      1.0000 0.00050  0.67210  0.85190  Biso   1.000  C
  C31      1.0000 0.50050  0.82790  0.35190  Biso   1.000  C
  C32      1.0000 0.99950  0.32790  0.14810  Biso   1.000  C
  C33      1.0000 0.63070  0.20520  0.68690  Biso   1.000  C
  C34      1.0000 0.86930  0.70520  0.81310  Biso   1.000  C
  C35      1.0000 0.36930  0.79480  0.31310  Biso   1.000  C
  C36      1.0000 0.13070  0.29480  0.18690  Biso   1.000  C
  H13      1.0000 0.70540  0.20120  0.64840  Biso   1.000  H
  H14      1.0000 0.79460  0.70120  0.85160  Biso   1.000  H
  H15      1.0000 0.29460  0.79880  0.35160  Biso   1.000  H
  H16      1.0000 0.20540  0.29880  0.14840  Biso   1.000  H
  C37      1.0000 0.64870  0.24370  0.78210  Biso   1.000  C
  C38      1.0000 0.85130  0.74370  0.71790  Biso   1.000  C
  C39      1.0000 0.35130  0.75630  0.21790  Biso   1.000  C
  C40      1.0000 0.14870  0.25630  0.28210  Biso   1.000  C
  H17      1.0000 0.73660  0.26510  0.80770  Biso   1.000  H
  H18      1.0000 0.76340  0.76510  0.69230  Biso   1.000  H
  H19      1.0000 0.26340  0.73490  0.19230  Biso   1.000  H
  H20      1.0000 0.23660  0.23490  0.30770  Biso   1.000  H
  C41      1.0000 0.53890  0.25150  0.84160  Biso   1.000  C
  C42      1.0000 0.96110  0.75150  0.65840  Biso   1.000  C
  C43      1.0000 0.46110  0.74850  0.15840  Biso   1.000  C
  C44      1.0000 0.03890  0.24850  0.34160  Biso   1.000  C
  C45      1.0000 0.40670  0.21740  0.80520  Biso   1.000  C
  C46      1.0000 0.09330  0.71740  0.69480  Biso   1.000  C
  C47      1.0000 0.59330  0.78260  0.19480  Biso   1.000  C
  C48      1.0000 0.90670  0.28260  0.30520  Biso   1.000  C
  C49      1.0000 0.39200  0.17860  0.70920  Biso   1.000  C
  C50      1.0000 0.10800  0.67860  0.79080  Biso   1.000  C
  C51      1.0000 0.60800  0.82140  0.29080  Biso   1.000  C
  C52      1.0000 0.89200  0.32140  0.20920  Biso   1.000  C
  H21      1.0000 0.30520  0.15560  0.68420  Biso   1.000  H
  H22      1.0000 0.19480  0.65560  0.81580  Biso   1.000  H
  H23      1.0000 0.69480  0.84440  0.31580  Biso   1.000  H
  H24      1.0000 0.80520  0.34440  0.18420  Biso   1.000  H
  S1       1.0000 0.58291  0.30351  0.96183  Biso   1.000  S
  S2       1.0000 0.91709  0.80351  0.53817  Biso   1.000  S
  S3       1.0000 0.41709  0.69649  0.03817  Biso   1.000  S
  S4       1.0000 0.08291  0.19649  0.46183  Biso   1.000  S
  C53      1.0000 0.42500  0.29270  0.02130  Biso   1.000  C
  C54      1.0000 0.07500  0.79270  0.47870  Biso   1.000  C
  C55      1.0000 0.57500  0.70730  0.97870  Biso   1.000  C
  C56      1.0000 0.92500  0.20730  0.52130  Biso   1.000  C
  H25      1.0000 0.42910  0.24180  0.06020  Biso   1.000  H
  H26      1.0000 0.07090  0.74180  0.43980  Biso   1.000  H
  H27      1.0000 0.57090  0.75820  0.93980  Biso   1.000  H
  H28      1.0000 0.92910  0.25820  0.56020  Biso   1.000  H
  H29      1.0000 0.41950  0.33720  0.07010  Biso   1.000  H
  H30      1.0000 0.08050  0.83720  0.42990  Biso   1.000  H
  H31      1.0000 0.58050  0.66280  0.92990  Biso   1.000  H
  H32      1.0000 0.91950  0.16280  0.57010  Biso   1.000  H
  C57      1.0000 0.29410  0.29300  0.94070  Biso   1.000  C
  C58      1.0000 0.20590  0.79300  0.55930  Biso   1.000  C
  C59      1.0000 0.70590  0.70700  0.05930  Biso   1.000  C
  C60      1.0000 0.79410  0.20700  0.44070  Biso   1.000  C
  H33      1.0000 0.29370  0.34270  0.89960  Biso   1.000  H
  H34      1.0000 0.20630  0.84270  0.60040  Biso   1.000  H
  H35      1.0000 0.70630  0.65730  0.10040  Biso   1.000  H
  H36      1.0000 0.79370  0.15730  0.39960  Biso   1.000  H
  H37      1.0000 0.21210  0.29440  0.97680  Biso   1.000  H
  H38      1.0000 0.28790  0.79440  0.52320  Biso   1.000  H
  H39      1.0000 0.78790  0.70560  0.02320  Biso   1.000  H
  H40      1.0000 0.71210  0.20560  0.47680  Biso   1.000  H
  C61      1.0000 0.28150  0.21980  0.86680  Biso   1.000  C
  C62      1.0000 0.21850  0.71980  0.63320  Biso   1.000  C
  C63      1.0000 0.71850  0.78020  0.13320  Biso   1.000  C
  C64      1.0000 0.78150  0.28020  0.36680  Biso   1.000  C
  C65      1.0000 0.28600  0.93620  0.08170  Biso   1.000  C
  C66      1.0000 0.21400  0.43620  0.41830  Biso   1.000  C
  C67      1.0000 0.71400  0.06380  0.91830  Biso   1.000  C
  C68      1.0000 0.78600  0.56380  0.58170  Biso   1.000  C
  O1       1.0000 0.36510  0.93010  0.01760  Biso   1.000  O
  O2       1.0000 0.13490  0.43010  0.48240  Biso   1.000  O
  O3       1.0000 0.63490  0.06990  0.98240  Biso   1.000  O
  O4       1.0000 0.86510  0.56990  0.51760  Biso   1.000  O
  O5       1.0000 0.15880  0.90270  0.07320  Biso   1.000  O
  O6       1.0000 0.34120  0.40270  0.42680  Biso   1.000  O
  O7       1.0000 0.84120  0.09730  0.92680  Biso   1.000  O
  O8       1.0000 0.65880  0.59730  0.57320  Biso   1.000  O
  C69      1.0000 0.11540  0.85570  0.97840  Biso   1.000  C
  C70      1.0000 0.38460  0.35570  0.52160  Biso   1.000  C
  C71      1.0000 0.88460  0.14430  0.02160  Biso   1.000  C
  C72      1.0000 0.61540  0.64430  0.47840  Biso   1.000  C
  H41      1.0000 0.04700  0.81490  0.99210  Biso   1.000  H
  H42      1.0000 0.45300  0.31490  0.50790  Biso   1.000  H
  H43      1.0000 0.95300  0.18510  0.00790  Biso   1.000  H
  H44      1.0000 0.54700  0.68510  0.49210  Biso   1.000  H
  H45      1.0000 0.19630  0.82740  0.95840  Biso   1.000  H
  H46      1.0000 0.30370  0.32740  0.54160  Biso   1.000  H
  H47      1.0000 0.80370  0.17260  0.04160  Biso   1.000  H
  H48      1.0000 0.69630  0.67260  0.45840  Biso   1.000  H
  C73      1.0000 0.05370  0.90850  0.89220  Biso   1.000  C
  C74      1.0000 0.44630  0.40850  0.60780  Biso   1.000  C
  C75      1.0000 0.94630  0.09150  0.10780  Biso   1.000  C
  C76      1.0000 0.55370  0.59150  0.39220  Biso   1.000  C
  H49      1.0000 0.01880  0.87520  0.83300  Biso   1.000  H
  H50      1.0000 0.48120  0.37520  0.66700  Biso   1.000  H
  H51      1.0000 0.98120  0.12480  0.16700  Biso   1.000  H
  H52      1.0000 0.51880  0.62480  0.33300  Biso   1.000  H
  H53      1.0000 0.12420  0.94520  0.87350  Biso   1.000  H
  H54      1.0000 0.37580  0.44520  0.62650  Biso   1.000  H
  H55      1.0000 0.87580  0.05480  0.12650  Biso   1.000  H
  H56      1.0000 0.62420  0.55480  0.37350  Biso   1.000  H
  H57      1.0000 0.97770  0.93950  0.91360  Biso   1.000  H
  H58      1.0000 0.52230  0.43950  0.58640  Biso   1.000  H
  H59      1.0000 0.02230  0.06050  0.08640  Biso   1.000  H
  H60      1.0000 0.47770  0.56050  0.41360  Biso   1.000  H
  C77      1.0000 0.27350  0.13870  0.92150  Biso   1.000  C
  C78      1.0000 0.22650  0.63870  0.57850  Biso   1.000  C
  C79      1.0000 0.72650  0.86130  0.07850  Biso   1.000  C
  C80      1.0000 0.77350  0.36130  0.42150  Biso   1.000  C
  H61      1.0000 0.20220  0.14120  0.96650  Biso   1.000  H
  H62      1.0000 0.29780  0.64120  0.53350  Biso   1.000  H
  H63      1.0000 0.79780  0.85880  0.03350  Biso   1.000  H
  H64      1.0000 0.70220  0.35880  0.46650  Biso   1.000  H
  H65      1.0000 0.36270  0.12690  0.96210  Biso   1.000  H
  H66      1.0000 0.13730  0.62690  0.53790  Biso   1.000  H
  H67      1.0000 0.63730  0.87310  0.03790  Biso   1.000  H
  H68      1.0000 0.86270  0.37310  0.46210  Biso   1.000  H
  H69      1.0000 0.25060  0.09630  0.87050  Biso   1.000  H
  H70      1.0000 0.24940  0.59630  0.62950  Biso   1.000  H
  H71      1.0000 0.74940  0.90370  0.12950  Biso   1.000  H
  H72      1.0000 0.75060  0.40370  0.37050  Biso   1.000  H
  C81      1.0000 0.14180  0.23210  0.79300  Biso   1.000  C
  C82      1.0000 0.35820  0.73210  0.70700  Biso   1.000  C
  C83      1.0000 0.85820  0.76790  0.20700  Biso   1.000  C
  C84      1.0000 0.64180  0.26790  0.29300  Biso   1.000  C
  H73      1.0000 0.06630  0.23930  0.83370  Biso   1.000  H
  H74      1.0000 0.43370  0.73930  0.66630  Biso   1.000  H
  H75      1.0000 0.93370  0.76070  0.16630  Biso   1.000  H
  H76      1.0000 0.56630  0.26070  0.33370  Biso   1.000  H
  H77      1.0000 0.12340  0.18500  0.74900  Biso   1.000  H
  H78      1.0000 0.37660  0.68500  0.75100  Biso   1.000  H
  H79      1.0000 0.87660  0.81500  0.25100  Biso   1.000  H
  H80      1.0000 0.62340  0.31500  0.24900  Biso   1.000  H
  H81      1.0000 0.14900  0.27980  0.75060  Biso   1.000  H
  H82      1.0000 0.35100  0.77980  0.74940  Biso   1.000  H
  H83      1.0000 0.85100  0.72020  0.24940  Biso   1.000  H
  H84      1.0000 0.64900  0.22020  0.25060  Biso   1.000  H
  C85      1.0000 0.22800  0.92600  0.11010  Biso   1.000  C
  C86      1.0000 0.27200  0.42600  0.38990  Biso   1.000  C
  C87      1.0000 0.77200  0.07400  0.88990  Biso   1.000  C
  C88      1.0000 0.72800  0.57400  0.61010  Biso   1.000  C
  O9       1.0000 0.12300  0.88630  0.11580  Biso   1.000  O
  O10      1.0000 0.37700  0.38630  0.38420  Biso   1.000  O
  O11      1.0000 0.87700  0.11370  0.88420  Biso   1.000  O
  O12      1.0000 0.62300  0.61370  0.61580  Biso   1.000  O
  O13      1.0000 0.28500  0.93420  0.02240  Biso   1.000  O
  O14      1.0000 0.21500  0.43420  0.47760  Biso   1.000  O
  O15      1.0000 0.71500  0.06580  0.97760  Biso   1.000  O
  O16      1.0000 0.78500  0.56580  0.52240  Biso   1.000  O
  C89      1.0000 0.22800  0.88010  0.93710  Biso   1.000  C
  C90      1.0000 0.27200  0.38010  0.56290  Biso   1.000  C
  C91      1.0000 0.77200  0.11990  0.06290  Biso   1.000  C
  C92      1.0000 0.72800  0.61990  0.43710  Biso   1.000  C
  H85      1.0000 0.18670  0.83230  0.96560  Biso   1.000  H
  H86      1.0000 0.31330  0.33230  0.53440  Biso   1.000  H
  H87      1.0000 0.81330  0.16770  0.03440  Biso   1.000  H
  H88      1.0000 0.68670  0.66770  0.46560  Biso   1.000  H
  H89      1.0000 0.30330  0.86180  0.90030  Biso   1.000  H
  H90      1.0000 0.19670  0.36180  0.59970  Biso   1.000  H
  H91      1.0000 0.69670  0.13820  0.09970  Biso   1.000  H
  H92      1.0000 0.80330  0.63820  0.40030  Biso   1.000  H
  C93      1.0000 0.12000  0.92100  0.86300  Biso   1.000  C
  C94      1.0000 0.38000  0.42100  0.63700  Biso   1.000  C
  C95      1.0000 0.88000  0.07900  0.13700  Biso   1.000  C
  C96      1.0000 0.62000  0.57900  0.36300  Biso   1.000  C
  H93      1.0000 0.06190  0.88080  0.82440  Biso   1.000  H
  H94      1.0000 0.43810  0.38080  0.67560  Biso   1.000  H
  H95      1.0000 0.93810  0.11920  0.17560  Biso   1.000  H
  H96      1.0000 0.56190  0.61920  0.32440  Biso   1.000  H
  H97      1.0000 0.16490  0.95430  0.81630  Biso   1.000  H
  H98      1.0000 0.33510  0.45430  0.68370  Biso   1.000  H
  H99      1.0000 0.83510  0.04570  0.18370  Biso   1.000  H
  H100     1.0000 0.66490  0.54570  0.31630  Biso   1.000  H
  H101     1.0000 0.06310  0.95520  0.90120  Biso   1.000  H
  H102     1.0000 0.43690  0.45520  0.59880  Biso   1.000  H
  H103     1.0000 0.93690  0.04480  0.09880  Biso   1.000  H
  H104     1.0000 0.56310  0.54480  0.40120  Biso   1.000  H
