data_image0
_cell_length_a       15.0051
_cell_length_b       7.9384
_cell_length_c       16.4144
_cell_angle_alpha    90
_cell_angle_beta     111.571
_cell_angle_gamma    90

_symmetry_space_group_name_H-M    "P 1"
_symmetry_int_tables_number       1

loop_
  _symmetry_equiv_pos_as_xyz
  'x, y, z'

loop_
  _atom_site_label
  _atom_site_occupancy
  _atom_site_fract_x
  _atom_site_fract_y
  _atom_site_fract_z
  _atom_site_thermal_displace_type
  _atom_site_B_iso_or_equiv
  _atom_site_type_symbol
  Br1      1.0000 0.28044  0.89637  0.21520  Biso   1.000  Br
  Br2      1.0000 0.21956  0.39637  0.28480  Biso   1.000  Br
  Br3      1.0000 0.71956  0.10363  0.78480  Biso   1.000  Br
  Br4      1.0000 0.78044  0.60363  0.71520  Biso   1.000  Br
  Cu1      1.0000 0.16144  0.67903  0.22694  Biso   1.000  Cu
  Cu2      1.0000 0.33856  0.17903  0.27306  Biso   1.000  Cu
  Cu3      1.0000 0.83856  0.32097  0.77306  Biso   1.000  Cu
  Cu4      1.0000 0.66144  0.82097  0.72694  Biso   1.000  Cu
  S1       1.0000 0.73999  0.38773  0.29579  Biso   1.000  S
  S2       1.0000 0.76001  0.88773  0.20421  Biso   1.000  S
  S3       1.0000 0.26001  0.61227  0.70421  Biso   1.000  S
  S4       1.0000 0.23999  0.11227  0.79579  Biso   1.000  S
  S5       1.0000 0.77095  0.44077  0.18896  Biso   1.000  S
  S6       1.0000 0.72905  0.94077  0.31104  Biso   1.000  S
  S7       1.0000 0.22905  0.55923  0.81104  Biso   1.000  S
  S8       1.0000 0.27095  0.05923  0.68896  Biso   1.000  S
  N1       1.0000 0.89146  0.32150  0.12568  Biso   1.000  N
  N2       1.0000 0.60854  0.82150  0.37432  Biso   1.000  N
  N3       1.0000 0.10854  0.67850  0.87432  Biso   1.000  N
  N4       1.0000 0.39146  0.17850  0.62568  Biso   1.000  N
  N5       1.0000 0.91671  0.22790  0.27134  Biso   1.000  N
  N6       1.0000 0.58329  0.72790  0.22866  Biso   1.000  N
  N7       1.0000 0.08329  0.77210  0.72866  Biso   1.000  N
  N8       1.0000 0.41671  0.27210  0.77134  Biso   1.000  N
  C1       1.0000 0.18830  0.88020  0.38817  Biso   1.000  C
  C2       1.0000 0.31170  0.38020  0.11183  Biso   1.000  C
  C3       1.0000 0.81170  0.11980  0.61183  Biso   1.000  C
  C4       1.0000 0.68830  0.61980  0.88817  Biso   1.000  C
  H1       1.0000 0.23940  0.92570  0.37640  Biso   1.000  H
  H2       1.0000 0.26060  0.42570  0.12360  Biso   1.000  H
  H3       1.0000 0.76060  0.07430  0.62360  Biso   1.000  H
  H4       1.0000 0.73940  0.57430  0.87640  Biso   1.000  H
  N9       1.0000 0.89328  0.58900  0.36722  Biso   1.000  N
  N10      1.0000 0.60672  0.08900  0.13278  Biso   1.000  N
  N11      1.0000 0.10672  0.41100  0.63278  Biso   1.000  N
  N12      1.0000 0.39328  0.91100  0.86722  Biso   1.000  N
  N13      1.0000 0.12963  0.77170  0.33043  Biso   1.000  N
  N14      1.0000 0.37037  0.27170  0.16957  Biso   1.000  N
  N15      1.0000 0.87037  0.22830  0.66957  Biso   1.000  N
  N16      1.0000 0.62963  0.72830  0.83043  Biso   1.000  N
  C5       1.0000 0.87150  0.31300  0.19836  Biso   1.000  C
  C6       1.0000 0.62850  0.81300  0.30164  Biso   1.000  C
  C7       1.0000 0.12850  0.68700  0.80164  Biso   1.000  C
  C8       1.0000 0.37150  0.18700  0.69836  Biso   1.000  C
  C9       1.0000 0.95228  0.67860  0.43460  Biso   1.000  C
  C10      1.0000 0.54772  0.17860  0.06540  Biso   1.000  C
  C11      1.0000 0.04772  0.32140  0.56540  Biso   1.000  C
  C12      1.0000 0.45228  0.82140  0.93460  Biso   1.000  C
  C13      1.0000 0.03700  0.75420  0.42253  Biso   1.000  C
  C14      1.0000 0.46300  0.25420  0.07747  Biso   1.000  C
  C15      1.0000 0.96300  0.24580  0.57747  Biso   1.000  C
  C16      1.0000 0.53700  0.74580  0.92253  Biso   1.000  C
  C17      1.0000 0.81878  0.51970  0.37858  Biso   1.000  C
  C18      1.0000 0.68122  0.01970  0.12142  Biso   1.000  C
  C19      1.0000 0.18122  0.48030  0.62142  Biso   1.000  C
  C20      1.0000 0.31878  0.98030  0.87858  Biso   1.000  C
  N17      1.0000 0.79391  0.52890  0.44835  Biso   1.000  N
  N18      1.0000 0.70609  0.02890  0.05165  Biso   1.000  N
  N19      1.0000 0.20609  0.47110  0.55165  Biso   1.000  N
  N20      1.0000 0.29391  0.97110  0.94835  Biso   1.000  N
  C21      1.0000 0.01837  0.13190  0.19806  Biso   1.000  C
  C22      1.0000 0.48163  0.63190  0.30194  Biso   1.000  C
  C23      1.0000 0.98163  0.86810  0.80194  Biso   1.000  C
  C24      1.0000 0.51837  0.36810  0.69806  Biso   1.000  C
  H5       1.0000 0.06950  0.06550  0.19810  Biso   1.000  H
  H6       1.0000 0.43050  0.56550  0.30190  Biso   1.000  H
  H7       1.0000 0.93050  0.93450  0.80190  Biso   1.000  H
  H8       1.0000 0.56950  0.43450  0.69810  Biso   1.000  H
  C25      1.0000 0.17600  0.92690  0.46433  Biso   1.000  C
  C26      1.0000 0.32400  0.42690  0.03567  Biso   1.000  C
  C27      1.0000 0.82400  0.07310  0.53567  Biso   1.000  C
  C28      1.0000 0.67600  0.57310  0.96433  Biso   1.000  C
  H9       1.0000 0.21880  0.00100  0.50330  Biso   1.000  H
  H10      1.0000 0.28120  0.50100  0.99670  Biso   1.000  H
  H11      1.0000 0.78120  0.99900  0.49670  Biso   1.000  H
  H12      1.0000 0.71880  0.49900  0.00330  Biso   1.000  H
  C29      1.0000 0.93470  0.69380  0.51173  Biso   1.000  C
  C30      1.0000 0.56530  0.19380  0.98827  Biso   1.000  C
  C31      1.0000 0.06530  0.30620  0.48827  Biso   1.000  C
  C32      1.0000 0.43470  0.80620  0.01173  Biso   1.000  C
  H13      1.0000 0.97640  0.75250  0.55970  Biso   1.000  H
  H14      1.0000 0.52360  0.25250  0.94030  Biso   1.000  H
  H15      1.0000 0.02360  0.24750  0.44030  Biso   1.000  H
  H16      1.0000 0.47640  0.74750  0.05970  Biso   1.000  H
  C33      1.0000 0.96668  0.23060  0.12595  Biso   1.000  C
  C34      1.0000 0.53332  0.73060  0.37405  Biso   1.000  C
  C35      1.0000 0.03332  0.76940  0.87405  Biso   1.000  C
  C36      1.0000 0.46668  0.26940  0.62595  Biso   1.000  C
  C37      1.0000 0.09982  0.86290  0.48218  Biso   1.000  C
  C38      1.0000 0.40018  0.36290  0.01782  Biso   1.000  C
  C39      1.0000 0.90018  0.13710  0.51782  Biso   1.000  C
  C40      1.0000 0.59982  0.63710  0.98218  Biso   1.000  C
  H17      1.0000 0.09080  0.89230  0.53340  Biso   1.000  H
  H18      1.0000 0.40920  0.39230  0.96660  Biso   1.000  H
  H19      1.0000 0.90920  0.10770  0.46660  Biso   1.000  H
  H20      1.0000 0.59080  0.60770  0.03340  Biso   1.000  H
  C41      1.0000 0.99090  0.13670  0.26840  Biso   1.000  C
  C42      1.0000 0.50910  0.63670  0.23160  Biso   1.000  C
  C43      1.0000 0.00910  0.86330  0.73160  Biso   1.000  C
  C44      1.0000 0.49090  0.36330  0.76840  Biso   1.000  C
  H21      1.0000 0.02560  0.07300  0.31740  Biso   1.000  H
  H22      1.0000 0.47440  0.57300  0.18260  Biso   1.000  H
  H23      1.0000 0.97440  0.92700  0.68260  Biso   1.000  H
  H24      1.0000 0.52560  0.42700  0.81740  Biso   1.000  H
  C45      1.0000 0.05635  0.71050  0.34844  Biso   1.000  C
  C46      1.0000 0.44365  0.21050  0.15156  Biso   1.000  C
  C47      1.0000 0.94365  0.28950  0.65156  Biso   1.000  C
  C48      1.0000 0.55635  0.78950  0.84844  Biso   1.000  C
  H25      1.0000 0.01570  0.63410  0.30930  Biso   1.000  H
  H26      1.0000 0.48430  0.13410  0.19070  Biso   1.000  H
  H27      1.0000 0.98430  0.36590  0.69070  Biso   1.000  H
  H28      1.0000 0.51570  0.86590  0.80930  Biso   1.000  H
  C49      1.0000 0.85290  0.61820  0.51420  Biso   1.000  C
  C50      1.0000 0.64710  0.11820  0.98580  Biso   1.000  C
  C51      1.0000 0.14710  0.38180  0.48580  Biso   1.000  C
  C52      1.0000 0.35290  0.88180  0.01420  Biso   1.000  C
  H29      1.0000 0.83860  0.63070  0.56440  Biso   1.000  H
  H30      1.0000 0.66140  0.13070  0.93560  Biso   1.000  H
  H31      1.0000 0.16140  0.36930  0.43560  Biso   1.000  H
  H32      1.0000 0.33860  0.86930  0.06440  Biso   1.000  H
  C53      1.0000 0.99181  0.23840  0.04685  Biso   1.000  C
  C54      1.0000 0.50819  0.73840  0.45315  Biso   1.000  C
  C55      1.0000 0.00819  0.76160  0.95315  Biso   1.000  C
  C56      1.0000 0.49181  0.26160  0.54685  Biso   1.000  C
  C57      1.0000 0.92595  0.28950  0.96723  Biso   1.000  C
  C58      1.0000 0.57405  0.78950  0.53277  Biso   1.000  C
  C59      1.0000 0.07405  0.71050  0.03277  Biso   1.000  C
  C60      1.0000 0.42595  0.21050  0.46723  Biso   1.000  C
  H33      1.0000 0.86520  0.32000  0.96490  Biso   1.000  H
  H34      1.0000 0.63480  0.82000  0.53510  Biso   1.000  H
  H35      1.0000 0.13480  0.68000  0.03510  Biso   1.000  H
  H36      1.0000 0.36520  0.18000  0.46490  Biso   1.000  H
  C61      1.0000 0.08230  0.19140  0.05000  Biso   1.000  C
  C62      1.0000 0.41770  0.69140  0.45000  Biso   1.000  C
  C63      1.0000 0.91770  0.80860  0.95000  Biso   1.000  C
  C64      1.0000 0.58230  0.30860  0.55000  Biso   1.000  C
  H37      1.0000 0.12870  0.15480  0.10210  Biso   1.000  H
  H38      1.0000 0.37130  0.65480  0.39790  Biso   1.000  H
  H39      1.0000 0.87130  0.84520  0.89790  Biso   1.000  H
  H40      1.0000 0.62870  0.34520  0.60210  Biso   1.000  H
  C65      1.0000 0.10170  0.20020  0.97418  Biso   1.000  C
  C66      1.0000 0.39830  0.70020  0.52582  Biso   1.000  C
  C67      1.0000 0.89830  0.79980  0.02582  Biso   1.000  C
  C68      1.0000 0.60170  0.29980  0.47418  Biso   1.000  C
  H41      1.0000 0.16140  0.16850  0.97420  Biso   1.000  H
  H42      1.0000 0.33860  0.66850  0.52580  Biso   1.000  H
  H43      1.0000 0.83860  0.83150  0.02580  Biso   1.000  H
  H44      1.0000 0.66140  0.33150  0.47420  Biso   1.000  H
  C69      1.0000 0.03189  0.25630  0.89911  Biso   1.000  C
  C70      1.0000 0.46811  0.75630  0.60089  Biso   1.000  C
  C71      1.0000 0.96811  0.74370  0.10089  Biso   1.000  C
  C72      1.0000 0.53189  0.24370  0.39911  Biso   1.000  C
  H45      1.0000 0.04670  0.26610  0.84900  Biso   1.000  H
  H46      1.0000 0.45330  0.76610  0.65100  Biso   1.000  H
  H47      1.0000 0.95330  0.73390  0.15100  Biso   1.000  H
  H48      1.0000 0.54670  0.23390  0.34900  Biso   1.000  H
  N21      1.0000 0.94340  0.29810  0.89342  Biso   1.000  N
  N22      1.0000 0.55660  0.79810  0.60658  Biso   1.000  N
  N23      1.0000 0.05660  0.70190  0.10658  Biso   1.000  N
  N24      1.0000 0.44340  0.20190  0.39342  Biso   1.000  N
