data_image0
_cell_length_a       7.799
_cell_length_b       15.862
_cell_length_c       11.225
_cell_angle_alpha    90
_cell_angle_beta     96.11
_cell_angle_gamma    90

_symmetry_space_group_name_H-M    "P 1"
_symmetry_int_tables_number       1

loop_
  _symmetry_equiv_pos_as_xyz
  'x, y, z'

loop_
  _atom_site_label
  _atom_site_occupancy
  _atom_site_fract_x
  _atom_site_fract_y
  _atom_site_fract_z
  _atom_site_thermal_displace_type
  _atom_site_B_iso_or_equiv
  _atom_site_type_symbol
  Cu1      1.0000 0.32309  0.19576  0.55033  Biso   1.000  Cu
  Cu2      1.0000 0.17691  0.69576  0.94967  Biso   1.000  Cu
  Cu3      1.0000 0.67691  0.80424  0.44967  Biso   1.000  Cu
  Cu4      1.0000 0.82309  0.30424  0.05033  Biso   1.000  Cu
  P1       1.0000 0.93580  0.09720  0.72950  Biso   1.000  P
  P2       1.0000 0.56420  0.59720  0.77050  Biso   1.000  P
  P3       1.0000 0.06420  0.90280  0.27050  Biso   1.000  P
  P4       1.0000 0.43580  0.40280  0.22950  Biso   1.000  P
  F1       1.0000 0.78560  0.15120  0.66650  Biso   1.000  F
  F2       1.0000 0.71440  0.65120  0.83350  Biso   1.000  F
  F3       1.0000 0.21440  0.84880  0.33350  Biso   1.000  F
  F4       1.0000 0.28560  0.34880  0.16650  Biso   1.000  F
  F5       1.0000 0.04700  0.12300  0.63300  Biso   1.000  F
  F6       1.0000 0.45300  0.62300  0.86700  Biso   1.000  F
  F7       1.0000 0.95300  0.87700  0.36700  Biso   1.000  F
  F8       1.0000 0.54700  0.37700  0.13300  Biso   1.000  F
  F9       1.0000 0.07800  0.15900  0.69900  Biso   1.000  F
  F10      1.0000 0.42200  0.65900  0.80100  Biso   1.000  F
  F11      1.0000 0.92200  0.84100  0.30100  Biso   1.000  F
  F12      1.0000 0.57800  0.34100  0.19900  Biso   1.000  F
  F13      1.0000 0.99100  0.17810  0.80400  Biso   1.000  F
  F14      1.0000 0.50900  0.67810  0.69600  Biso   1.000  F
  F15      1.0000 0.00900  0.82190  0.19600  Biso   1.000  F
  F16      1.0000 0.49100  0.32190  0.30400  Biso   1.000  F
  F17      1.0000 0.89900  0.13500  0.83500  Biso   1.000  F
  F18      1.0000 0.60100  0.63500  0.66500  Biso   1.000  F
  F19      1.0000 0.10100  0.86500  0.16500  Biso   1.000  F
  F20      1.0000 0.39900  0.36500  0.33500  Biso   1.000  F
  F21      1.0000 0.08910  0.04590  0.79350  Biso   1.000  F
  F22      1.0000 0.41090  0.54590  0.70650  Biso   1.000  F
  F23      1.0000 0.91090  0.95410  0.20650  Biso   1.000  F
  F24      1.0000 0.58910  0.45410  0.29350  Biso   1.000  F
  F25      1.0000 0.83400  0.06750  0.83900  Biso   1.000  F
  F26      1.0000 0.66600  0.56750  0.66100  Biso   1.000  F
  F27      1.0000 0.16600  0.93250  0.16100  Biso   1.000  F
  F28      1.0000 0.33400  0.43250  0.33900  Biso   1.000  F
  F29      1.0000 0.77700  0.03700  0.71900  Biso   1.000  F
  F30      1.0000 0.72300  0.53700  0.78100  Biso   1.000  F
  F31      1.0000 0.22300  0.96300  0.28100  Biso   1.000  F
  F32      1.0000 0.27700  0.46300  0.21900  Biso   1.000  F
  F33      1.0000 0.88800  0.01480  0.66900  Biso   1.000  F
  F34      1.0000 0.61200  0.51480  0.83100  Biso   1.000  F
  F35      1.0000 0.11200  0.98520  0.33100  Biso   1.000  F
  F36      1.0000 0.38800  0.48520  0.16900  Biso   1.000  F
  F37      1.0000 0.94700  0.06500  0.58900  Biso   1.000  F
  F38      1.0000 0.55300  0.56500  0.91100  Biso   1.000  F
  F39      1.0000 0.05300  0.93500  0.41100  Biso   1.000  F
  F40      1.0000 0.44700  0.43500  0.08900  Biso   1.000  F
  N1       1.0000 0.15120  0.22500  0.41300  Biso   1.000  N
  N2       1.0000 0.34880  0.72500  0.08700  Biso   1.000  N
  N3       1.0000 0.84880  0.77500  0.58700  Biso   1.000  N
  N4       1.0000 0.65120  0.27500  0.91300  Biso   1.000  N
  N5       1.0000 0.44340  0.23720  0.70240  Biso   1.000  N
  N6       1.0000 0.05660  0.73720  0.79760  Biso   1.000  N
  N7       1.0000 0.55660  0.76280  0.29760  Biso   1.000  N
  N8       1.0000 0.94340  0.26280  0.20240  Biso   1.000  N
  N9       1.0000 0.92950  0.42070  0.01320  Biso   1.000  N
  N10      1.0000 0.57050  0.92070  0.48680  Biso   1.000  N
  N11      1.0000 0.07050  0.57930  0.98680  Biso   1.000  N
  N12      1.0000 0.42950  0.07930  0.51320  Biso   1.000  N
  C1       1.0000 0.04270  0.29100  0.40800  Biso   1.000  C
  C2       1.0000 0.45730  0.79100  0.09200  Biso   1.000  C
  C3       1.0000 0.95730  0.70900  0.59200  Biso   1.000  C
  C4       1.0000 0.54270  0.20900  0.90800  Biso   1.000  C
  C5       1.0000 0.44130  0.19150  0.80200  Biso   1.000  C
  C6       1.0000 0.05870  0.69150  0.69800  Biso   1.000  C
  C7       1.0000 0.55870  0.80850  0.19800  Biso   1.000  C
  C8       1.0000 0.94130  0.30850  0.30200  Biso   1.000  C
  C9       1.0000 0.54870  0.30440  0.70850  Biso   1.000  C
  C10      1.0000 0.95130  0.80440  0.79150  Biso   1.000  C
  C11      1.0000 0.45130  0.69560  0.29150  Biso   1.000  C
  C12      1.0000 0.04870  0.19560  0.20850  Biso   1.000  C
  C13      1.0000 0.14960  0.17740  0.31430  Biso   1.000  C
  C14      1.0000 0.35040  0.67740  0.18570  Biso   1.000  C
  C15      1.0000 0.85040  0.82260  0.68570  Biso   1.000  C
  C16      1.0000 0.64960  0.32260  0.81430  Biso   1.000  C
  C17      1.0000 0.04130  0.34660  0.51690  Biso   1.000  C
  C18      1.0000 0.45870  0.84660  0.98310  Biso   1.000  C
  C19      1.0000 0.95870  0.65340  0.48310  Biso   1.000  C
  C20      1.0000 0.54130  0.15340  0.01690  Biso   1.000  C
  C21      1.0000 0.55740  0.35690  0.59930  Biso   1.000  C
  C22      1.0000 0.94260  0.85690  0.90070  Biso   1.000  C
  C23      1.0000 0.44260  0.64310  0.40070  Biso   1.000  C
  C24      1.0000 0.05740  0.14310  0.09930  Biso   1.000  C
  C25      1.0000 0.06250  0.43160  0.94740  Biso   1.000  C
  C26      1.0000 0.43750  0.93160  0.55260  Biso   1.000  C
  C27      1.0000 0.93750  0.56840  0.05260  Biso   1.000  C
  C28      1.0000 0.56250  0.06840  0.44740  Biso   1.000  C
  C29      1.0000 0.87080  0.48850  0.06370  Biso   1.000  C
  C30      1.0000 0.62920  0.98850  0.43630  Biso   1.000  C
  C31      1.0000 0.12920  0.51150  0.93630  Biso   1.000  C
  C32      1.0000 0.37080  0.01150  0.56370  Biso   1.000  C
  C33      1.0000 0.13530  0.35660  0.88950  Biso   1.000  C
  C34      1.0000 0.36470  0.85660  0.61050  Biso   1.000  C
  C35      1.0000 0.86470  0.64340  0.11050  Biso   1.000  C
  C36      1.0000 0.63530  0.14340  0.38950  Biso   1.000  C
  H1       1.0000 0.36380  0.14280  0.79990  Biso   1.000  H
  H2       1.0000 0.13620  0.64280  0.70010  Biso   1.000  H
  H3       1.0000 0.63620  0.85720  0.20010  Biso   1.000  H
  H4       1.0000 0.86380  0.35720  0.29990  Biso   1.000  H
  H5       1.0000 0.22340  0.12730  0.31710  Biso   1.000  H
  H6       1.0000 0.27660  0.62730  0.18290  Biso   1.000  H
  H7       1.0000 0.77660  0.87270  0.68290  Biso   1.000  H
  H8       1.0000 0.72340  0.37270  0.81710  Biso   1.000  H
  H9       1.0000 0.96370  0.32260  0.57110  Biso   1.000  H
  H10      1.0000 0.53630  0.82260  0.92890  Biso   1.000  H
  H11      1.0000 0.03630  0.67740  0.42890  Biso   1.000  H
  H12      1.0000 0.46370  0.17740  0.07110  Biso   1.000  H
  H13      1.0000 0.15820  0.35040  0.55833  Biso   1.000  H
  H14      1.0000 0.34180  0.85040  0.94167  Biso   1.000  H
  H15      1.0000 0.84180  0.64960  0.44167  Biso   1.000  H
  H16      1.0000 0.65820  0.14960  0.05833  Biso   1.000  H
  H17      1.0000 0.00110  0.40310  0.49200  Biso   1.000  H
  H18      1.0000 0.49890  0.90310  0.00800  Biso   1.000  H
  H19      1.0000 0.99890  0.59690  0.50800  Biso   1.000  H
  H20      1.0000 0.50110  0.09690  0.99200  Biso   1.000  H
  H21      1.0000 0.58230  0.32080  0.53240  Biso   1.000  H
  H22      1.0000 0.91770  0.82080  0.96760  Biso   1.000  H
  H23      1.0000 0.41770  0.67920  0.46760  Biso   1.000  H
  H24      1.0000 0.08230  0.17920  0.03240  Biso   1.000  H
  H25      1.0000 0.44660  0.38540  0.57900  Biso   1.000  H
  H26      1.0000 0.05340  0.88540  0.92100  Biso   1.000  H
  H27      1.0000 0.55340  0.61460  0.42100  Biso   1.000  H
  H28      1.0000 0.94660  0.11460  0.07900  Biso   1.000  H
  H29      1.0000 0.64880  0.39910  0.61460  Biso   1.000  H
  H30      1.0000 0.85120  0.89910  0.88540  Biso   1.000  H
  H31      1.0000 0.35120  0.60090  0.38540  Biso   1.000  H
  H32      1.0000 0.14880  0.10090  0.11460  Biso   1.000  H
  H33      1.0000 0.77400  0.48170  0.11190  Biso   1.000  H
  H34      1.0000 0.72600  0.98170  0.38810  Biso   1.000  H
  H35      1.0000 0.22600  0.51830  0.88810  Biso   1.000  H
  H36      1.0000 0.27400  0.01830  0.61190  Biso   1.000  H
  H37      1.0000 0.20520  0.37550  0.82700  Biso   1.000  H
  H38      1.0000 0.29480  0.87550  0.67300  Biso   1.000  H
  H39      1.0000 0.79480  0.62450  0.17300  Biso   1.000  H
  H40      1.0000 0.70520  0.12450  0.32700  Biso   1.000  H
  H41      1.0000 0.20760  0.32420  0.95000  Biso   1.000  H
  H42      1.0000 0.29240  0.82420  0.55000  Biso   1.000  H
  H43      1.0000 0.79240  0.67580  0.05000  Biso   1.000  H
  H44      1.0000 0.70760  0.17580  0.45000  Biso   1.000  H
  H45      1.0000 0.04090  0.32100  0.85370  Biso   1.000  H
  H46      1.0000 0.45910  0.82100  0.64630  Biso   1.000  H
  H47      1.0000 0.95910  0.67900  0.14630  Biso   1.000  H
  H48      1.0000 0.54090  0.17900  0.35370  Biso   1.000  H
