data_image0
_cell_length_a       13.209
_cell_length_b       13.209
_cell_length_c       9.142
_cell_angle_alpha    90
_cell_angle_beta     90
_cell_angle_gamma    90

_symmetry_space_group_name_H-M    "P 1"
_symmetry_int_tables_number       1

loop_
  _symmetry_equiv_pos_as_xyz
  'x, y, z'

loop_
  _atom_site_label
  _atom_site_occupancy
  _atom_site_fract_x
  _atom_site_fract_y
  _atom_site_fract_z
  _atom_site_thermal_displace_type
  _atom_site_B_iso_or_equiv
  _atom_site_type_symbol
  Cu1      1.0000 0.00000  0.00000  0.00000  Biso   1.000  Cu
  Cu2      1.0000 0.50000  0.50000  0.50000  Biso   1.000  Cu
  Cu3      1.0000 0.50000  0.00000  0.25000  Biso   1.000  Cu
  Cu4      1.0000 0.00000  0.50000  0.75000  Biso   1.000  Cu
  N1       1.0000 0.14320  0.99600  0.10600  Biso   1.000  N
  N2       1.0000 0.00400  0.14320  0.89400  Biso   1.000  N
  N3       1.0000 0.85680  0.00400  0.10600  Biso   1.000  N
  N4       1.0000 0.99600  0.85680  0.89400  Biso   1.000  N
  N5       1.0000 0.35680  0.49600  0.60600  Biso   1.000  N
  N6       1.0000 0.49600  0.64320  0.39400  Biso   1.000  N
  N7       1.0000 0.64320  0.50400  0.60600  Biso   1.000  N
  N8       1.0000 0.50400  0.35680  0.39400  Biso   1.000  N
  N9       1.0000 0.34890  0.00150  0.17530  Biso   1.000  N
  N10      1.0000 0.99850  0.34890  0.82470  Biso   1.000  N
  N11      1.0000 0.65110  0.99850  0.17530  Biso   1.000  N
  N12      1.0000 0.00150  0.65110  0.82470  Biso   1.000  N
  N13      1.0000 0.15110  0.50150  0.67530  Biso   1.000  N
  N14      1.0000 0.50150  0.84890  0.32470  Biso   1.000  N
  N15      1.0000 0.84890  0.49850  0.67530  Biso   1.000  N
  N16      1.0000 0.49850  0.15110  0.32470  Biso   1.000  N
  C1       1.0000 0.17590  0.04510  0.22620  Biso   1.000  C
  C2       1.0000 0.95490  0.17590  0.77380  Biso   1.000  C
  C3       1.0000 0.82410  0.95490  0.22620  Biso   1.000  C
  C4       1.0000 0.04510  0.82410  0.77380  Biso   1.000  C
  C5       1.0000 0.32410  0.54510  0.72620  Biso   1.000  C
  C6       1.0000 0.54510  0.67590  0.27380  Biso   1.000  C
  C7       1.0000 0.67590  0.45490  0.72620  Biso   1.000  C
  C8       1.0000 0.45490  0.32410  0.27380  Biso   1.000  C
  C9       1.0000 0.27860  0.04640  0.25760  Biso   1.000  C
  C10      1.0000 0.95360  0.27860  0.74240  Biso   1.000  C
  C11      1.0000 0.72140  0.95360  0.25760  Biso   1.000  C
  C12      1.0000 0.04640  0.72140  0.74240  Biso   1.000  C
  C13      1.0000 0.22140  0.54640  0.75760  Biso   1.000  C
  C14      1.0000 0.54640  0.77860  0.24240  Biso   1.000  C
  C15      1.0000 0.77860  0.45360  0.75760  Biso   1.000  C
  C16      1.0000 0.45360  0.22140  0.24240  Biso   1.000  C
  C17      1.0000 0.31560  0.95040  0.05880  Biso   1.000  C
  C18      1.0000 0.04960  0.31560  0.94120  Biso   1.000  C
  C19      1.0000 0.68440  0.04960  0.05880  Biso   1.000  C
  C20      1.0000 0.95040  0.68440  0.94120  Biso   1.000  C
  C21      1.0000 0.18440  0.45040  0.55880  Biso   1.000  C
  C22      1.0000 0.45040  0.81560  0.44120  Biso   1.000  C
  C23      1.0000 0.81560  0.54960  0.55880  Biso   1.000  C
  C24      1.0000 0.54960  0.18440  0.44120  Biso   1.000  C
  C25      1.0000 0.21340  0.95000  0.02710  Biso   1.000  C
  C26      1.0000 0.05000  0.21340  0.97290  Biso   1.000  C
  C27      1.0000 0.78660  0.05000  0.02710  Biso   1.000  C
  C28      1.0000 0.95000  0.78660  0.97290  Biso   1.000  C
  C29      1.0000 0.28660  0.45000  0.52710  Biso   1.000  C
  C30      1.0000 0.45000  0.71340  0.47290  Biso   1.000  C
  C31      1.0000 0.71340  0.55000  0.52710  Biso   1.000  C
  C32      1.0000 0.55000  0.28660  0.47290  Biso   1.000  C
  C33      1.0000 0.10290  0.09460  0.32690  Biso   1.000  C
  C34      1.0000 0.90540  0.10290  0.67310  Biso   1.000  C
  C35      1.0000 0.89710  0.90540  0.32690  Biso   1.000  C
  C36      1.0000 0.09460  0.89710  0.67310  Biso   1.000  C
  C37      1.0000 0.39710  0.59460  0.82690  Biso   1.000  C
  C38      1.0000 0.59460  0.60290  0.17310  Biso   1.000  C
  C39      1.0000 0.60290  0.40540  0.82690  Biso   1.000  C
  C40      1.0000 0.40540  0.39710  0.17310  Biso   1.000  C
  C41      1.0000 0.38820  0.89450  0.96660  Biso   1.000  C
  C42      1.0000 0.10550  0.38820  0.03340  Biso   1.000  C
  C43      1.0000 0.61180  0.10550  0.96660  Biso   1.000  C
  C44      1.0000 0.89450  0.61180  0.03340  Biso   1.000  C
  C45      1.0000 0.11180  0.39450  0.46660  Biso   1.000  C
  C46      1.0000 0.39450  0.88820  0.53340  Biso   1.000  C
  C47      1.0000 0.88820  0.60550  0.46660  Biso   1.000  C
  C48      1.0000 0.60550  0.11180  0.53340  Biso   1.000  C
  H1       1.0000 0.30090  0.08240  0.34570  Biso   1.000  H
  H2       1.0000 0.91760  0.30090  0.65430  Biso   1.000  H
  H3       1.0000 0.69910  0.91760  0.34570  Biso   1.000  H
  H4       1.0000 0.08240  0.69910  0.65430  Biso   1.000  H
  H5       1.0000 0.19910  0.58240  0.84570  Biso   1.000  H
  H6       1.0000 0.58240  0.80090  0.15430  Biso   1.000  H
  H7       1.0000 0.80090  0.41760  0.84570  Biso   1.000  H
  H8       1.0000 0.41760  0.19910  0.15430  Biso   1.000  H
  H9       1.0000 0.19120  0.91280  0.94000  Biso   1.000  H
  H10      1.0000 0.08720  0.19120  0.06000  Biso   1.000  H
  H11      1.0000 0.80880  0.08720  0.94000  Biso   1.000  H
  H12      1.0000 0.91280  0.80880  0.06000  Biso   1.000  H
  H13      1.0000 0.30880  0.41280  0.44000  Biso   1.000  H
  H14      1.0000 0.41280  0.69120  0.56000  Biso   1.000  H
  H15      1.0000 0.69120  0.58720  0.44000  Biso   1.000  H
  H16      1.0000 0.58720  0.30880  0.56000  Biso   1.000  H
  H17      1.0000 0.07430  0.04390  0.39340  Biso   1.000  H
  H18      1.0000 0.95610  0.07430  0.60660  Biso   1.000  H
  H19      1.0000 0.92570  0.95610  0.39340  Biso   1.000  H
  H20      1.0000 0.04390  0.92570  0.60660  Biso   1.000  H
  H21      1.0000 0.42570  0.54390  0.89340  Biso   1.000  H
  H22      1.0000 0.54390  0.57430  0.10660  Biso   1.000  H
  H23      1.0000 0.57430  0.45610  0.89340  Biso   1.000  H
  H24      1.0000 0.45610  0.42570  0.10660  Biso   1.000  H
  H25      1.0000 0.04830  0.12580  0.26990  Biso   1.000  H
  H26      1.0000 0.87420  0.04830  0.73010  Biso   1.000  H
  H27      1.0000 0.95170  0.87420  0.26990  Biso   1.000  H
  H28      1.0000 0.12580  0.95170  0.73010  Biso   1.000  H
  H29      1.0000 0.45170  0.62580  0.76990  Biso   1.000  H
  H30      1.0000 0.62580  0.54830  0.23010  Biso   1.000  H
  H31      1.0000 0.54830  0.37420  0.76990  Biso   1.000  H
  H32      1.0000 0.37420  0.45170  0.23010  Biso   1.000  H
  H33      1.0000 0.13790  0.14690  0.38380  Biso   1.000  H
  H34      1.0000 0.85310  0.13790  0.61620  Biso   1.000  H
  H35      1.0000 0.86210  0.85310  0.38380  Biso   1.000  H
  H36      1.0000 0.14690  0.86210  0.61620  Biso   1.000  H
  H37      1.0000 0.36210  0.64690  0.88380  Biso   1.000  H
  H38      1.0000 0.64690  0.63790  0.11620  Biso   1.000  H
  H39      1.0000 0.63790  0.35310  0.88380  Biso   1.000  H
  H40      1.0000 0.35310  0.36210  0.11620  Biso   1.000  H
  H41      1.0000 0.35120  0.84890  0.90100  Biso   1.000  H
  H42      1.0000 0.15110  0.35120  0.09900  Biso   1.000  H
  H43      1.0000 0.64880  0.15110  0.90100  Biso   1.000  H
  H44      1.0000 0.84890  0.64880  0.09900  Biso   1.000  H
  H45      1.0000 0.14880  0.34890  0.40100  Biso   1.000  H
  H46      1.0000 0.34890  0.85120  0.59900  Biso   1.000  H
  H47      1.0000 0.85120  0.65110  0.40100  Biso   1.000  H
  H48      1.0000 0.65110  0.14880  0.59900  Biso   1.000  H
  H49      1.0000 0.43370  0.85480  0.02900  Biso   1.000  H
  H50      1.0000 0.14520  0.43370  0.97100  Biso   1.000  H
  H51      1.0000 0.56630  0.14520  0.02900  Biso   1.000  H
  H52      1.0000 0.85480  0.56630  0.97100  Biso   1.000  H
  H53      1.0000 0.06630  0.35480  0.52900  Biso   1.000  H
  H54      1.0000 0.35480  0.93370  0.47100  Biso   1.000  H
  H55      1.0000 0.93370  0.64520  0.52900  Biso   1.000  H
  H56      1.0000 0.64520  0.06630  0.47100  Biso   1.000  H
  H57      1.0000 0.42790  0.94260  0.90850  Biso   1.000  H
  H58      1.0000 0.05740  0.42790  0.09150  Biso   1.000  H
  H59      1.0000 0.57210  0.05740  0.90850  Biso   1.000  H
  H60      1.0000 0.94260  0.57210  0.09150  Biso   1.000  H
  H61      1.0000 0.07210  0.44260  0.40850  Biso   1.000  H
  H62      1.0000 0.44260  0.92790  0.59150  Biso   1.000  H
  H63      1.0000 0.92790  0.55740  0.40850  Biso   1.000  H
  H64      1.0000 0.55740  0.07210  0.59150  Biso   1.000  H
  P1       1.0000 0.31130  0.18870  0.75000  Biso   1.000  P
  P2       1.0000 0.81130  0.31130  0.25000  Biso   1.000  P
  P3       1.0000 0.68870  0.81130  0.75000  Biso   1.000  P
  P4       1.0000 0.18870  0.68870  0.25000  Biso   1.000  P
  F1       1.0000 0.22940  0.27060  0.75000  Biso   1.000  F
  F2       1.0000 0.72940  0.22940  0.25000  Biso   1.000  F
  F3       1.0000 0.77060  0.72940  0.75000  Biso   1.000  F
  F4       1.0000 0.27060  0.77060  0.25000  Biso   1.000  F
  F5       1.0000 0.19700  0.19900  0.71200  Biso   1.000  F
  F6       1.0000 0.80100  0.19700  0.28800  Biso   1.000  F
  F7       1.0000 0.80300  0.80100  0.71200  Biso   1.000  F
  F8       1.0000 0.19900  0.80300  0.28800  Biso   1.000  F
  F9       1.0000 0.30300  0.69900  0.21200  Biso   1.000  F
  F10      1.0000 0.69900  0.69700  0.78800  Biso   1.000  F
  F11      1.0000 0.69700  0.30100  0.21200  Biso   1.000  F
  F12      1.0000 0.30100  0.30300  0.78800  Biso   1.000  F
  F13      1.0000 0.39560  0.10440  0.75000  Biso   1.000  F
  F14      1.0000 0.89560  0.39560  0.25000  Biso   1.000  F
  F15      1.0000 0.60440  0.89560  0.75000  Biso   1.000  F
  F16      1.0000 0.10440  0.60440  0.25000  Biso   1.000  F
  F17      1.0000 0.42200  0.18600  0.79000  Biso   1.000  F
  F18      1.0000 0.81400  0.42200  0.21000  Biso   1.000  F
  F19      1.0000 0.57800  0.81400  0.79000  Biso   1.000  F
  F20      1.0000 0.18600  0.57800  0.21000  Biso   1.000  F
  F21      1.0000 0.07800  0.68600  0.29000  Biso   1.000  F
  F22      1.0000 0.68600  0.92200  0.71000  Biso   1.000  F
  F23      1.0000 0.92200  0.31400  0.29000  Biso   1.000  F
  F24      1.0000 0.31400  0.07800  0.71000  Biso   1.000  F
  F25      1.0000 0.23290  0.10400  0.73700  Biso   1.000  F
  F26      1.0000 0.89600  0.23290  0.26300  Biso   1.000  F
  F27      1.0000 0.76710  0.89600  0.73700  Biso   1.000  F
  F28      1.0000 0.10400  0.76710  0.26300  Biso   1.000  F
  F29      1.0000 0.26710  0.60400  0.23700  Biso   1.000  F
  F30      1.0000 0.60400  0.73290  0.76300  Biso   1.000  F
  F31      1.0000 0.73290  0.39600  0.23700  Biso   1.000  F
  F32      1.0000 0.39600  0.26710  0.76300  Biso   1.000  F
  F33      1.0000 0.29300  0.17340  0.91970  Biso   1.000  F
  F34      1.0000 0.82660  0.29300  0.08030  Biso   1.000  F
  F35      1.0000 0.70700  0.82660  0.91970  Biso   1.000  F
  F36      1.0000 0.17340  0.70700  0.08030  Biso   1.000  F
  F37      1.0000 0.20700  0.67340  0.41970  Biso   1.000  F
  F38      1.0000 0.67340  0.79300  0.58030  Biso   1.000  F
  F39      1.0000 0.79300  0.32660  0.41970  Biso   1.000  F
  F40      1.0000 0.32660  0.20700  0.58030  Biso   1.000  F
