data_image0
_cell_length_a       7.8383
_cell_length_b       9.4782
_cell_length_c       14.9216
_cell_angle_alpha    91.826
_cell_angle_beta     95.897
_cell_angle_gamma    103.056

_symmetry_space_group_name_H-M    "P 1"
_symmetry_int_tables_number       1

loop_
  _symmetry_equiv_pos_as_xyz
  'x, y, z'

loop_
  _atom_site_label
  _atom_site_occupancy
  _atom_site_fract_x
  _atom_site_fract_y
  _atom_site_fract_z
  _atom_site_thermal_displace_type
  _atom_site_B_iso_or_equiv
  _atom_site_type_symbol
  Cu1      1.0000 0.35551  0.07108  0.08697  Biso   1.000  Cu
  Cu2      1.0000 0.64449  0.92892  0.91303  Biso   1.000  Cu
  O1       1.0000 0.17800  0.19360  0.21326  Biso   1.000  O
  O2       1.0000 0.82200  0.80640  0.78674  Biso   1.000  O
  O3       1.0000 0.93310  0.26260  0.22499  Biso   1.000  O
  O4       1.0000 0.06690  0.73740  0.77501  Biso   1.000  O
  H1       1.0000 0.87880  0.27070  0.26850  Biso   1.000  H
  H2       1.0000 0.12120  0.72930  0.73150  Biso   1.000  H
  O5       1.0000 0.68800  0.95960  0.12496  Biso   1.000  O
  O6       1.0000 0.31200  0.04040  0.87504  Biso   1.000  O
  O7       1.0000 0.53420  0.02980  0.22724  Biso   1.000  O
  O8       1.0000 0.46580  0.97020  0.77276  Biso   1.000  O
  O9       1.0000 0.58640  0.74890  0.30028  Biso   1.000  O
  O10      1.0000 0.41360  0.25110  0.69972  Biso   1.000  O
  O11      1.0000 0.46430  0.88270  0.61538  Biso   1.000  O
  O12      1.0000 0.53570  0.11730  0.38462  Biso   1.000  O
  H3       1.0000 0.45730  0.90680  0.66800  Biso   1.000  H
  H4       1.0000 0.54270  0.09320  0.33200  Biso   1.000  H
  O13      1.0000 0.24910  0.69940  0.64452  Biso   1.000  O
  O14      1.0000 0.75090  0.30060  0.35548  Biso   1.000  O
  N1       1.0000 0.17810  0.89590  0.08170  Biso   1.000  N
  N2       1.0000 0.82190  0.10410  0.91830  Biso   1.000  N
  N3       1.0000 0.49890  0.26050  0.07734  Biso   1.000  N
  N4       1.0000 0.50110  0.73950  0.92266  Biso   1.000  N
  C1       1.0000 0.14930  0.82190  0.15590  Biso   1.000  C
  C2       1.0000 0.85070  0.17810  0.84410  Biso   1.000  C
  H5       1.0000 0.22310  0.85450  0.20890  Biso   1.000  H
  H6       1.0000 0.77690  0.14550  0.79110  Biso   1.000  H
  C3       1.0000 0.01500  0.69960  0.15720  Biso   1.000  C
  C4       1.0000 0.98500  0.30040  0.84280  Biso   1.000  C
  H7       1.0000 0.99980  0.65140  0.21020  Biso   1.000  H
  H8       1.0000 0.00020  0.34860  0.78980  Biso   1.000  H
  C5       1.0000 0.90240  0.64870  0.07881  Biso   1.000  C
  C6       1.0000 0.09760  0.35130  0.92119  Biso   1.000  C
  C7       1.0000 0.93370  0.72420  0.00220  Biso   1.000  C
  C8       1.0000 0.06630  0.27580  0.99780  Biso   1.000  C
  H9       1.0000 0.86310  0.69330  0.94800  Biso   1.000  H
  H10      1.0000 0.13690  0.30670  0.05200  Biso   1.000  H
  C9       1.0000 0.07060  0.84600  0.00670  Biso   1.000  C
  C10      1.0000 0.92940  0.15400  0.99330  Biso   1.000  C
  H11      1.0000 0.08870  0.89590  0.95460  Biso   1.000  H
  H12      1.0000 0.91130  0.10410  0.04540  Biso   1.000  H
  C11      1.0000 0.75790  0.51720  0.07727  Biso   1.000  C
  C12      1.0000 0.24210  0.48280  0.92273  Biso   1.000  C
  C13      1.0000 0.67990  0.47480  0.15430  Biso   1.000  C
  C14      1.0000 0.32010  0.52520  0.84570  Biso   1.000  C
  H13      1.0000 0.71320  0.53230  0.20760  Biso   1.000  H
  H14      1.0000 0.28680  0.46770  0.79240  Biso   1.000  H
  C15      1.0000 0.55290  0.34730  0.15160  Biso   1.000  C
  C16      1.0000 0.44710  0.65270  0.84840  Biso   1.000  C
  H15      1.0000 0.50250  0.32070  0.20410  Biso   1.000  H
  H16      1.0000 0.49750  0.67930  0.79590  Biso   1.000  H
  C17      1.0000 0.56770  0.30420  0.00120  Biso   1.000  C
  C18      1.0000 0.43230  0.69580  0.99880  Biso   1.000  C
  H17      1.0000 0.52700  0.24760  0.94790  Biso   1.000  H
  H18      1.0000 0.47300  0.75240  0.05210  Biso   1.000  H
  C19      1.0000 0.69590  0.42970  0.99920  Biso   1.000  C
  C20      1.0000 0.30410  0.57030  0.00080  Biso   1.000  C
  H19      1.0000 0.74110  0.45580  0.94530  Biso   1.000  H
  H20      1.0000 0.25890  0.54420  0.05470  Biso   1.000  H
  C21      1.0000 0.97050  0.04440  0.29490  Biso   1.000  C
  C22      1.0000 0.02950  0.95560  0.70510  Biso   1.000  C
  C23      1.0000 0.08840  0.00740  0.36040  Biso   1.000  C
  C24      1.0000 0.91160  0.99260  0.63960  Biso   1.000  C
  H21      1.0000 0.20330  0.06290  0.37070  Biso   1.000  H
  H22      1.0000 0.79670  0.93710  0.62930  Biso   1.000  H
  C25      1.0000 0.03650  0.88970  0.40980  Biso   1.000  C
  C26      1.0000 0.96350  0.11030  0.59020  Biso   1.000  C
  H23      1.0000 0.11490  0.86780  0.45540  Biso   1.000  H
  H24      1.0000 0.88510  0.13220  0.54460  Biso   1.000  H
  C27      1.0000 0.86790  0.80290  0.39250  Biso   1.000  C
  C28      1.0000 0.13210  0.19710  0.60750  Biso   1.000  C
  H25      1.0000 0.83410  0.72100  0.42500  Biso   1.000  H
  H26      1.0000 0.16590  0.27900  0.57500  Biso   1.000  H
  C29      1.0000 0.75170  0.83810  0.32750  Biso   1.000  C
  C30      1.0000 0.24830  0.16190  0.67250  Biso   1.000  C
  C31      1.0000 0.79830  0.95950  0.27755  Biso   1.000  C
  C32      1.0000 0.20170  0.04050  0.72245  Biso   1.000  C
  C33      1.0000 0.47870  0.68960  0.36420  Biso   1.000  C
  C34      1.0000 0.52130  0.31040  0.63580  Biso   1.000  C
  C35      1.0000 0.47980  0.75690  0.44690  Biso   1.000  C
  C36      1.0000 0.52020  0.24310  0.55310  Biso   1.000  C
  H27      1.0000 0.55810  0.84530  0.46390  Biso   1.000  H
  H28      1.0000 0.44190  0.15470  0.53610  Biso   1.000  H
  C37      1.0000 0.36260  0.69120  0.50490  Biso   1.000  C
  C38      1.0000 0.63740  0.30880  0.49510  Biso   1.000  C
  C39      1.0000 0.24490  0.56100  0.47810  Biso   1.000  C
  C40      1.0000 0.75510  0.43900  0.52190  Biso   1.000  C
  H29      1.0000 0.16600  0.51700  0.51700  Biso   1.000  H
  H30      1.0000 0.83400  0.48300  0.48300  Biso   1.000  H
  C41      1.0000 0.24380  0.49640  0.39460  Biso   1.000  C
  C42      1.0000 0.75620  0.50360  0.60540  Biso   1.000  C
  H31      1.0000 0.16380  0.40920  0.37670  Biso   1.000  H
  H32      1.0000 0.83620  0.59080  0.62330  Biso   1.000  H
  C43      1.0000 0.36120  0.56060  0.33700  Biso   1.000  C
  C44      1.0000 0.63880  0.43940  0.66300  Biso   1.000  C
  H33      1.0000 0.36100  0.51710  0.28020  Biso   1.000  H
  H34      1.0000 0.63900  0.48290  0.71980  Biso   1.000  H
  C45      1.0000 0.03630  0.17200  0.24140  Biso   1.000  C
  C46      1.0000 0.96370  0.82800  0.75860  Biso   1.000  C
  C47      1.0000 0.66610  0.98480  0.20320  Biso   1.000  C
  C48      1.0000 0.33390  0.01520  0.79680  Biso   1.000  C
  C49      1.0000 0.35520  0.76030  0.59530  Biso   1.000  C
  C50      1.0000 0.64480  0.23970  0.40470  Biso   1.000  C
