data_image0
_cell_length_a       25.703
_cell_length_b       9.3679
_cell_length_c       20.005
_cell_angle_alpha    90
_cell_angle_beta     111.58
_cell_angle_gamma    90

_symmetry_space_group_name_H-M    "P 1"
_symmetry_int_tables_number       1

loop_
  _symmetry_equiv_pos_as_xyz
  'x, y, z'

loop_
  _atom_site_label
  _atom_site_occupancy
  _atom_site_fract_x
  _atom_site_fract_y
  _atom_site_fract_z
  _atom_site_thermal_displace_type
  _atom_site_B_iso_or_equiv
  _atom_site_type_symbol
  Br1      1.0000 0.03746  0.86892  0.08505  Biso   1.000  Br
  Br2      1.0000 0.96253  0.86892  0.41495  Biso   1.000  Br
  Br3      1.0000 0.53746  0.36892  0.08505  Biso   1.000  Br
  Br4      1.0000 0.46254  0.36892  0.41495  Biso   1.000  Br
  Br5      1.0000 0.96253  0.13108  0.91495  Biso   1.000  Br
  Br6      1.0000 0.03746  0.13108  0.58505  Biso   1.000  Br
  Br7      1.0000 0.46254  0.63108  0.91495  Biso   1.000  Br
  Br8      1.0000 0.53746  0.63108  0.58505  Biso   1.000  Br
  Cu1      1.0000 0.04528  0.10762  0.03058  Biso   1.000  Cu
  Cu2      1.0000 0.95472  0.10762  0.46942  Biso   1.000  Cu
  Cu3      1.0000 0.54528  0.60762  0.03058  Biso   1.000  Cu
  Cu4      1.0000 0.45472  0.60762  0.46942  Biso   1.000  Cu
  Cu5      1.0000 0.95472  0.89238  0.96942  Biso   1.000  Cu
  Cu6      1.0000 0.04528  0.89238  0.53058  Biso   1.000  Cu
  Cu7      1.0000 0.45472  0.39238  0.96942  Biso   1.000  Cu
  Cu8      1.0000 0.54528  0.39238  0.53058  Biso   1.000  Cu
  P1       1.0000 0.12847  0.14974  0.02434  Biso   1.000  P
  P2       1.0000 0.87153  0.14974  0.47566  Biso   1.000  P
  P3       1.0000 0.62847  0.64974  0.02434  Biso   1.000  P
  P4       1.0000 0.37153  0.64974  0.47566  Biso   1.000  P
  P5       1.0000 0.87153  0.85026  0.97566  Biso   1.000  P
  P6       1.0000 0.12847  0.85026  0.52434  Biso   1.000  P
  P7       1.0000 0.37153  0.35026  0.97566  Biso   1.000  P
  P8       1.0000 0.62847  0.35026  0.52434  Biso   1.000  P
  N1       1.0000 0.02809  0.24870  0.09919  Biso   1.000  N
  N2       1.0000 0.97191  0.24870  0.40081  Biso   1.000  N
  N3       1.0000 0.52809  0.74870  0.09919  Biso   1.000  N
  N4       1.0000 0.47191  0.74870  0.40081  Biso   1.000  N
  N5       1.0000 0.97191  0.75130  0.90081  Biso   1.000  N
  N6       1.0000 0.02809  0.75130  0.59919  Biso   1.000  N
  N7       1.0000 0.47191  0.25130  0.90081  Biso   1.000  N
  N8       1.0000 0.52809  0.25130  0.59919  Biso   1.000  N
  C1       1.0000 0.05533  0.23130  0.16946  Biso   1.000  C
  C2       1.0000 0.94467  0.23130  0.33054  Biso   1.000  C
  C3       1.0000 0.55533  0.73130  0.16946  Biso   1.000  C
  C4       1.0000 0.44467  0.73130  0.33054  Biso   1.000  C
  C5       1.0000 0.94467  0.76870  0.83054  Biso   1.000  C
  C6       1.0000 0.05533  0.76870  0.66946  Biso   1.000  C
  C7       1.0000 0.44467  0.26870  0.83054  Biso   1.000  C
  C8       1.0000 0.55533  0.26870  0.66946  Biso   1.000  C
  H1       1.0000 0.07060  0.14200  0.18570  Biso   1.000  H
  H2       1.0000 0.92940  0.14200  0.31430  Biso   1.000  H
  H3       1.0000 0.57060  0.64200  0.18570  Biso   1.000  H
  H4       1.0000 0.42940  0.64200  0.31430  Biso   1.000  H
  H5       1.0000 0.92940  0.85800  0.81430  Biso   1.000  H
  H6       1.0000 0.07060  0.85800  0.68570  Biso   1.000  H
  H7       1.0000 0.42940  0.35800  0.81430  Biso   1.000  H
  H8       1.0000 0.57060  0.35800  0.68570  Biso   1.000  H
  C9       1.0000 0.00515  0.37700  0.07940  Biso   1.000  C
  C10      1.0000 0.99485  0.37700  0.42060  Biso   1.000  C
  C11      1.0000 0.50515  0.87700  0.07940  Biso   1.000  C
  C12      1.0000 0.49485  0.87700  0.42060  Biso   1.000  C
  C13      1.0000 0.99485  0.62300  0.92060  Biso   1.000  C
  C14      1.0000 0.00515  0.62300  0.57940  Biso   1.000  C
  C15      1.0000 0.49485  0.12300  0.92060  Biso   1.000  C
  C16      1.0000 0.50515  0.12300  0.57940  Biso   1.000  C
  H9       1.0000 0.98460  0.39210  0.03080  Biso   1.000  H
  H10      1.0000 0.01540  0.39210  0.46920  Biso   1.000  H
  H11      1.0000 0.48460  0.89210  0.03080  Biso   1.000  H
  H12      1.0000 0.51540  0.89210  0.46920  Biso   1.000  H
  H13      1.0000 0.01540  0.60790  0.96920  Biso   1.000  H
  H14      1.0000 0.98460  0.60790  0.53080  Biso   1.000  H
  H15      1.0000 0.51540  0.10790  0.96920  Biso   1.000  H
  H16      1.0000 0.48460  0.10790  0.53080  Biso   1.000  H
  C17      1.0000 0.06232  0.33740  0.21970  Biso   1.000  C
  C18      1.0000 0.93768  0.33740  0.28030  Biso   1.000  C
  C19      1.0000 0.56232  0.83740  0.21970  Biso   1.000  C
  C20      1.0000 0.43768  0.83740  0.28030  Biso   1.000  C
  C21      1.0000 0.93768  0.66260  0.78030  Biso   1.000  C
  C22      1.0000 0.06232  0.66260  0.71970  Biso   1.000  C
  C23      1.0000 0.43768  0.16260  0.78030  Biso   1.000  C
  C24      1.0000 0.56232  0.16260  0.71970  Biso   1.000  C
  H17      1.0000 0.08200  0.31860  0.26810  Biso   1.000  H
  H18      1.0000 0.91800  0.31860  0.23190  Biso   1.000  H
  H19      1.0000 0.58200  0.81860  0.26810  Biso   1.000  H
  H20      1.0000 0.41800  0.81860  0.23190  Biso   1.000  H
  H21      1.0000 0.91800  0.68140  0.73190  Biso   1.000  H
  H22      1.0000 0.08200  0.68140  0.76810  Biso   1.000  H
  H23      1.0000 0.41800  0.18140  0.73190  Biso   1.000  H
  H24      1.0000 0.58200  0.18140  0.76810  Biso   1.000  H
  C25      1.0000 0.00981  0.48790  0.12585  Biso   1.000  C
  C26      1.0000 0.99019  0.48790  0.37415  Biso   1.000  C
  C27      1.0000 0.50981  0.98790  0.12585  Biso   1.000  C
  C28      1.0000 0.49019  0.98790  0.37415  Biso   1.000  C
  C29      1.0000 0.99019  0.51210  0.87415  Biso   1.000  C
  C30      1.0000 0.00981  0.51210  0.62585  Biso   1.000  C
  C31      1.0000 0.49019  0.01210  0.87415  Biso   1.000  C
  C32      1.0000 0.50981  0.01210  0.62585  Biso   1.000  C
  H25      1.0000 0.99250  0.57460  0.10850  Biso   1.000  H
  H26      1.0000 0.00750  0.57460  0.39150  Biso   1.000  H
  H27      1.0000 0.49250  0.07460  0.10850  Biso   1.000  H
  H28      1.0000 0.50750  0.07460  0.39150  Biso   1.000  H
  H29      1.0000 0.00750  0.42540  0.89150  Biso   1.000  H
  H30      1.0000 0.99250  0.42540  0.60850  Biso   1.000  H
  H31      1.0000 0.50750  0.92540  0.89150  Biso   1.000  H
  H32      1.0000 0.49250  0.92540  0.60850  Biso   1.000  H
  C33      1.0000 0.04018  0.47120  0.19846  Biso   1.000  C
  C34      1.0000 0.95982  0.47120  0.30154  Biso   1.000  C
  C35      1.0000 0.54018  0.97120  0.19846  Biso   1.000  C
  C36      1.0000 0.45982  0.97120  0.30154  Biso   1.000  C
  C37      1.0000 0.95982  0.52880  0.80154  Biso   1.000  C
  C38      1.0000 0.04018  0.52880  0.69846  Biso   1.000  C
  C39      1.0000 0.45982  0.02880  0.80154  Biso   1.000  C
  C40      1.0000 0.54018  0.02880  0.69846  Biso   1.000  C
  C41      1.0000 0.05047  0.58950  0.25250  Biso   1.000  C
  C42      1.0000 0.94953  0.58950  0.24750  Biso   1.000  C
  C43      1.0000 0.55047  0.08950  0.25250  Biso   1.000  C
  C44      1.0000 0.44953  0.08950  0.24750  Biso   1.000  C
  C45      1.0000 0.94953  0.41050  0.74750  Biso   1.000  C
  C46      1.0000 0.05047  0.41050  0.75250  Biso   1.000  C
  C47      1.0000 0.44953  0.91050  0.74750  Biso   1.000  C
  C48      1.0000 0.55047  0.91050  0.75250  Biso   1.000  C
  H33      1.0000 0.07780  0.65410  0.24620  Biso   1.000  H
  H34      1.0000 0.92220  0.65410  0.25380  Biso   1.000  H
  H35      1.0000 0.57780  0.15410  0.24620  Biso   1.000  H
  H36      1.0000 0.42220  0.15410  0.25380  Biso   1.000  H
  H37      1.0000 0.92220  0.34590  0.75380  Biso   1.000  H
  H38      1.0000 0.07780  0.34590  0.74620  Biso   1.000  H
  H39      1.0000 0.42220  0.84590  0.75380  Biso   1.000  H
  H40      1.0000 0.57780  0.84590  0.74620  Biso   1.000  H
  H41      1.0000 0.06720  0.54820  0.30020  Biso   1.000  H
  H42      1.0000 0.93280  0.54820  0.19980  Biso   1.000  H
  H43      1.0000 0.56720  0.04820  0.30020  Biso   1.000  H
  H44      1.0000 0.43280  0.04820  0.19980  Biso   1.000  H
  H45      1.0000 0.93280  0.45180  0.69980  Biso   1.000  H
  H46      1.0000 0.06720  0.45180  0.80020  Biso   1.000  H
  H47      1.0000 0.43280  0.95180  0.69980  Biso   1.000  H
  H48      1.0000 0.56720  0.95180  0.80020  Biso   1.000  H
  C49      1.0000 0.00000  0.67660  0.25000  Biso   1.000  C
  C50      1.0000 0.50000  0.17660  0.25000  Biso   1.000  C
  C51      1.0000 0.00000  0.32340  0.75000  Biso   1.000  C
  C52      1.0000 0.50000  0.82340  0.75000  Biso   1.000  C
  H49      1.0000 0.01090  0.73780  0.29200  Biso   1.000  H
  H50      1.0000 0.98910  0.73780  0.20800  Biso   1.000  H
  H51      1.0000 0.51090  0.23780  0.29200  Biso   1.000  H
  H52      1.0000 0.48910  0.23780  0.20800  Biso   1.000  H
  H53      1.0000 0.98910  0.26220  0.70800  Biso   1.000  H
  H54      1.0000 0.01090  0.26220  0.79200  Biso   1.000  H
  H55      1.0000 0.48910  0.76220  0.70800  Biso   1.000  H
  H56      1.0000 0.51090  0.76220  0.79200  Biso   1.000  H
  C53      1.0000 0.13901  0.33980  0.01233  Biso   1.000  C
  C54      1.0000 0.86099  0.33980  0.48767  Biso   1.000  C
  C55      1.0000 0.63901  0.83980  0.01233  Biso   1.000  C
  C56      1.0000 0.36099  0.83980  0.48767  Biso   1.000  C
  C57      1.0000 0.86099  0.66020  0.98767  Biso   1.000  C
  C58      1.0000 0.13901  0.66020  0.51233  Biso   1.000  C
  C59      1.0000 0.36099  0.16020  0.98767  Biso   1.000  C
  C60      1.0000 0.63901  0.16020  0.51233  Biso   1.000  C
  C61      1.0000 0.15024  0.39530  0.95480  Biso   1.000  C
  C62      1.0000 0.84976  0.39530  0.54520  Biso   1.000  C
  C63      1.0000 0.65024  0.89530  0.95480  Biso   1.000  C
  C64      1.0000 0.34976  0.89530  0.54520  Biso   1.000  C
  C65      1.0000 0.84976  0.60470  0.04520  Biso   1.000  C
  C66      1.0000 0.15024  0.60470  0.45480  Biso   1.000  C
  C67      1.0000 0.34976  0.10470  0.04520  Biso   1.000  C
  C68      1.0000 0.65024  0.10470  0.45480  Biso   1.000  C
  H57      1.0000 0.15470  0.33400  0.92070  Biso   1.000  H
  H58      1.0000 0.84530  0.33400  0.57930  Biso   1.000  H
  H59      1.0000 0.65470  0.83400  0.92070  Biso   1.000  H
  H60      1.0000 0.34530  0.83400  0.57930  Biso   1.000  H
  H61      1.0000 0.84530  0.66600  0.07930  Biso   1.000  H
  H62      1.0000 0.15470  0.66600  0.42070  Biso   1.000  H
  H63      1.0000 0.34530  0.16600  0.07930  Biso   1.000  H
  H64      1.0000 0.65470  0.16600  0.42070  Biso   1.000  H
  C69      1.0000 0.13194  0.43500  0.06180  Biso   1.000  C
  C70      1.0000 0.86806  0.43500  0.43820  Biso   1.000  C
  C71      1.0000 0.63194  0.93500  0.06180  Biso   1.000  C
  C72      1.0000 0.36806  0.93500  0.43820  Biso   1.000  C
  C73      1.0000 0.86806  0.56500  0.93820  Biso   1.000  C
  C74      1.0000 0.13194  0.56500  0.56180  Biso   1.000  C
  C75      1.0000 0.36806  0.06500  0.93820  Biso   1.000  C
  C76      1.0000 0.63194  0.06500  0.56180  Biso   1.000  C
  H65      1.0000 0.12420  0.40000  0.10070  Biso   1.000  H
  H66      1.0000 0.87580  0.40000  0.39930  Biso   1.000  H
  H67      1.0000 0.62420  0.90000  0.10070  Biso   1.000  H
  H68      1.0000 0.37580  0.90000  0.39930  Biso   1.000  H
  H69      1.0000 0.87580  0.60000  0.89930  Biso   1.000  H
  H70      1.0000 0.12420  0.60000  0.60070  Biso   1.000  H
  H71      1.0000 0.37580  0.10000  0.89930  Biso   1.000  H
  H72      1.0000 0.62420  0.10000  0.60070  Biso   1.000  H
  C77      1.0000 0.15479  0.54170  0.94770  Biso   1.000  C
  C78      1.0000 0.84521  0.54170  0.55230  Biso   1.000  C
  C79      1.0000 0.65479  0.04170  0.94770  Biso   1.000  C
  C80      1.0000 0.34521  0.04170  0.55230  Biso   1.000  C
  C81      1.0000 0.84521  0.45830  0.05230  Biso   1.000  C
  C82      1.0000 0.15479  0.45830  0.44770  Biso   1.000  C
  C83      1.0000 0.34521  0.95830  0.05230  Biso   1.000  C
  C84      1.0000 0.65479  0.95830  0.44770  Biso   1.000  C
  H73      1.0000 0.16300  0.57770  0.90940  Biso   1.000  H
  H74      1.0000 0.83700  0.57770  0.59060  Biso   1.000  H
  H75      1.0000 0.66300  0.07770  0.90940  Biso   1.000  H
  H76      1.0000 0.33700  0.07770  0.59060  Biso   1.000  H
  H77      1.0000 0.83700  0.42230  0.09060  Biso   1.000  H
  H78      1.0000 0.16300  0.42230  0.40940  Biso   1.000  H
  H79      1.0000 0.33700  0.92230  0.09060  Biso   1.000  H
  H80      1.0000 0.66300  0.92230  0.40940  Biso   1.000  H
  C85      1.0000 0.13618  0.58080  0.05390  Biso   1.000  C
  C86      1.0000 0.86382  0.58080  0.44610  Biso   1.000  C
  C87      1.0000 0.63618  0.08080  0.05390  Biso   1.000  C
  C88      1.0000 0.36382  0.08080  0.44610  Biso   1.000  C
  C89      1.0000 0.86382  0.41920  0.94610  Biso   1.000  C
  C90      1.0000 0.13618  0.41920  0.55390  Biso   1.000  C
  C91      1.0000 0.36382  0.91920  0.94610  Biso   1.000  C
  C92      1.0000 0.63618  0.91920  0.55390  Biso   1.000  C
  H81      1.0000 0.13150  0.64310  0.08750  Biso   1.000  H
  H82      1.0000 0.86850  0.64310  0.41250  Biso   1.000  H
  H83      1.0000 0.63150  0.14310  0.08750  Biso   1.000  H
  H84      1.0000 0.36850  0.14310  0.41250  Biso   1.000  H
  H85      1.0000 0.86850  0.35690  0.91250  Biso   1.000  H
  H86      1.0000 0.13150  0.35690  0.58750  Biso   1.000  H
  H87      1.0000 0.36850  0.85690  0.91250  Biso   1.000  H
  H88      1.0000 0.63150  0.85690  0.58750  Biso   1.000  H
  C93      1.0000 0.14731  0.63350  0.99650  Biso   1.000  C
  C94      1.0000 0.85269  0.63350  0.50350  Biso   1.000  C
  C95      1.0000 0.64731  0.13350  0.99650  Biso   1.000  C
  C96      1.0000 0.35269  0.13350  0.50350  Biso   1.000  C
  C97      1.0000 0.85269  0.36650  0.00350  Biso   1.000  C
  C98      1.0000 0.14731  0.36650  0.49650  Biso   1.000  C
  C99      1.0000 0.35269  0.86650  0.00350  Biso   1.000  C
  C100     1.0000 0.64731  0.86650  0.49650  Biso   1.000  C
  H89      1.0000 0.14980  0.73160  0.99090  Biso   1.000  H
  H90      1.0000 0.85020  0.73160  0.50910  Biso   1.000  H
  H91      1.0000 0.64980  0.23160  0.99090  Biso   1.000  H
  H92      1.0000 0.35020  0.23160  0.50910  Biso   1.000  H
  H93      1.0000 0.85020  0.26840  0.00910  Biso   1.000  H
  H94      1.0000 0.14980  0.26840  0.49090  Biso   1.000  H
  H95      1.0000 0.35020  0.76840  0.00910  Biso   1.000  H
  H96      1.0000 0.64980  0.76840  0.49090  Biso   1.000  H
  C101     1.0000 0.19053  0.10270  0.10280  Biso   1.000  C
  C102     1.0000 0.80947  0.10270  0.39720  Biso   1.000  C
  C103     1.0000 0.69053  0.60270  0.10280  Biso   1.000  C
  C104     1.0000 0.30947  0.60270  0.39720  Biso   1.000  C
  C105     1.0000 0.80947  0.89730  0.89720  Biso   1.000  C
  C106     1.0000 0.19053  0.89730  0.60280  Biso   1.000  C
  C107     1.0000 0.30947  0.39730  0.89720  Biso   1.000  C
  C108     1.0000 0.69053  0.39730  0.60280  Biso   1.000  C
  C109     1.0000 0.23762  0.18700  0.12860  Biso   1.000  C
  C110     1.0000 0.76238  0.18700  0.37140  Biso   1.000  C
  C111     1.0000 0.73762  0.68700  0.12860  Biso   1.000  C
  C112     1.0000 0.26238  0.68700  0.37140  Biso   1.000  C
  C113     1.0000 0.76238  0.81300  0.87140  Biso   1.000  C
  C114     1.0000 0.23762  0.81300  0.62860  Biso   1.000  C
  C115     1.0000 0.26238  0.31300  0.87140  Biso   1.000  C
  C116     1.0000 0.73762  0.31300  0.62860  Biso   1.000  C
  H97      1.0000 0.23800  0.27470  0.10700  Biso   1.000  H
  H98      1.0000 0.76200  0.27470  0.39300  Biso   1.000  H
  H99      1.0000 0.73800  0.77470  0.10700  Biso   1.000  H
  H100     1.0000 0.26200  0.77470  0.39300  Biso   1.000  H
  H101     1.0000 0.76200  0.72530  0.89300  Biso   1.000  H
  H102     1.0000 0.23800  0.72530  0.60700  Biso   1.000  H
  H103     1.0000 0.26200  0.22530  0.89300  Biso   1.000  H
  H104     1.0000 0.73800  0.22530  0.60700  Biso   1.000  H
  C117     1.0000 0.19065  0.97440  0.13580  Biso   1.000  C
  C118     1.0000 0.80935  0.97440  0.36420  Biso   1.000  C
  C119     1.0000 0.69065  0.47440  0.13580  Biso   1.000  C
  C120     1.0000 0.30935  0.47440  0.36420  Biso   1.000  C
  C121     1.0000 0.80935  0.02560  0.86420  Biso   1.000  C
  C122     1.0000 0.19065  0.02560  0.63580  Biso   1.000  C
  C123     1.0000 0.30935  0.52560  0.86420  Biso   1.000  C
  C124     1.0000 0.69065  0.52560  0.63580  Biso   1.000  C
  H105     1.0000 0.15900  0.91670  0.11960  Biso   1.000  H
  H106     1.0000 0.84100  0.91670  0.38040  Biso   1.000  H
  H107     1.0000 0.65900  0.41670  0.11960  Biso   1.000  H
  H108     1.0000 0.34100  0.41670  0.38040  Biso   1.000  H
  H109     1.0000 0.84100  0.08330  0.88040  Biso   1.000  H
  H110     1.0000 0.15900  0.08330  0.61960  Biso   1.000  H
  H111     1.0000 0.34100  0.58330  0.88040  Biso   1.000  H
  H112     1.0000 0.65900  0.58330  0.61960  Biso   1.000  H
  C125     1.0000 0.28428  0.14410  0.18580  Biso   1.000  C
  C126     1.0000 0.71572  0.14410  0.31420  Biso   1.000  C
  C127     1.0000 0.78428  0.64410  0.18580  Biso   1.000  C
  C128     1.0000 0.21572  0.64410  0.31420  Biso   1.000  C
  C129     1.0000 0.71572  0.85590  0.81420  Biso   1.000  C
  C130     1.0000 0.28428  0.85590  0.68580  Biso   1.000  C
  C131     1.0000 0.21572  0.35590  0.81420  Biso   1.000  C
  C132     1.0000 0.78428  0.35590  0.68580  Biso   1.000  C
  H113     1.0000 0.31580  0.20210  0.20230  Biso   1.000  H
  H114     1.0000 0.68420  0.20210  0.29770  Biso   1.000  H
  H115     1.0000 0.81580  0.70210  0.20230  Biso   1.000  H
  H116     1.0000 0.18420  0.70210  0.29770  Biso   1.000  H
  H117     1.0000 0.68420  0.79790  0.79770  Biso   1.000  H
  H118     1.0000 0.31580  0.79790  0.70230  Biso   1.000  H
  H119     1.0000 0.18420  0.29790  0.79770  Biso   1.000  H
  H120     1.0000 0.81580  0.29790  0.70230  Biso   1.000  H
  C133     1.0000 0.23740  0.92980  0.19310  Biso   1.000  C
  C134     1.0000 0.76260  0.92980  0.30690  Biso   1.000  C
  C135     1.0000 0.73740  0.42980  0.19310  Biso   1.000  C
  C136     1.0000 0.26260  0.42980  0.30690  Biso   1.000  C
  C137     1.0000 0.76260  0.07020  0.80690  Biso   1.000  C
  C138     1.0000 0.23740  0.07020  0.69310  Biso   1.000  C
  C139     1.0000 0.26260  0.57020  0.80690  Biso   1.000  C
  C140     1.0000 0.73740  0.57020  0.69310  Biso   1.000  C
  H121     1.0000 0.23730  0.84180  0.21450  Biso   1.000  H
  H122     1.0000 0.76270  0.84180  0.28550  Biso   1.000  H
  H123     1.0000 0.73730  0.34180  0.21450  Biso   1.000  H
  H124     1.0000 0.26270  0.34180  0.28550  Biso   1.000  H
  H125     1.0000 0.76270  0.15820  0.78550  Biso   1.000  H
  H126     1.0000 0.23730  0.15820  0.71450  Biso   1.000  H
  H127     1.0000 0.26270  0.65820  0.78550  Biso   1.000  H
  H128     1.0000 0.73730  0.65820  0.71450  Biso   1.000  H
  C141     1.0000 0.28400  0.01590  0.21830  Biso   1.000  C
  C142     1.0000 0.71600  0.01590  0.28170  Biso   1.000  C
  C143     1.0000 0.78400  0.51590  0.21830  Biso   1.000  C
  C144     1.0000 0.21600  0.51590  0.28170  Biso   1.000  C
  C145     1.0000 0.71600  0.98410  0.78170  Biso   1.000  C
  C146     1.0000 0.28400  0.98410  0.71830  Biso   1.000  C
  C147     1.0000 0.21600  0.48410  0.78170  Biso   1.000  C
  C148     1.0000 0.78400  0.48410  0.71830  Biso   1.000  C
  H129     1.0000 0.31520  0.98690  0.25720  Biso   1.000  H
  H130     1.0000 0.68480  0.98690  0.24280  Biso   1.000  H
  H131     1.0000 0.81520  0.48690  0.25720  Biso   1.000  H
  H132     1.0000 0.18480  0.48690  0.24280  Biso   1.000  H
  H133     1.0000 0.68480  0.01310  0.74280  Biso   1.000  H
  H134     1.0000 0.31520  0.01310  0.75720  Biso   1.000  H
  H135     1.0000 0.18480  0.51310  0.74280  Biso   1.000  H
  H136     1.0000 0.81520  0.51310  0.75720  Biso   1.000  H
  C149     1.0000 0.14205  0.06550  0.95039  Biso   1.000  C
  C150     1.0000 0.85795  0.06550  0.54961  Biso   1.000  C
  C151     1.0000 0.64205  0.56550  0.95039  Biso   1.000  C
  C152     1.0000 0.35795  0.56550  0.54961  Biso   1.000  C
  C153     1.0000 0.85795  0.93450  0.04961  Biso   1.000  C
  C154     1.0000 0.14205  0.93450  0.45039  Biso   1.000  C
  C155     1.0000 0.35795  0.43450  0.04961  Biso   1.000  C
  C156     1.0000 0.64205  0.43450  0.45039  Biso   1.000  C
  C157     1.0000 0.19394  0.01720  0.95470  Biso   1.000  C
  C158     1.0000 0.80606  0.01720  0.54530  Biso   1.000  C
  C159     1.0000 0.69394  0.51720  0.95470  Biso   1.000  C
  C160     1.0000 0.30606  0.51720  0.54530  Biso   1.000  C
  C161     1.0000 0.80606  0.98280  0.04530  Biso   1.000  C
  C162     1.0000 0.19394  0.98280  0.45470  Biso   1.000  C
  C163     1.0000 0.30606  0.48280  0.04530  Biso   1.000  C
  C164     1.0000 0.69394  0.48280  0.45470  Biso   1.000  C
  H137     1.0000 0.22420  0.02360  0.99800  Biso   1.000  H
  H138     1.0000 0.77580  0.02360  0.50200  Biso   1.000  H
  H139     1.0000 0.72420  0.52360  0.99800  Biso   1.000  H
  H140     1.0000 0.27580  0.52360  0.50200  Biso   1.000  H
  H141     1.0000 0.77580  0.97640  0.00200  Biso   1.000  H
  H142     1.0000 0.22420  0.97640  0.49800  Biso   1.000  H
  H143     1.0000 0.27580  0.47640  0.00200  Biso   1.000  H
  H144     1.0000 0.72420  0.47640  0.49800  Biso   1.000  H
  C165     1.0000 0.09837  0.05300  0.88560  Biso   1.000  C
  C166     1.0000 0.90163  0.05300  0.61440  Biso   1.000  C
  C167     1.0000 0.59837  0.55300  0.88560  Biso   1.000  C
  C168     1.0000 0.40163  0.55300  0.61440  Biso   1.000  C
  C169     1.0000 0.90163  0.94700  0.11440  Biso   1.000  C
  C170     1.0000 0.09837  0.94700  0.38560  Biso   1.000  C
  C171     1.0000 0.40163  0.44700  0.11440  Biso   1.000  C
  C172     1.0000 0.59837  0.44700  0.38560  Biso   1.000  C
  H145     1.0000 0.06270  0.08090  0.88200  Biso   1.000  H
  H146     1.0000 0.93730  0.08090  0.61800  Biso   1.000  H
  H147     1.0000 0.56270  0.58090  0.88200  Biso   1.000  H
  H148     1.0000 0.43730  0.58090  0.61800  Biso   1.000  H
  H149     1.0000 0.93730  0.91910  0.11800  Biso   1.000  H
  H150     1.0000 0.06270  0.91910  0.38200  Biso   1.000  H
  H151     1.0000 0.43730  0.41910  0.11800  Biso   1.000  H
  H152     1.0000 0.56270  0.41910  0.38200  Biso   1.000  H
  C173     1.0000 0.20140  0.95880  0.89460  Biso   1.000  C
  C174     1.0000 0.79860  0.95880  0.60540  Biso   1.000  C
  C175     1.0000 0.70140  0.45880  0.89460  Biso   1.000  C
  C176     1.0000 0.29860  0.45880  0.60540  Biso   1.000  C
  C177     1.0000 0.79860  0.04120  0.10540  Biso   1.000  C
  C178     1.0000 0.20140  0.04120  0.39460  Biso   1.000  C
  C179     1.0000 0.29860  0.54120  0.10540  Biso   1.000  C
  C180     1.0000 0.70140  0.54120  0.39460  Biso   1.000  C
  H153     1.0000 0.23640  0.92470  0.89840  Biso   1.000  H
  H154     1.0000 0.76360  0.92470  0.60160  Biso   1.000  H
  H155     1.0000 0.73640  0.42470  0.89840  Biso   1.000  H
  H156     1.0000 0.26360  0.42470  0.60160  Biso   1.000  H
  H157     1.0000 0.76360  0.07530  0.10160  Biso   1.000  H
  H158     1.0000 0.23640  0.07530  0.39840  Biso   1.000  H
  H159     1.0000 0.26360  0.57530  0.10160  Biso   1.000  H
  H160     1.0000 0.73640  0.57530  0.39840  Biso   1.000  H
  C181     1.0000 0.10620  0.00020  0.82570  Biso   1.000  C
  C182     1.0000 0.89380  0.00020  0.67430  Biso   1.000  C
  C183     1.0000 0.60620  0.50020  0.82570  Biso   1.000  C
  C184     1.0000 0.39380  0.50020  0.67430  Biso   1.000  C
  C185     1.0000 0.89380  0.99980  0.17430  Biso   1.000  C
  C186     1.0000 0.10620  0.99980  0.32570  Biso   1.000  C
  C187     1.0000 0.39380  0.49980  0.17430  Biso   1.000  C
  C188     1.0000 0.60620  0.49980  0.32570  Biso   1.000  C
  H161     1.0000 0.07640  0.99750  0.78180  Biso   1.000  H
  H162     1.0000 0.92360  0.99750  0.71820  Biso   1.000  H
  H163     1.0000 0.57640  0.49750  0.78180  Biso   1.000  H
  H164     1.0000 0.42360  0.49750  0.71820  Biso   1.000  H
  H165     1.0000 0.92360  0.00250  0.21820  Biso   1.000  H
  H166     1.0000 0.07640  0.00250  0.28180  Biso   1.000  H
  H167     1.0000 0.42360  0.50250  0.21820  Biso   1.000  H
  H168     1.0000 0.57640  0.50250  0.28180  Biso   1.000  H
  C189     1.0000 0.15770  0.95180  0.83070  Biso   1.000  C
  C190     1.0000 0.84230  0.95180  0.66930  Biso   1.000  C
  C191     1.0000 0.65770  0.45180  0.83070  Biso   1.000  C
  C192     1.0000 0.34230  0.45180  0.66930  Biso   1.000  C
  C193     1.0000 0.84230  0.04820  0.16930  Biso   1.000  C
  C194     1.0000 0.15770  0.04820  0.33070  Biso   1.000  C
  C195     1.0000 0.34230  0.54820  0.16930  Biso   1.000  C
  C196     1.0000 0.65770  0.54820  0.33070  Biso   1.000  C
  H169     1.0000 0.16280  0.91420  0.79050  Biso   1.000  H
  H170     1.0000 0.83720  0.91420  0.70950  Biso   1.000  H
  H171     1.0000 0.66280  0.41420  0.79050  Biso   1.000  H
  H172     1.0000 0.33720  0.41420  0.70950  Biso   1.000  H
  H173     1.0000 0.83720  0.08580  0.20950  Biso   1.000  H
  H174     1.0000 0.16280  0.08580  0.29050  Biso   1.000  H
  H175     1.0000 0.33720  0.58580  0.20950  Biso   1.000  H
  H176     1.0000 0.66280  0.58580  0.29050  Biso   1.000  H
