data_image0
_cell_length_a       12.9573
_cell_length_b       10.5506
_cell_length_c       18.9241
_cell_angle_alpha    90
_cell_angle_beta     108.961
_cell_angle_gamma    90

_symmetry_space_group_name_H-M    "P 1"
_symmetry_int_tables_number       1

loop_
  _symmetry_equiv_pos_as_xyz
  'x, y, z'

loop_
  _atom_site_label
  _atom_site_occupancy
  _atom_site_fract_x
  _atom_site_fract_y
  _atom_site_fract_z
  _atom_site_thermal_displace_type
  _atom_site_B_iso_or_equiv
  _atom_site_type_symbol
  Cu1      1.0000 0.60682  0.39666  0.25965  Biso   1.000  Cu
  Cu2      1.0000 0.39318  0.89666  0.24035  Biso   1.000  Cu
  Cu3      1.0000 0.39318  0.60334  0.74035  Biso   1.000  Cu
  Cu4      1.0000 0.60682  0.10334  0.75965  Biso   1.000  Cu
  P1       1.0000 0.75772  0.43807  0.35473  Biso   1.000  P
  P2       1.0000 0.24228  0.93807  0.14527  Biso   1.000  P
  P3       1.0000 0.24228  0.56193  0.64527  Biso   1.000  P
  P4       1.0000 0.75772  0.06193  0.85473  Biso   1.000  P
  S1       1.0000 0.44293  0.45262  0.28281  Biso   1.000  S
  S2       1.0000 0.55707  0.95262  0.21719  Biso   1.000  S
  S3       1.0000 0.55707  0.54738  0.71719  Biso   1.000  S
  S4       1.0000 0.44293  0.04738  0.78281  Biso   1.000  S
  N1       1.0000 0.61320  0.48520  0.16249  Biso   1.000  N
  N2       1.0000 0.38680  0.98520  0.33751  Biso   1.000  N
  N3       1.0000 0.38680  0.51480  0.83751  Biso   1.000  N
  N4       1.0000 0.61320  0.01480  0.66249  Biso   1.000  N
  N5       1.0000 0.42240  0.71580  0.27010  Biso   1.000  N
  N6       1.0000 0.57760  0.21580  0.22990  Biso   1.000  N
  N7       1.0000 0.57760  0.28420  0.72990  Biso   1.000  N
  N8       1.0000 0.42240  0.78420  0.77010  Biso   1.000  N
  C1       1.0000 0.66280  0.43050  0.12080  Biso   1.000  C
  C2       1.0000 0.33720  0.93050  0.37920  Biso   1.000  C
  C3       1.0000 0.33720  0.56950  0.87920  Biso   1.000  C
  C4       1.0000 0.66280  0.06950  0.62080  Biso   1.000  C
  H1       1.0000 0.69420  0.35150  0.13570  Biso   1.000  H
  H2       1.0000 0.30580  0.85150  0.36430  Biso   1.000  H
  H3       1.0000 0.30580  0.64850  0.86430  Biso   1.000  H
  H4       1.0000 0.69420  0.14850  0.63570  Biso   1.000  H
  C5       1.0000 0.56750  0.60060  0.13970  Biso   1.000  C
  C6       1.0000 0.43250  0.10060  0.36030  Biso   1.000  C
  C7       1.0000 0.43250  0.39940  0.86030  Biso   1.000  C
  C8       1.0000 0.56750  0.89940  0.63970  Biso   1.000  C
  H5       1.0000 0.53120  0.64080  0.16850  Biso   1.000  H
  H6       1.0000 0.46880  0.14080  0.33150  Biso   1.000  H
  H7       1.0000 0.46880  0.35920  0.83150  Biso   1.000  H
  H8       1.0000 0.53120  0.85920  0.66850  Biso   1.000  H
  C9       1.0000 0.57190  0.66010  0.07740  Biso   1.000  C
  C10      1.0000 0.42810  0.16010  0.42260  Biso   1.000  C
  C11      1.0000 0.42810  0.33990  0.92260  Biso   1.000  C
  C12      1.0000 0.57190  0.83990  0.57740  Biso   1.000  C
  H9       1.0000 0.54060  0.73980  0.06500  Biso   1.000  H
  H10      1.0000 0.45940  0.23980  0.43500  Biso   1.000  H
  H11      1.0000 0.45940  0.26020  0.93500  Biso   1.000  H
  H12      1.0000 0.54060  0.76020  0.56500  Biso   1.000  H
  C13      1.0000 0.62320  0.60210  0.03220  Biso   1.000  C
  C14      1.0000 0.37680  0.10210  0.46780  Biso   1.000  C
  C15      1.0000 0.37680  0.39790  0.96780  Biso   1.000  C
  C16      1.0000 0.62320  0.89790  0.53220  Biso   1.000  C
  C17      1.0000 0.67210  0.48420  0.05350  Biso   1.000  C
  C18      1.0000 0.32790  0.98420  0.44650  Biso   1.000  C
  C19      1.0000 0.32790  0.51580  0.94650  Biso   1.000  C
  C20      1.0000 0.67210  0.01580  0.55350  Biso   1.000  C
  C21      1.0000 0.72480  0.42180  0.01070  Biso   1.000  C
  C22      1.0000 0.27520  0.92180  0.48930  Biso   1.000  C
  C23      1.0000 0.27520  0.57820  0.98930  Biso   1.000  C
  C24      1.0000 0.72480  0.07820  0.51070  Biso   1.000  C
  H13      1.0000 0.75810  0.34400  0.02620  Biso   1.000  H
  H14      1.0000 0.24190  0.84400  0.47380  Biso   1.000  H
  H15      1.0000 0.24190  0.65600  0.97380  Biso   1.000  H
  H16      1.0000 0.75810  0.15600  0.52620  Biso   1.000  H
  C25      1.0000 0.72750  0.47450  0.94600  Biso   1.000  C
  C26      1.0000 0.27250  0.97450  0.55400  Biso   1.000  C
  C27      1.0000 0.27250  0.52550  0.05400  Biso   1.000  C
  C28      1.0000 0.72750  0.02550  0.44600  Biso   1.000  C
  H17      1.0000 0.76270  0.43290  0.91700  Biso   1.000  H
  H18      1.0000 0.23730  0.93290  0.58300  Biso   1.000  H
  H19      1.0000 0.23730  0.56710  0.08300  Biso   1.000  H
  H20      1.0000 0.76270  0.06710  0.41700  Biso   1.000  H
  C29      1.0000 0.67740  0.59130  0.92300  Biso   1.000  C
  C30      1.0000 0.32260  0.09130  0.57700  Biso   1.000  C
  C31      1.0000 0.32260  0.40870  0.07700  Biso   1.000  C
  C32      1.0000 0.67740  0.90870  0.42300  Biso   1.000  C
  H21      1.0000 0.67940  0.62570  0.87820  Biso   1.000  H
  H22      1.0000 0.32060  0.12570  0.62180  Biso   1.000  H
  H23      1.0000 0.32060  0.37430  0.12180  Biso   1.000  H
  H24      1.0000 0.67940  0.87430  0.37820  Biso   1.000  H
  C33      1.0000 0.62650  0.65570  0.96310  Biso   1.000  C
  C34      1.0000 0.37350  0.15570  0.53690  Biso   1.000  C
  C35      1.0000 0.37350  0.34430  0.03690  Biso   1.000  C
  C36      1.0000 0.62650  0.84430  0.46310  Biso   1.000  C
  H25      1.0000 0.59390  0.73350  0.94650  Biso   1.000  H
  H26      1.0000 0.40610  0.23350  0.55350  Biso   1.000  H
  H27      1.0000 0.40610  0.26650  0.05350  Biso   1.000  H
  H28      1.0000 0.59390  0.76650  0.44650  Biso   1.000  H
  C37      1.0000 0.83970  0.56780  0.33740  Biso   1.000  C
  C38      1.0000 0.16030  0.06780  0.16260  Biso   1.000  C
  C39      1.0000 0.16030  0.43220  0.66260  Biso   1.000  C
  C40      1.0000 0.83970  0.93220  0.83740  Biso   1.000  C
  C41      1.0000 0.78620  0.67850  0.30580  Biso   1.000  C
  C42      1.0000 0.21380  0.17850  0.19420  Biso   1.000  C
  C43      1.0000 0.21380  0.32150  0.69420  Biso   1.000  C
  C44      1.0000 0.78620  0.82150  0.80580  Biso   1.000  C
  H29      1.0000 0.71080  0.68400  0.29420  Biso   1.000  H
  H30      1.0000 0.28920  0.18400  0.20580  Biso   1.000  H
  H31      1.0000 0.28920  0.31600  0.70580  Biso   1.000  H
  H32      1.0000 0.71080  0.81600  0.79420  Biso   1.000  H
  C45      1.0000 0.84320  0.77990  0.29160  Biso   1.000  C
  C46      1.0000 0.15680  0.27990  0.20840  Biso   1.000  C
  C47      1.0000 0.15680  0.22010  0.70840  Biso   1.000  C
  C48      1.0000 0.84320  0.72010  0.79160  Biso   1.000  C
  H33      1.0000 0.80660  0.85410  0.27160  Biso   1.000  H
  H34      1.0000 0.19340  0.35410  0.22840  Biso   1.000  H
  H35      1.0000 0.19340  0.14590  0.72840  Biso   1.000  H
  H36      1.0000 0.80660  0.64590  0.77160  Biso   1.000  H
  C49      1.0000 0.95350  0.77180  0.30670  Biso   1.000  C
  C50      1.0000 0.04650  0.27180  0.19330  Biso   1.000  C
  C51      1.0000 0.04650  0.22820  0.69330  Biso   1.000  C
  C52      1.0000 0.95350  0.72820  0.80670  Biso   1.000  C
  H37      1.0000 0.99150  0.83980  0.29590  Biso   1.000  H
  H38      1.0000 0.00850  0.33980  0.20410  Biso   1.000  H
  H39      1.0000 0.00850  0.16020  0.70410  Biso   1.000  H
  H40      1.0000 0.99150  0.66020  0.79590  Biso   1.000  H
  C53      1.0000 0.00810  0.66380  0.33760  Biso   1.000  C
  C54      1.0000 0.99190  0.16380  0.16240  Biso   1.000  C
  C55      1.0000 0.99190  0.33620  0.66240  Biso   1.000  C
  C56      1.0000 0.00810  0.83620  0.83760  Biso   1.000  C
  H41      1.0000 0.08330  0.65880  0.34860  Biso   1.000  H
  H42      1.0000 0.91670  0.15880  0.15140  Biso   1.000  H
  H43      1.0000 0.91670  0.34120  0.65140  Biso   1.000  H
  H44      1.0000 0.08330  0.84120  0.84860  Biso   1.000  H
  C57      1.0000 0.95140  0.56300  0.35240  Biso   1.000  C
  C58      1.0000 0.04860  0.06300  0.14760  Biso   1.000  C
  C59      1.0000 0.04860  0.43700  0.64760  Biso   1.000  C
  C60      1.0000 0.95140  0.93700  0.85240  Biso   1.000  C
  H45      1.0000 0.98910  0.48970  0.37310  Biso   1.000  H
  H46      1.0000 0.01090  0.98970  0.12690  Biso   1.000  H
  H47      1.0000 0.01090  0.51030  0.62690  Biso   1.000  H
  H48      1.0000 0.98910  0.01030  0.87310  Biso   1.000  H
  C61      1.0000 0.85560  0.30770  0.38050  Biso   1.000  C
  C62      1.0000 0.14440  0.80770  0.11950  Biso   1.000  C
  C63      1.0000 0.14440  0.69230  0.61950  Biso   1.000  C
  C64      1.0000 0.85560  0.19230  0.88050  Biso   1.000  C
  C65      1.0000 0.92000  0.28200  0.45340  Biso   1.000  C
  C66      1.0000 0.08000  0.78200  0.04660  Biso   1.000  C
  C67      1.0000 0.08000  0.71800  0.54660  Biso   1.000  C
  C68      1.0000 0.92000  0.21800  0.95340  Biso   1.000  C
  H49      1.0000 0.91390  0.33180  0.49240  Biso   1.000  H
  H50      1.0000 0.08610  0.83180  0.00760  Biso   1.000  H
  H51      1.0000 0.08610  0.66820  0.50760  Biso   1.000  H
  H52      1.0000 0.91390  0.16820  0.99240  Biso   1.000  H
  C69      1.0000 0.99350  0.18190  0.46800  Biso   1.000  C
  C70      1.0000 0.00650  0.68190  0.03200  Biso   1.000  C
  C71      1.0000 0.00650  0.81810  0.53200  Biso   1.000  C
  C72      1.0000 0.99350  0.31810  0.96800  Biso   1.000  C
  H53      1.0000 0.03640  0.16470  0.51700  Biso   1.000  H
  H54      1.0000 0.96360  0.66470  0.98300  Biso   1.000  H
  H55      1.0000 0.96360  0.83530  0.48300  Biso   1.000  H
  H56      1.0000 0.03640  0.33530  0.01700  Biso   1.000  H
  C73      1.0000 0.00330  0.10870  0.41130  Biso   1.000  C
  C74      1.0000 0.99670  0.60870  0.08870  Biso   1.000  C
  C75      1.0000 0.99670  0.89130  0.58870  Biso   1.000  C
  C76      1.0000 0.00330  0.39130  0.91130  Biso   1.000  C
  H57      1.0000 0.05340  0.04250  0.42160  Biso   1.000  H
  H58      1.0000 0.94660  0.54250  0.07840  Biso   1.000  H
  H59      1.0000 0.94660  0.95750  0.57840  Biso   1.000  H
  H60      1.0000 0.05340  0.45750  0.92160  Biso   1.000  H
  C77      1.0000 0.93980  0.13200  0.33930  Biso   1.000  C
  C78      1.0000 0.06020  0.63200  0.16070  Biso   1.000  C
  C79      1.0000 0.06020  0.86800  0.66070  Biso   1.000  C
  C80      1.0000 0.93980  0.36800  0.83930  Biso   1.000  C
  H61      1.0000 0.94620  0.08140  0.30070  Biso   1.000  H
  H62      1.0000 0.05380  0.58140  0.19930  Biso   1.000  H
  H63      1.0000 0.05380  0.91860  0.69930  Biso   1.000  H
  H64      1.0000 0.94620  0.41860  0.80070  Biso   1.000  H
  C81      1.0000 0.86630  0.23050  0.32410  Biso   1.000  C
  C82      1.0000 0.13370  0.73050  0.17590  Biso   1.000  C
  C83      1.0000 0.13370  0.76950  0.67590  Biso   1.000  C
  C84      1.0000 0.86630  0.26950  0.82410  Biso   1.000  C
  H65      1.0000 0.82300  0.24560  0.27500  Biso   1.000  H
  H66      1.0000 0.17700  0.74560  0.22500  Biso   1.000  H
  H67      1.0000 0.17700  0.75440  0.72500  Biso   1.000  H
  H68      1.0000 0.82300  0.25440  0.77500  Biso   1.000  H
  C85      1.0000 0.74120  0.48070  0.44360  Biso   1.000  C
  C86      1.0000 0.25880  0.98070  0.05640  Biso   1.000  C
  C87      1.0000 0.25880  0.51930  0.55640  Biso   1.000  C
  C88      1.0000 0.74120  0.01930  0.94360  Biso   1.000  C
  C89      1.0000 0.80260  0.57240  0.49110  Biso   1.000  C
  C90      1.0000 0.19740  0.07240  0.00890  Biso   1.000  C
  C91      1.0000 0.19740  0.42760  0.50890  Biso   1.000  C
  C92      1.0000 0.80260  0.92760  0.99110  Biso   1.000  C
  H69      1.0000 0.85440  0.61790  0.47720  Biso   1.000  H
  H70      1.0000 0.14560  0.11790  0.02280  Biso   1.000  H
  H71      1.0000 0.14560  0.38210  0.52280  Biso   1.000  H
  H72      1.0000 0.85440  0.88210  0.97720  Biso   1.000  H
  C93      1.0000 0.78810  0.59730  0.55870  Biso   1.000  C
  C94      1.0000 0.21190  0.09730  0.94130  Biso   1.000  C
  C95      1.0000 0.21190  0.40270  0.44130  Biso   1.000  C
  C96      1.0000 0.78810  0.90270  0.05870  Biso   1.000  C
  H73      1.0000 0.83010  0.65920  0.59000  Biso   1.000  H
  H74      1.0000 0.16990  0.15920  0.91000  Biso   1.000  H
  H75      1.0000 0.16990  0.34080  0.41000  Biso   1.000  H
  H76      1.0000 0.83010  0.84080  0.09000  Biso   1.000  H
  C97      1.0000 0.71250  0.53190  0.58010  Biso   1.000  C
  C98      1.0000 0.28750  0.03190  0.91990  Biso   1.000  C
  C99      1.0000 0.28750  0.46810  0.41990  Biso   1.000  C
  C100     1.0000 0.71250  0.96810  0.08010  Biso   1.000  C
  H77      1.0000 0.70300  0.54910  0.62580  Biso   1.000  H
  H78      1.0000 0.29700  0.04910  0.87420  Biso   1.000  H
  H79      1.0000 0.29700  0.45090  0.37420  Biso   1.000  H
  H80      1.0000 0.70300  0.95090  0.12580  Biso   1.000  H
  C101     1.0000 0.65100  0.44140  0.53420  Biso   1.000  C
  C102     1.0000 0.34900  0.94140  0.96580  Biso   1.000  C
  C103     1.0000 0.34900  0.55860  0.46580  Biso   1.000  C
  C104     1.0000 0.65100  0.05860  0.03420  Biso   1.000  C
  H81      1.0000 0.60010  0.39570  0.54890  Biso   1.000  H
  H82      1.0000 0.39990  0.89570  0.95110  Biso   1.000  H
  H83      1.0000 0.39990  0.60430  0.45110  Biso   1.000  H
  H84      1.0000 0.60010  0.10430  0.04890  Biso   1.000  H
  C105     1.0000 0.66400  0.41690  0.46570  Biso   1.000  C
  C106     1.0000 0.33600  0.91690  0.03430  Biso   1.000  C
  C107     1.0000 0.33600  0.58310  0.53430  Biso   1.000  C
  C108     1.0000 0.66400  0.08310  0.96570  Biso   1.000  C
  H85      1.0000 0.62000  0.35650  0.43420  Biso   1.000  H
  H86      1.0000 0.38000  0.85650  0.06580  Biso   1.000  H
  H87      1.0000 0.38000  0.64350  0.56580  Biso   1.000  H
  H88      1.0000 0.62000  0.14350  0.93420  Biso   1.000  H
  C109     1.0000 0.43200  0.60790  0.27560  Biso   1.000  C
  C110     1.0000 0.56800  0.10790  0.22440  Biso   1.000  C
  C111     1.0000 0.56800  0.39210  0.72440  Biso   1.000  C
  C112     1.0000 0.43200  0.89210  0.77560  Biso   1.000  C
