data_image0
_cell_length_a       9.64
_cell_length_b       24.97
_cell_length_c       16.032
_cell_angle_alpha    90
_cell_angle_beta     106.76
_cell_angle_gamma    90

_symmetry_space_group_name_H-M    "P 1"
_symmetry_int_tables_number       1

loop_
  _symmetry_equiv_pos_as_xyz
  'x, y, z'

loop_
  _atom_site_label
  _atom_site_occupancy
  _atom_site_fract_x
  _atom_site_fract_y
  _atom_site_fract_z
  _atom_site_thermal_displace_type
  _atom_site_B_iso_or_equiv
  _atom_site_type_symbol
  Cu1      1.0000 0.41260  0.44250  0.06630  Biso   1.000  Cu
  Cu2      1.0000 0.58740  0.44250  0.43370  Biso   1.000  Cu
  Cu3      1.0000 0.91260  0.94250  0.06630  Biso   1.000  Cu
  Cu4      1.0000 0.08740  0.94250  0.43370  Biso   1.000  Cu
  Cu5      1.0000 0.58740  0.55750  0.93370  Biso   1.000  Cu
  Cu6      1.0000 0.41260  0.55750  0.56630  Biso   1.000  Cu
  Cu7      1.0000 0.08740  0.05750  0.93370  Biso   1.000  Cu
  Cu8      1.0000 0.91260  0.05750  0.56630  Biso   1.000  Cu
  S1       1.0000 0.24400  0.28130  0.18930  Biso   1.000  S
  S2       1.0000 0.75600  0.28130  0.31070  Biso   1.000  S
  S3       1.0000 0.74400  0.78130  0.18930  Biso   1.000  S
  S4       1.0000 0.25600  0.78130  0.31070  Biso   1.000  S
  S5       1.0000 0.75600  0.71870  0.81070  Biso   1.000  S
  S6       1.0000 0.24400  0.71870  0.68930  Biso   1.000  S
  S7       1.0000 0.25600  0.21870  0.81070  Biso   1.000  S
  S8       1.0000 0.74400  0.21870  0.68930  Biso   1.000  S
  F1       1.0000 0.65600  0.28330  0.92200  Biso   1.000  F
  F2       1.0000 0.34400  0.28330  0.57800  Biso   1.000  F
  F3       1.0000 0.15600  0.78330  0.92200  Biso   1.000  F
  F4       1.0000 0.84400  0.78330  0.57800  Biso   1.000  F
  F5       1.0000 0.34400  0.71670  0.07800  Biso   1.000  F
  F6       1.0000 0.65600  0.71670  0.42200  Biso   1.000  F
  F7       1.0000 0.84400  0.21670  0.07800  Biso   1.000  F
  F8       1.0000 0.15600  0.21670  0.42200  Biso   1.000  F
  F9       1.0000 0.78800  0.34520  0.98100  Biso   1.000  F
  F10      1.0000 0.21200  0.34520  0.51900  Biso   1.000  F
  F11      1.0000 0.28800  0.84520  0.98100  Biso   1.000  F
  F12      1.0000 0.71200  0.84520  0.51900  Biso   1.000  F
  F13      1.0000 0.21200  0.65480  0.01900  Biso   1.000  F
  F14      1.0000 0.78800  0.65480  0.48100  Biso   1.000  F
  F15      1.0000 0.71200  0.15480  0.01900  Biso   1.000  F
  F16      1.0000 0.28800  0.15480  0.48100  Biso   1.000  F
  F17      1.0000 0.62300  0.35850  0.86400  Biso   1.000  F
  F18      1.0000 0.37700  0.35850  0.63600  Biso   1.000  F
  F19      1.0000 0.12300  0.85850  0.86400  Biso   1.000  F
  F20      1.0000 0.87700  0.85850  0.63600  Biso   1.000  F
  F21      1.0000 0.37700  0.64150  0.13600  Biso   1.000  F
  F22      1.0000 0.62300  0.64150  0.36400  Biso   1.000  F
  F23      1.0000 0.87700  0.14150  0.13600  Biso   1.000  F
  F24      1.0000 0.12300  0.14150  0.36400  Biso   1.000  F
  O1       1.0000 0.36000  0.36150  0.10300  Biso   1.000  O
  O2       1.0000 0.64000  0.36150  0.39700  Biso   1.000  O
  O3       1.0000 0.86000  0.86150  0.10300  Biso   1.000  O
  O4       1.0000 0.14000  0.86150  0.39700  Biso   1.000  O
  O5       1.0000 0.64000  0.63850  0.89700  Biso   1.000  O
  O6       1.0000 0.36000  0.63850  0.60300  Biso   1.000  O
  O7       1.0000 0.14000  0.13850  0.89700  Biso   1.000  O
  O8       1.0000 0.86000  0.13850  0.60300  Biso   1.000  O
  O9       1.0000 0.52700  0.39910  0.99100  Biso   1.000  O
  O10      1.0000 0.47300  0.39910  0.50900  Biso   1.000  O
  O11      1.0000 0.02700  0.89910  0.99100  Biso   1.000  O
  O12      1.0000 0.97300  0.89910  0.50900  Biso   1.000  O
  O13      1.0000 0.47300  0.60090  0.00900  Biso   1.000  O
  O14      1.0000 0.52700  0.60090  0.49100  Biso   1.000  O
  O15      1.0000 0.97300  0.10090  0.00900  Biso   1.000  O
  O16      1.0000 0.02700  0.10090  0.49100  Biso   1.000  O
  N1       1.0000 0.22300  0.46430  0.98700  Biso   1.000  N
  N2       1.0000 0.77700  0.46430  0.51300  Biso   1.000  N
  N3       1.0000 0.72300  0.96430  0.98700  Biso   1.000  N
  N4       1.0000 0.27700  0.96430  0.51300  Biso   1.000  N
  N5       1.0000 0.77700  0.53570  0.01300  Biso   1.000  N
  N6       1.0000 0.22300  0.53570  0.48700  Biso   1.000  N
  N7       1.0000 0.27700  0.03570  0.01300  Biso   1.000  N
  N8       1.0000 0.72300  0.03570  0.48700  Biso   1.000  N
  N9       1.0000 0.57400  0.53350  0.66600  Biso   1.000  N
  N10      1.0000 0.42600  0.53350  0.83400  Biso   1.000  N
  N11      1.0000 0.07400  0.03350  0.66600  Biso   1.000  N
  N12      1.0000 0.92600  0.03350  0.83400  Biso   1.000  N
  N13      1.0000 0.42600  0.46650  0.33400  Biso   1.000  N
  N14      1.0000 0.57400  0.46650  0.16600  Biso   1.000  N
  N15      1.0000 0.92600  0.96650  0.33400  Biso   1.000  N
  N16      1.0000 0.07400  0.96650  0.16600  Biso   1.000  N
  C1       1.0000 0.11700  0.42620  0.95600  Biso   1.000  C
  C2       1.0000 0.88300  0.42620  0.54400  Biso   1.000  C
  C3       1.0000 0.61700  0.92620  0.95600  Biso   1.000  C
  C4       1.0000 0.38300  0.92620  0.54400  Biso   1.000  C
  C5       1.0000 0.88300  0.57380  0.04400  Biso   1.000  C
  C6       1.0000 0.11700  0.57380  0.45600  Biso   1.000  C
  C7       1.0000 0.38300  0.07380  0.04400  Biso   1.000  C
  C8       1.0000 0.61700  0.07380  0.45600  Biso   1.000  C
  C9       1.0000 0.98700  0.43900  0.89600  Biso   1.000  C
  C10      1.0000 0.01300  0.43900  0.60400  Biso   1.000  C
  C11      1.0000 0.48700  0.93900  0.89600  Biso   1.000  C
  C12      1.0000 0.51300  0.93900  0.60400  Biso   1.000  C
  C13      1.0000 0.01300  0.56100  0.10400  Biso   1.000  C
  C14      1.0000 0.98700  0.56100  0.39600  Biso   1.000  C
  C15      1.0000 0.51300  0.06100  0.10400  Biso   1.000  C
  C16      1.0000 0.48700  0.06100  0.39600  Biso   1.000  C
  C17      1.0000 0.96500  0.49030  0.86400  Biso   1.000  C
  C18      1.0000 0.03500  0.49030  0.63600  Biso   1.000  C
  C19      1.0000 0.46500  0.99030  0.86400  Biso   1.000  C
  C20      1.0000 0.53500  0.99030  0.63600  Biso   1.000  C
  C21      1.0000 0.03500  0.50970  0.13600  Biso   1.000  C
  C22      1.0000 0.96500  0.50970  0.36400  Biso   1.000  C
  C23      1.0000 0.53500  0.00970  0.13600  Biso   1.000  C
  C24      1.0000 0.46500  0.00970  0.36400  Biso   1.000  C
  C25      1.0000 0.07000  0.53060  0.89700  Biso   1.000  C
  C26      1.0000 0.93000  0.53060  0.60300  Biso   1.000  C
  C27      1.0000 0.57000  0.03060  0.89700  Biso   1.000  C
  C28      1.0000 0.43000  0.03060  0.60300  Biso   1.000  C
  C29      1.0000 0.93000  0.46940  0.10300  Biso   1.000  C
  C30      1.0000 0.07000  0.46940  0.39700  Biso   1.000  C
  C31      1.0000 0.43000  0.96940  0.10300  Biso   1.000  C
  C32      1.0000 0.57000  0.96940  0.39700  Biso   1.000  C
  C33      1.0000 0.20300  0.51300  0.96000  Biso   1.000  C
  C34      1.0000 0.79700  0.51300  0.54000  Biso   1.000  C
  C35      1.0000 0.70300  0.01300  0.96000  Biso   1.000  C
  C36      1.0000 0.29700  0.01300  0.54000  Biso   1.000  C
  C37      1.0000 0.79700  0.48700  0.04000  Biso   1.000  C
  C38      1.0000 0.20300  0.48700  0.46000  Biso   1.000  C
  C39      1.0000 0.29700  0.98700  0.04000  Biso   1.000  C
  C40      1.0000 0.70300  0.98700  0.46000  Biso   1.000  C
  C41      1.0000 0.65500  0.56900  0.71900  Biso   1.000  C
  C42      1.0000 0.34500  0.56900  0.78100  Biso   1.000  C
  C43      1.0000 0.15500  0.06900  0.71900  Biso   1.000  C
  C44      1.0000 0.84500  0.06900  0.78100  Biso   1.000  C
  C45      1.0000 0.34500  0.43100  0.28100  Biso   1.000  C
  C46      1.0000 0.65500  0.43100  0.21900  Biso   1.000  C
  C47      1.0000 0.84500  0.93100  0.28100  Biso   1.000  C
  C48      1.0000 0.15500  0.93100  0.21900  Biso   1.000  C
  C49      1.0000 0.78100  0.55900  0.78400  Biso   1.000  C
  C50      1.0000 0.21900  0.55900  0.71600  Biso   1.000  C
  C51      1.0000 0.28100  0.05900  0.78400  Biso   1.000  C
  C52      1.0000 0.71900  0.05900  0.71600  Biso   1.000  C
  C53      1.0000 0.21900  0.44100  0.21600  Biso   1.000  C
  C54      1.0000 0.78100  0.44100  0.28400  Biso   1.000  C
  C55      1.0000 0.71900  0.94100  0.21600  Biso   1.000  C
  C56      1.0000 0.28100  0.94100  0.28400  Biso   1.000  C
  C57      1.0000 0.82600  0.50500  0.79700  Biso   1.000  C
  C58      1.0000 0.17400  0.50500  0.70300  Biso   1.000  C
  C59      1.0000 0.32600  0.00500  0.79700  Biso   1.000  C
  C60      1.0000 0.67400  0.00500  0.70300  Biso   1.000  C
  C61      1.0000 0.17400  0.49500  0.20300  Biso   1.000  C
  C62      1.0000 0.82600  0.49500  0.29700  Biso   1.000  C
  C63      1.0000 0.67400  0.99500  0.20300  Biso   1.000  C
  C64      1.0000 0.32600  0.99500  0.29700  Biso   1.000  C
  C65      1.0000 0.73600  0.46700  0.74700  Biso   1.000  C
  C66      1.0000 0.26400  0.46700  0.75300  Biso   1.000  C
  C67      1.0000 0.23600  0.96700  0.74700  Biso   1.000  C
  C68      1.0000 0.76400  0.96700  0.75300  Biso   1.000  C
  C69      1.0000 0.26400  0.53300  0.25300  Biso   1.000  C
  C70      1.0000 0.73600  0.53300  0.24700  Biso   1.000  C
  C71      1.0000 0.76400  0.03300  0.25300  Biso   1.000  C
  C72      1.0000 0.23600  0.03300  0.24700  Biso   1.000  C
  C73      1.0000 0.61800  0.48200  0.68000  Biso   1.000  C
  C74      1.0000 0.38200  0.48200  0.82000  Biso   1.000  C
  C75      1.0000 0.11800  0.98200  0.68000  Biso   1.000  C
  C76      1.0000 0.88200  0.98200  0.82000  Biso   1.000  C
  C77      1.0000 0.38200  0.51800  0.32000  Biso   1.000  C
  C78      1.0000 0.61800  0.51800  0.18000  Biso   1.000  C
  C79      1.0000 0.88200  0.01800  0.32000  Biso   1.000  C
  C80      1.0000 0.11800  0.01800  0.18000  Biso   1.000  C
  C81      1.0000 0.54900  0.35100  0.99100  Biso   1.000  C
  C82      1.0000 0.45100  0.35100  0.50900  Biso   1.000  C
  C83      1.0000 0.04900  0.85100  0.99100  Biso   1.000  C
  C84      1.0000 0.95100  0.85100  0.50900  Biso   1.000  C
  C85      1.0000 0.45100  0.64900  0.00900  Biso   1.000  C
  C86      1.0000 0.54900  0.64900  0.49100  Biso   1.000  C
  C87      1.0000 0.95100  0.14900  0.00900  Biso   1.000  C
  C88      1.0000 0.04900  0.14900  0.49100  Biso   1.000  C
  C89      1.0000 0.50300  0.31000  0.03700  Biso   1.000  C
  C90      1.0000 0.49700  0.31000  0.46300  Biso   1.000  C
  C91      1.0000 0.00300  0.81000  0.03700  Biso   1.000  C
  C92      1.0000 0.99700  0.81000  0.46300  Biso   1.000  C
  C93      1.0000 0.49700  0.69000  0.96300  Biso   1.000  C
  C94      1.0000 0.50300  0.69000  0.53700  Biso   1.000  C
  C95      1.0000 0.99700  0.19000  0.96300  Biso   1.000  C
  C96      1.0000 0.00300  0.19000  0.53700  Biso   1.000  C
  C97      1.0000 0.40800  0.31600  0.08400  Biso   1.000  C
  C98      1.0000 0.59200  0.31600  0.41600  Biso   1.000  C
  C99      1.0000 0.90800  0.81600  0.08400  Biso   1.000  C
  C100     1.0000 0.09200  0.81600  0.41600  Biso   1.000  C
  C101     1.0000 0.59200  0.68400  0.91600  Biso   1.000  C
  C102     1.0000 0.40800  0.68400  0.58400  Biso   1.000  C
  C103     1.0000 0.09200  0.18400  0.91600  Biso   1.000  C
  C104     1.0000 0.90800  0.18400  0.58400  Biso   1.000  C
  C105     1.0000 0.35900  0.27200  0.12600  Biso   1.000  C
  C106     1.0000 0.64100  0.27200  0.37400  Biso   1.000  C
  C107     1.0000 0.85900  0.77200  0.12600  Biso   1.000  C
  C108     1.0000 0.14100  0.77200  0.37400  Biso   1.000  C
  C109     1.0000 0.64100  0.72800  0.87400  Biso   1.000  C
  C110     1.0000 0.35900  0.72800  0.62600  Biso   1.000  C
  C111     1.0000 0.14100  0.22800  0.87400  Biso   1.000  C
  C112     1.0000 0.85900  0.22800  0.62600  Biso   1.000  C
  C113     1.0000 0.39100  0.21700  0.11800  Biso   1.000  C
  C114     1.0000 0.60900  0.21700  0.38200  Biso   1.000  C
  C115     1.0000 0.89100  0.71700  0.11800  Biso   1.000  C
  C116     1.0000 0.10900  0.71700  0.38200  Biso   1.000  C
  C117     1.0000 0.60900  0.78300  0.88200  Biso   1.000  C
  C118     1.0000 0.39100  0.78300  0.61800  Biso   1.000  C
  C119     1.0000 0.10900  0.28300  0.88200  Biso   1.000  C
  C120     1.0000 0.89100  0.28300  0.61800  Biso   1.000  C
  C121     1.0000 0.31600  0.18500  0.17200  Biso   1.000  C
  C122     1.0000 0.68400  0.18500  0.32800  Biso   1.000  C
  C123     1.0000 0.81600  0.68500  0.17200  Biso   1.000  C
  C124     1.0000 0.18400  0.68500  0.32800  Biso   1.000  C
  C125     1.0000 0.68400  0.81500  0.82800  Biso   1.000  C
  C126     1.0000 0.31600  0.81500  0.67200  Biso   1.000  C
  C127     1.0000 0.18400  0.31500  0.82800  Biso   1.000  C
  C128     1.0000 0.81600  0.31500  0.67200  Biso   1.000  C
  C129     1.0000 0.23500  0.21600  0.21000  Biso   1.000  C
  C130     1.0000 0.76500  0.21600  0.29000  Biso   1.000  C
  C131     1.0000 0.73500  0.71600  0.21000  Biso   1.000  C
  C132     1.0000 0.26500  0.71600  0.29000  Biso   1.000  C
  C133     1.0000 0.76500  0.78400  0.79000  Biso   1.000  C
  C134     1.0000 0.23500  0.78400  0.71000  Biso   1.000  C
  C135     1.0000 0.26500  0.28400  0.79000  Biso   1.000  C
  C136     1.0000 0.73500  0.28400  0.71000  Biso   1.000  C
  C137     1.0000 0.65500  0.33400  0.93900  Biso   1.000  C
  C138     1.0000 0.34500  0.33400  0.56100  Biso   1.000  C
  C139     1.0000 0.15500  0.83400  0.93900  Biso   1.000  C
  C140     1.0000 0.84500  0.83400  0.56100  Biso   1.000  C
  C141     1.0000 0.34500  0.66600  0.06100  Biso   1.000  C
  C142     1.0000 0.65500  0.66600  0.43900  Biso   1.000  C
  C143     1.0000 0.84500  0.16600  0.06100  Biso   1.000  C
  C144     1.0000 0.15500  0.16600  0.43900  Biso   1.000  C
  H1       1.0000 0.13580  0.39050  0.98090  Biso   1.000  H
  H2       1.0000 0.86420  0.39050  0.51910  Biso   1.000  H
  H3       1.0000 0.63580  0.89050  0.98090  Biso   1.000  H
  H4       1.0000 0.36420  0.89050  0.51910  Biso   1.000  H
  H5       1.0000 0.86420  0.60950  0.01910  Biso   1.000  H
  H6       1.0000 0.13580  0.60950  0.48090  Biso   1.000  H
  H7       1.0000 0.36420  0.10950  0.01910  Biso   1.000  H
  H8       1.0000 0.63580  0.10950  0.48090  Biso   1.000  H
  H9       1.0000 0.91080  0.41150  0.87630  Biso   1.000  H
  H10      1.0000 0.08920  0.41150  0.62370  Biso   1.000  H
  H11      1.0000 0.41080  0.91150  0.87630  Biso   1.000  H
  H12      1.0000 0.58920  0.91150  0.62370  Biso   1.000  H
  H13      1.0000 0.08920  0.58850  0.12370  Biso   1.000  H
  H14      1.0000 0.91080  0.58850  0.37630  Biso   1.000  H
  H15      1.0000 0.58920  0.08850  0.12370  Biso   1.000  H
  H16      1.0000 0.41080  0.08850  0.37630  Biso   1.000  H
  H17      1.0000 0.05110  0.56710  0.87760  Biso   1.000  H
  H18      1.0000 0.94890  0.56710  0.62240  Biso   1.000  H
  H19      1.0000 0.55110  0.06710  0.87760  Biso   1.000  H
  H20      1.0000 0.44890  0.06710  0.62240  Biso   1.000  H
  H21      1.0000 0.94890  0.43290  0.12240  Biso   1.000  H
  H22      1.0000 0.05110  0.43290  0.37760  Biso   1.000  H
  H23      1.0000 0.44890  0.93290  0.12240  Biso   1.000  H
  H24      1.0000 0.55110  0.93290  0.37760  Biso   1.000  H
  H25      1.0000 0.28320  0.53780  0.97880  Biso   1.000  H
  H26      1.0000 0.71680  0.53780  0.52120  Biso   1.000  H
  H27      1.0000 0.78320  0.03780  0.97880  Biso   1.000  H
  H28      1.0000 0.21680  0.03780  0.52120  Biso   1.000  H
  H29      1.0000 0.71680  0.46220  0.02120  Biso   1.000  H
  H30      1.0000 0.28320  0.46220  0.47880  Biso   1.000  H
  H31      1.0000 0.21680  0.96220  0.02120  Biso   1.000  H
  H32      1.0000 0.78320  0.96220  0.47880  Biso   1.000  H
  H33      1.0000 0.61340  0.60610  0.71140  Biso   1.000  H
  H34      1.0000 0.38660  0.60610  0.78860  Biso   1.000  H
  H35      1.0000 0.11340  0.10610  0.71140  Biso   1.000  H
  H36      1.0000 0.88660  0.10610  0.78860  Biso   1.000  H
  H37      1.0000 0.38660  0.39390  0.28860  Biso   1.000  H
  H38      1.0000 0.61340  0.39390  0.21140  Biso   1.000  H
  H39      1.0000 0.88660  0.89390  0.28860  Biso   1.000  H
  H40      1.0000 0.11340  0.89390  0.21140  Biso   1.000  H
  H41      1.0000 0.83680  0.58910  0.81730  Biso   1.000  H
  H42      1.0000 0.16320  0.58910  0.68270  Biso   1.000  H
  H43      1.0000 0.33680  0.08910  0.81730  Biso   1.000  H
  H44      1.0000 0.66320  0.08910  0.68270  Biso   1.000  H
  H45      1.0000 0.16320  0.41090  0.18270  Biso   1.000  H
  H46      1.0000 0.83680  0.41090  0.31730  Biso   1.000  H
  H47      1.0000 0.66320  0.91090  0.18270  Biso   1.000  H
  H48      1.0000 0.33680  0.91090  0.31730  Biso   1.000  H
  H49      1.0000 0.75330  0.42860  0.76020  Biso   1.000  H
  H50      1.0000 0.24670  0.42860  0.73980  Biso   1.000  H
  H51      1.0000 0.25330  0.92860  0.76020  Biso   1.000  H
  H52      1.0000 0.74670  0.92860  0.73980  Biso   1.000  H
  H53      1.0000 0.24670  0.57140  0.23980  Biso   1.000  H
  H54      1.0000 0.75330  0.57140  0.26020  Biso   1.000  H
  H55      1.0000 0.74670  0.07140  0.23980  Biso   1.000  H
  H56      1.0000 0.25330  0.07140  0.26020  Biso   1.000  H
  H57      1.0000 0.56460  0.45390  0.64030  Biso   1.000  H
  H58      1.0000 0.43540  0.45390  0.85970  Biso   1.000  H
  H59      1.0000 0.06460  0.95390  0.64030  Biso   1.000  H
  H60      1.0000 0.93540  0.95390  0.85970  Biso   1.000  H
  H61      1.0000 0.43540  0.54610  0.35970  Biso   1.000  H
  H62      1.0000 0.56460  0.54610  0.14030  Biso   1.000  H
  H63      1.0000 0.93540  0.04610  0.35970  Biso   1.000  H
  H64      1.0000 0.06460  0.04610  0.14030  Biso   1.000  H
  H65      1.0000 0.54400  0.27380  0.03500  Biso   1.000  H
  H66      1.0000 0.45600  0.27380  0.46500  Biso   1.000  H
  H67      1.0000 0.04400  0.77380  0.03500  Biso   1.000  H
  H68      1.0000 0.95600  0.77380  0.46500  Biso   1.000  H
  H69      1.0000 0.45600  0.72620  0.96500  Biso   1.000  H
  H70      1.0000 0.54400  0.72620  0.53500  Biso   1.000  H
  H71      1.0000 0.95600  0.22620  0.96500  Biso   1.000  H
  H72      1.0000 0.04400  0.22620  0.53500  Biso   1.000  H
  H73      1.0000 0.45770  0.20190  0.08640  Biso   1.000  H
  H74      1.0000 0.54230  0.20190  0.41360  Biso   1.000  H
  H75      1.0000 0.95770  0.70190  0.08640  Biso   1.000  H
  H76      1.0000 0.04230  0.70190  0.41360  Biso   1.000  H
  H77      1.0000 0.54230  0.79810  0.91360  Biso   1.000  H
  H78      1.0000 0.45770  0.79810  0.58640  Biso   1.000  H
  H79      1.0000 0.04230  0.29810  0.91360  Biso   1.000  H
  H80      1.0000 0.95770  0.29810  0.58640  Biso   1.000  H
  H81      1.0000 0.31990  0.14560  0.17910  Biso   1.000  H
  H82      1.0000 0.68010  0.14560  0.32090  Biso   1.000  H
  H83      1.0000 0.81990  0.64560  0.17910  Biso   1.000  H
  H84      1.0000 0.18010  0.64560  0.32090  Biso   1.000  H
  H85      1.0000 0.68010  0.85440  0.82090  Biso   1.000  H
  H86      1.0000 0.31990  0.85440  0.67910  Biso   1.000  H
  H87      1.0000 0.18010  0.35440  0.82090  Biso   1.000  H
  H88      1.0000 0.81990  0.35440  0.67910  Biso   1.000  H
  H89      1.0000 0.17850  0.20060  0.24750  Biso   1.000  H
  H90      1.0000 0.82150  0.20060  0.25250  Biso   1.000  H
  H91      1.0000 0.67850  0.70060  0.24750  Biso   1.000  H
  H92      1.0000 0.32150  0.70060  0.25250  Biso   1.000  H
  H93      1.0000 0.82150  0.79940  0.75250  Biso   1.000  H
  H94      1.0000 0.17850  0.79940  0.74750  Biso   1.000  H
  H95      1.0000 0.32150  0.29940  0.75250  Biso   1.000  H
  H96      1.0000 0.67850  0.29940  0.74750  Biso   1.000  H
