data_image0
_cell_length_a       5.7114
_cell_length_b       15.37
_cell_length_c       10.7601
_cell_angle_alpha    90
_cell_angle_beta     104.329
_cell_angle_gamma    90

_symmetry_space_group_name_H-M    "P 1"
_symmetry_int_tables_number       1

loop_
  _symmetry_equiv_pos_as_xyz
  'x, y, z'

loop_
  _atom_site_label
  _atom_site_occupancy
  _atom_site_fract_x
  _atom_site_fract_y
  _atom_site_fract_z
  _atom_site_thermal_displace_type
  _atom_site_B_iso_or_equiv
  _atom_site_type_symbol
  Cu1      1.0000 0.42458  0.75000  0.40636  Biso   1.000  Cu
  Cu2      1.0000 0.57542  0.25000  0.59364  Biso   1.000  Cu
  C1       1.0000 0.87190  0.75000  0.29430  Biso   1.000  C
  C2       1.0000 0.12810  0.25000  0.70570  Biso   1.000  C
  C3       1.0000 0.20650  0.59790  0.52750  Biso   1.000  C
  C4       1.0000 0.79350  0.09790  0.47250  Biso   1.000  C
  C5       1.0000 0.79350  0.40210  0.47250  Biso   1.000  C
  C6       1.0000 0.20650  0.90210  0.52750  Biso   1.000  C
  H1       1.0000 0.05260  0.60920  0.47660  Biso   1.000  H
  H2       1.0000 0.94740  0.10920  0.52340  Biso   1.000  H
  H3       1.0000 0.94740  0.39080  0.52340  Biso   1.000  H
  H4       1.0000 0.05260  0.89080  0.47660  Biso   1.000  H
  C7       1.0000 0.57240  0.60600  0.60520  Biso   1.000  C
  C8       1.0000 0.42760  0.10600  0.39480  Biso   1.000  C
  C9       1.0000 0.42760  0.39400  0.39480  Biso   1.000  C
  C10      1.0000 0.57240  0.89400  0.60520  Biso   1.000  C
  H5       1.0000 0.73400  0.62240  0.62360  Biso   1.000  H
  H6       1.0000 0.26600  0.12240  0.37640  Biso   1.000  H
  H7       1.0000 0.26600  0.37760  0.37640  Biso   1.000  H
  H8       1.0000 0.73400  0.87760  0.62360  Biso   1.000  H
  C11      1.0000 0.62280  0.47870  0.75590  Biso   1.000  C
  C12      1.0000 0.37720  0.97870  0.24410  Biso   1.000  C
  C13      1.0000 0.37720  0.52130  0.24410  Biso   1.000  C
  C14      1.0000 0.62280  0.02130  0.75590  Biso   1.000  C
  H9       1.0000 0.79510  0.48740  0.76760  Biso   1.000  H
  H10      1.0000 0.20490  0.98740  0.23240  Biso   1.000  H
  H11      1.0000 0.20490  0.51260  0.23240  Biso   1.000  H
  H12      1.0000 0.79510  0.01260  0.76760  Biso   1.000  H
  H13      1.0000 0.58460  0.41980  0.72520  Biso   1.000  H
  H14      1.0000 0.41540  0.91980  0.27480  Biso   1.000  H
  H15      1.0000 0.41540  0.58020  0.27480  Biso   1.000  H
  H16      1.0000 0.58460  0.08020  0.72520  Biso   1.000  H
  C15      1.0000 0.55900  0.48990  0.88280  Biso   1.000  C
  C16      1.0000 0.44100  0.98990  0.11720  Biso   1.000  C
  C17      1.0000 0.44100  0.51010  0.11720  Biso   1.000  C
  C18      1.0000 0.55900  0.01010  0.88280  Biso   1.000  C
  C19      1.0000 0.69350  0.54360  0.97630  Biso   1.000  C
  C20      1.0000 0.30650  0.04360  0.02370  Biso   1.000  C
  C21      1.0000 0.30650  0.45640  0.02370  Biso   1.000  C
  C22      1.0000 0.69350  0.95640  0.97630  Biso   1.000  C
  H17      1.0000 0.82550  0.57340  0.96130  Biso   1.000  H
  H18      1.0000 0.17450  0.07340  0.03870  Biso   1.000  H
  H19      1.0000 0.17450  0.42660  0.03870  Biso   1.000  H
  H20      1.0000 0.82550  0.92660  0.96130  Biso   1.000  H
  C23      1.0000 0.63380  0.55320  0.09140  Biso   1.000  C
  C24      1.0000 0.36620  0.05320  0.90860  Biso   1.000  C
  C25      1.0000 0.36620  0.44680  0.90860  Biso   1.000  C
  C26      1.0000 0.63380  0.94680  0.09140  Biso   1.000  C
  H21      1.0000 0.72620  0.58970  0.15340  Biso   1.000  H
  H22      1.0000 0.27380  0.08970  0.84660  Biso   1.000  H
  H23      1.0000 0.27380  0.41030  0.84660  Biso   1.000  H
  H24      1.0000 0.72620  0.91030  0.15340  Biso   1.000  H
  N1       1.0000 0.71260  0.75000  0.34160  Biso   1.000  N
  N2       1.0000 0.28740  0.25000  0.65840  Biso   1.000  N
  N3       1.0000 0.40040  0.64516  0.52170  Biso   1.000  N
  N4       1.0000 0.59960  0.14516  0.47830  Biso   1.000  N
  N5       1.0000 0.59960  0.35484  0.47830  Biso   1.000  N
  N6       1.0000 0.40040  0.85484  0.52170  Biso   1.000  N
  N7       1.0000 0.49030  0.54057  0.66000  Biso   1.000  N
  N8       1.0000 0.50970  0.04057  0.34000  Biso   1.000  N
  N9       1.0000 0.50970  0.45943  0.34000  Biso   1.000  N
  N10      1.0000 0.49030  0.95943  0.66000  Biso   1.000  N
  N11      1.0000 0.25240  0.53420  0.61130  Biso   1.000  N
  N12      1.0000 0.74760  0.03420  0.38870  Biso   1.000  N
  N13      1.0000 0.74760  0.46580  0.38870  Biso   1.000  N
  N14      1.0000 0.25240  0.96580  0.61130  Biso   1.000  N
  S1       1.0000 0.09601  0.75000  0.22366  Biso   1.000  S
  S2       1.0000 0.90399  0.25000  0.77634  Biso   1.000  S
  C27      1.0000 0.14800  0.75000  0.84770  Biso   1.000  C
  C28      1.0000 0.85200  0.25000  0.15230  Biso   1.000  C
  C29      1.0000 0.38000  0.75000  0.91230  Biso   1.000  C
  C30      1.0000 0.62000  0.25000  0.08770  Biso   1.000  C
  N15      1.0000 0.95300  0.75000  0.80110  Biso   1.000  N
  N16      1.0000 0.04700  0.25000  0.19890  Biso   1.000  N
  H25      1.0000 0.39770  0.71850  0.99120  Biso   1.000  H
  H26      1.0000 0.60230  0.21850  0.00880  Biso   1.000  H
  H27      1.0000 0.60230  0.28150  0.00880  Biso   1.000  H
  H28      1.0000 0.39770  0.78150  0.99120  Biso   1.000  H
  H29      1.0000 0.43390  0.80880  0.93090  Biso   1.000  H
  H30      1.0000 0.56610  0.30880  0.06910  Biso   1.000  H
  H31      1.0000 0.56610  0.19120  0.06910  Biso   1.000  H
  H32      1.0000 0.43390  0.69120  0.93090  Biso   1.000  H
  H33      1.0000 0.47570  0.72260  0.86150  Biso   1.000  H
  H34      1.0000 0.52430  0.22260  0.13850  Biso   1.000  H
  H35      1.0000 0.52430  0.27740  0.13850  Biso   1.000  H
  H36      1.0000 0.47570  0.77740  0.86150  Biso   1.000  H
