data_image0
_cell_length_a       18.12
_cell_length_b       18.12
_cell_length_c       7.5177
_cell_angle_alpha    90
_cell_angle_beta     90
_cell_angle_gamma    120

_symmetry_space_group_name_H-M    "P 1"
_symmetry_int_tables_number       1

loop_
  _symmetry_equiv_pos_as_xyz
  'x, y, z'

loop_
  _atom_site_label
  _atom_site_occupancy
  _atom_site_fract_x
  _atom_site_fract_y
  _atom_site_fract_z
  _atom_site_thermal_displace_type
  _atom_site_B_iso_or_equiv
  _atom_site_type_symbol
  I1       1.0000 0.46006  0.35963  0.62261  Biso   1.000  I
  I2       1.0000 0.10043  0.46006  0.95594  Biso   1.000  I
  I3       1.0000 0.64037  0.10043  0.28928  Biso   1.000  I
  I4       1.0000 0.53994  0.64037  0.62261  Biso   1.000  I
  I5       1.0000 0.89957  0.53994  0.95594  Biso   1.000  I
  I6       1.0000 0.35963  0.89957  0.28928  Biso   1.000  I
  I7       1.0000 0.64037  0.53994  0.04406  Biso   1.000  I
  I8       1.0000 0.10043  0.64037  0.37739  Biso   1.000  I
  I9       1.0000 0.46006  0.10043  0.71072  Biso   1.000  I
  I10      1.0000 0.35963  0.46006  0.04406  Biso   1.000  I
  I11      1.0000 0.89957  0.35963  0.37739  Biso   1.000  I
  I12      1.0000 0.53994  0.89957  0.71072  Biso   1.000  I
  Cu1      1.0000 0.47942  0.41915  0.96138  Biso   1.000  Cu
  Cu2      1.0000 0.06027  0.47942  0.29471  Biso   1.000  Cu
  Cu3      1.0000 0.58085  0.06027  0.62805  Biso   1.000  Cu
  Cu4      1.0000 0.52058  0.58085  0.96138  Biso   1.000  Cu
  Cu5      1.0000 0.93973  0.52058  0.29471  Biso   1.000  Cu
  Cu6      1.0000 0.41915  0.93973  0.62805  Biso   1.000  Cu
  Cu7      1.0000 0.58085  0.52058  0.70529  Biso   1.000  Cu
  Cu8      1.0000 0.06027  0.58085  0.03862  Biso   1.000  Cu
  Cu9      1.0000 0.47942  0.06027  0.37195  Biso   1.000  Cu
  Cu10     1.0000 0.41915  0.47942  0.70529  Biso   1.000  Cu
  Cu11     1.0000 0.93973  0.41915  0.03862  Biso   1.000  Cu
  Cu12     1.0000 0.52058  0.93973  0.37195  Biso   1.000  Cu
  N1       1.0000 0.45340  0.31520  0.11790  Biso   1.000  N
  N2       1.0000 0.13820  0.45340  0.45123  Biso   1.000  N
  N3       1.0000 0.68480  0.13820  0.78457  Biso   1.000  N
  N4       1.0000 0.54660  0.68480  0.11790  Biso   1.000  N
  N5       1.0000 0.86180  0.54660  0.45123  Biso   1.000  N
  N6       1.0000 0.31520  0.86180  0.78457  Biso   1.000  N
  N7       1.0000 0.68480  0.54660  0.54877  Biso   1.000  N
  N8       1.0000 0.13820  0.68480  0.88210  Biso   1.000  N
  N9       1.0000 0.45340  0.13820  0.21543  Biso   1.000  N
  N10      1.0000 0.31520  0.45340  0.54877  Biso   1.000  N
  N11      1.0000 0.86180  0.31520  0.88210  Biso   1.000  N
  N12      1.0000 0.54660  0.86180  0.21543  Biso   1.000  N
  C1       1.0000 0.36600  0.24570  0.08820  Biso   1.000  C
  C2       1.0000 0.12030  0.36600  0.42153  Biso   1.000  C
  C3       1.0000 0.75430  0.12030  0.75487  Biso   1.000  C
  C4       1.0000 0.63400  0.75430  0.08820  Biso   1.000  C
  C5       1.0000 0.87970  0.63400  0.42153  Biso   1.000  C
  C6       1.0000 0.24570  0.87970  0.75487  Biso   1.000  C
  C7       1.0000 0.75430  0.63400  0.57847  Biso   1.000  C
  C8       1.0000 0.12030  0.75430  0.91180  Biso   1.000  C
  C9       1.0000 0.36600  0.12030  0.24513  Biso   1.000  C
  C10      1.0000 0.24570  0.36600  0.57847  Biso   1.000  C
  C11      1.0000 0.87970  0.24570  0.91180  Biso   1.000  C
  C12      1.0000 0.63400  0.87970  0.24513  Biso   1.000  C
  H1       1.0000 0.32900  0.26790  0.12010  Biso   1.000  H
  H2       1.0000 0.06110  0.32900  0.45343  Biso   1.000  H
  H3       1.0000 0.73210  0.06110  0.78677  Biso   1.000  H
  H4       1.0000 0.67100  0.73210  0.12010  Biso   1.000  H
  H5       1.0000 0.93890  0.67100  0.45343  Biso   1.000  H
  H6       1.0000 0.26790  0.93890  0.78677  Biso   1.000  H
  H7       1.0000 0.73210  0.67100  0.54657  Biso   1.000  H
  H8       1.0000 0.06110  0.73210  0.87990  Biso   1.000  H
  H9       1.0000 0.32900  0.06110  0.21323  Biso   1.000  H
  H10      1.0000 0.26790  0.32900  0.54657  Biso   1.000  H
  H11      1.0000 0.93890  0.26790  0.87990  Biso   1.000  H
  H12      1.0000 0.67100  0.93890  0.21323  Biso   1.000  H
  H13      1.0000 0.36010  0.23610  0.96080  Biso   1.000  H
  H14      1.0000 0.12400  0.36010  0.29413  Biso   1.000  H
  H15      1.0000 0.76390  0.12400  0.62747  Biso   1.000  H
  H16      1.0000 0.63990  0.76390  0.96080  Biso   1.000  H
  H17      1.0000 0.87600  0.63990  0.29413  Biso   1.000  H
  H18      1.0000 0.23610  0.87600  0.62747  Biso   1.000  H
  H19      1.0000 0.76390  0.63990  0.70587  Biso   1.000  H
  H20      1.0000 0.12400  0.76390  0.03920  Biso   1.000  H
  H21      1.0000 0.36010  0.12400  0.37253  Biso   1.000  H
  H22      1.0000 0.23610  0.36010  0.70587  Biso   1.000  H
  H23      1.0000 0.87600  0.23610  0.03920  Biso   1.000  H
  H24      1.0000 0.63990  0.87600  0.37253  Biso   1.000  H
  C13      1.0000 0.33080  0.16540  0.16670  Biso   1.000  C
  C14      1.0000 0.16540  0.33080  0.50003  Biso   1.000  C
  C15      1.0000 0.83460  0.16540  0.83337  Biso   1.000  C
  C16      1.0000 0.66920  0.83460  0.16670  Biso   1.000  C
  C17      1.0000 0.83460  0.66920  0.50003  Biso   1.000  C
  C18      1.0000 0.16540  0.83460  0.83337  Biso   1.000  C
  C19      1.0000 0.51770  0.29010  0.10240  Biso   1.000  C
  C20      1.0000 0.22760  0.51770  0.43573  Biso   1.000  C
  C21      1.0000 0.70990  0.22760  0.76907  Biso   1.000  C
  C22      1.0000 0.48230  0.70990  0.10240  Biso   1.000  C
  C23      1.0000 0.77240  0.48230  0.43573  Biso   1.000  C
  C24      1.0000 0.29010  0.77240  0.76907  Biso   1.000  C
  C25      1.0000 0.70990  0.48230  0.56427  Biso   1.000  C
  C26      1.0000 0.22760  0.70990  0.89760  Biso   1.000  C
  C27      1.0000 0.51770  0.22760  0.23093  Biso   1.000  C
  C28      1.0000 0.29010  0.51770  0.56427  Biso   1.000  C
  C29      1.0000 0.77240  0.29010  0.89760  Biso   1.000  C
  C30      1.0000 0.48230  0.77240  0.23093  Biso   1.000  C
  H25      1.0000 0.57300  0.34150  0.10990  Biso   1.000  H
  H26      1.0000 0.23150  0.57300  0.44323  Biso   1.000  H
  H27      1.0000 0.65850  0.23150  0.77657  Biso   1.000  H
  H28      1.0000 0.42700  0.65850  0.10990  Biso   1.000  H
  H29      1.0000 0.76850  0.42700  0.44323  Biso   1.000  H
  H30      1.0000 0.34150  0.76850  0.77657  Biso   1.000  H
  H31      1.0000 0.65850  0.42700  0.55677  Biso   1.000  H
  H32      1.0000 0.23150  0.65850  0.89010  Biso   1.000  H
  H33      1.0000 0.57300  0.23150  0.22343  Biso   1.000  H
  H34      1.0000 0.34150  0.57300  0.55677  Biso   1.000  H
  H35      1.0000 0.76850  0.34150  0.89010  Biso   1.000  H
  H36      1.0000 0.42700  0.76850  0.22343  Biso   1.000  H
  H37      1.0000 0.51310  0.26710  0.98390  Biso   1.000  H
  H38      1.0000 0.24600  0.51310  0.31723  Biso   1.000  H
  H39      1.0000 0.73290  0.24600  0.65057  Biso   1.000  H
  H40      1.0000 0.48690  0.73290  0.98390  Biso   1.000  H
  H41      1.0000 0.75400  0.48690  0.31723  Biso   1.000  H
  H42      1.0000 0.26710  0.75400  0.65057  Biso   1.000  H
  H43      1.0000 0.73290  0.48690  0.68277  Biso   1.000  H
  H44      1.0000 0.24600  0.73290  0.01610  Biso   1.000  H
  H45      1.0000 0.51310  0.24600  0.34943  Biso   1.000  H
  H46      1.0000 0.26710  0.51310  0.68277  Biso   1.000  H
  H47      1.0000 0.75400  0.26710  0.01610  Biso   1.000  H
  H48      1.0000 0.48690  0.75400  0.34943  Biso   1.000  H
