data_image0
_cell_length_a       9.763
_cell_length_b       15.902
_cell_length_c       9.503
_cell_angle_alpha    90
_cell_angle_beta     109.733
_cell_angle_gamma    90

_symmetry_space_group_name_H-M    "P 1"
_symmetry_int_tables_number       1

loop_
  _symmetry_equiv_pos_as_xyz
  'x, y, z'

loop_
  _atom_site_label
  _atom_site_occupancy
  _atom_site_fract_x
  _atom_site_fract_y
  _atom_site_fract_z
  _atom_site_thermal_displace_type
  _atom_site_B_iso_or_equiv
  _atom_site_type_symbol
  C1       1.0000 0.00150  0.79850  0.92150  Biso   1.000  C
  C2       1.0000 0.99850  0.79850  0.57850  Biso   1.000  C
  C3       1.0000 0.50150  0.29850  0.92150  Biso   1.000  C
  C4       1.0000 0.49850  0.29850  0.57850  Biso   1.000  C
  C5       1.0000 0.99850  0.20150  0.07850  Biso   1.000  C
  C6       1.0000 0.00150  0.20150  0.42150  Biso   1.000  C
  C7       1.0000 0.49850  0.70150  0.07850  Biso   1.000  C
  C8       1.0000 0.50150  0.70150  0.42150  Biso   1.000  C
  H1       1.0000 0.07520  0.83850  0.94940  Biso   1.000  H
  H2       1.0000 0.92480  0.83850  0.55060  Biso   1.000  H
  H3       1.0000 0.57520  0.33850  0.94940  Biso   1.000  H
  H4       1.0000 0.42480  0.33850  0.55060  Biso   1.000  H
  H5       1.0000 0.92480  0.16150  0.05060  Biso   1.000  H
  H6       1.0000 0.07520  0.16150  0.44940  Biso   1.000  H
  H7       1.0000 0.42480  0.66150  0.05060  Biso   1.000  H
  H8       1.0000 0.57520  0.66150  0.44940  Biso   1.000  H
  C9       1.0000 0.04080  0.71520  0.93580  Biso   1.000  C
  C10      1.0000 0.95920  0.71520  0.56420  Biso   1.000  C
  C11      1.0000 0.54080  0.21520  0.93580  Biso   1.000  C
  C12      1.0000 0.45920  0.21520  0.56420  Biso   1.000  C
  C13      1.0000 0.95920  0.28480  0.06420  Biso   1.000  C
  C14      1.0000 0.04080  0.28480  0.43580  Biso   1.000  C
  C15      1.0000 0.45920  0.78480  0.06420  Biso   1.000  C
  C16      1.0000 0.54080  0.78480  0.43580  Biso   1.000  C
  H9       1.0000 0.13830  0.69980  0.97380  Biso   1.000  H
  H10      1.0000 0.86170  0.69980  0.52620  Biso   1.000  H
  H11      1.0000 0.63830  0.19980  0.97380  Biso   1.000  H
  H12      1.0000 0.36170  0.19980  0.52620  Biso   1.000  H
  H13      1.0000 0.86170  0.30020  0.02620  Biso   1.000  H
  H14      1.0000 0.13830  0.30020  0.47380  Biso   1.000  H
  H15      1.0000 0.36170  0.80020  0.02620  Biso   1.000  H
  H16      1.0000 0.63830  0.80020  0.47380  Biso   1.000  H
  C17      1.0000 0.93460  0.65510  0.89360  Biso   1.000  C
  C18      1.0000 0.06540  0.65510  0.60640  Biso   1.000  C
  C19      1.0000 0.43460  0.15510  0.89360  Biso   1.000  C
  C20      1.0000 0.56540  0.15510  0.60640  Biso   1.000  C
  C21      1.0000 0.06540  0.34490  0.10640  Biso   1.000  C
  C22      1.0000 0.93460  0.34490  0.39360  Biso   1.000  C
  C23      1.0000 0.56540  0.84490  0.10640  Biso   1.000  C
  C24      1.0000 0.43460  0.84490  0.39360  Biso   1.000  C
  H17      1.0000 0.95860  0.59830  0.90130  Biso   1.000  H
  H18      1.0000 0.04140  0.59830  0.59870  Biso   1.000  H
  H19      1.0000 0.45860  0.09830  0.90130  Biso   1.000  H
  H20      1.0000 0.54140  0.09830  0.59870  Biso   1.000  H
  H21      1.0000 0.04140  0.40170  0.09870  Biso   1.000  H
  H22      1.0000 0.95860  0.40170  0.40130  Biso   1.000  H
  H23      1.0000 0.54140  0.90170  0.09870  Biso   1.000  H
  H24      1.0000 0.45860  0.90170  0.40130  Biso   1.000  H
  C25      1.0000 0.79120  0.68040  0.83940  Biso   1.000  C
  C26      1.0000 0.20880  0.68040  0.66060  Biso   1.000  C
  C27      1.0000 0.29120  0.18040  0.83940  Biso   1.000  C
  C28      1.0000 0.70880  0.18040  0.66060  Biso   1.000  C
  C29      1.0000 0.20880  0.31960  0.16060  Biso   1.000  C
  C30      1.0000 0.79120  0.31960  0.33940  Biso   1.000  C
  C31      1.0000 0.70880  0.81960  0.16060  Biso   1.000  C
  C32      1.0000 0.29120  0.81960  0.33940  Biso   1.000  C
  H25      1.0000 0.71640  0.64120  0.80890  Biso   1.000  H
  H26      1.0000 0.28360  0.64120  0.69110  Biso   1.000  H
  H27      1.0000 0.21640  0.14120  0.80890  Biso   1.000  H
  H28      1.0000 0.78360  0.14120  0.69110  Biso   1.000  H
  H29      1.0000 0.28360  0.35880  0.19110  Biso   1.000  H
  H30      1.0000 0.71640  0.35880  0.30890  Biso   1.000  H
  H31      1.0000 0.78360  0.85880  0.19110  Biso   1.000  H
  H32      1.0000 0.21640  0.85880  0.30890  Biso   1.000  H
  C33      1.0000 0.76180  0.76440  0.83160  Biso   1.000  C
  C34      1.0000 0.23820  0.76440  0.66840  Biso   1.000  C
  C35      1.0000 0.26180  0.26440  0.83160  Biso   1.000  C
  C36      1.0000 0.73820  0.26440  0.66840  Biso   1.000  C
  C37      1.0000 0.23820  0.23560  0.16840  Biso   1.000  C
  C38      1.0000 0.76180  0.23560  0.33160  Biso   1.000  C
  C39      1.0000 0.73820  0.73560  0.16840  Biso   1.000  C
  C40      1.0000 0.26180  0.73560  0.33160  Biso   1.000  C
  C41      1.0000 0.61480  0.79720  0.78440  Biso   1.000  C
  C42      1.0000 0.38520  0.79720  0.71560  Biso   1.000  C
  C43      1.0000 0.11480  0.29720  0.78440  Biso   1.000  C
  C44      1.0000 0.88520  0.29720  0.71560  Biso   1.000  C
  C45      1.0000 0.38520  0.20280  0.21560  Biso   1.000  C
  C46      1.0000 0.61480  0.20280  0.28440  Biso   1.000  C
  C47      1.0000 0.88520  0.70280  0.21560  Biso   1.000  C
  C48      1.0000 0.11480  0.70280  0.28440  Biso   1.000  C
  C49      1.0000 0.79500  0.00390  0.01560  Biso   1.000  C
  C50      1.0000 0.20500  0.00390  0.48440  Biso   1.000  C
  C51      1.0000 0.29500  0.50390  0.01560  Biso   1.000  C
  C52      1.0000 0.70500  0.50390  0.48440  Biso   1.000  C
  C53      1.0000 0.20500  0.99610  0.98440  Biso   1.000  C
  C54      1.0000 0.79500  0.99610  0.51560  Biso   1.000  C
  C55      1.0000 0.70500  0.49610  0.98440  Biso   1.000  C
  C56      1.0000 0.29500  0.49610  0.51560  Biso   1.000  C
  Cu1      1.0000 0.78832  0.95874  0.82925  Biso   1.000  Cu
  Cu2      1.0000 0.21168  0.95874  0.67075  Biso   1.000  Cu
  Cu3      1.0000 0.28832  0.45874  0.82925  Biso   1.000  Cu
  Cu4      1.0000 0.71168  0.45874  0.67075  Biso   1.000  Cu
  Cu5      1.0000 0.21168  0.04126  0.17075  Biso   1.000  Cu
  Cu6      1.0000 0.78832  0.04126  0.32925  Biso   1.000  Cu
  Cu7      1.0000 0.71168  0.54126  0.17075  Biso   1.000  Cu
  Cu8      1.0000 0.28832  0.54126  0.32925  Biso   1.000  Cu
  N1       1.0000 0.86480  0.82524  0.87040  Biso   1.000  N
  N2       1.0000 0.13520  0.82524  0.62960  Biso   1.000  N
  N3       1.0000 0.36480  0.32524  0.87040  Biso   1.000  N
  N4       1.0000 0.63520  0.32524  0.62960  Biso   1.000  N
  N5       1.0000 0.13520  0.17476  0.12960  Biso   1.000  N
  N6       1.0000 0.86480  0.17476  0.37040  Biso   1.000  N
  N7       1.0000 0.63520  0.67476  0.12960  Biso   1.000  N
  N8       1.0000 0.36480  0.67476  0.37040  Biso   1.000  N
  N9       1.0000 0.57620  0.87519  0.77260  Biso   1.000  N
  N10      1.0000 0.42380  0.87519  0.72740  Biso   1.000  N
  N11      1.0000 0.07620  0.37519  0.77260  Biso   1.000  N
  N12      1.0000 0.92380  0.37519  0.72740  Biso   1.000  N
  N13      1.0000 0.42380  0.12481  0.22740  Biso   1.000  N
  N14      1.0000 0.57620  0.12481  0.27260  Biso   1.000  N
  N15      1.0000 0.92380  0.62481  0.22740  Biso   1.000  N
  N16      1.0000 0.07620  0.62481  0.27260  Biso   1.000  N
  N17      1.0000 0.79440  0.02056  0.13180  Biso   1.000  N
  N18      1.0000 0.20560  0.02056  0.36820  Biso   1.000  N
  N19      1.0000 0.29440  0.52056  0.13180  Biso   1.000  N
  N20      1.0000 0.70560  0.52056  0.36820  Biso   1.000  N
  N21      1.0000 0.20560  0.97944  0.86820  Biso   1.000  N
  N22      1.0000 0.79440  0.97944  0.63180  Biso   1.000  N
  N23      1.0000 0.70560  0.47944  0.86820  Biso   1.000  N
  N24      1.0000 0.29440  0.47944  0.63180  Biso   1.000  N
  O1       1.0000 0.50000  0.74410  0.75000  Biso   1.000  O
  O2       1.0000 0.00000  0.24410  0.75000  Biso   1.000  O
  O3       1.0000 0.50000  0.25590  0.25000  Biso   1.000  O
  O4       1.0000 0.00000  0.75590  0.25000  Biso   1.000  O
