data_image0
_cell_length_a       14.31
_cell_length_b       21.062
_cell_length_c       11.25
_cell_angle_alpha    90
_cell_angle_beta     121.07
_cell_angle_gamma    90

_symmetry_space_group_name_H-M    "P 1"
_symmetry_int_tables_number       1

loop_
  _symmetry_equiv_pos_as_xyz
  'x, y, z'

loop_
  _atom_site_label
  _atom_site_occupancy
  _atom_site_fract_x
  _atom_site_fract_y
  _atom_site_fract_z
  _atom_site_thermal_displace_type
  _atom_site_B_iso_or_equiv
  _atom_site_type_symbol
  Cu1      1.0000 0.00000  0.07269  0.25000  Biso   1.000  Cu
  Cu2      1.0000 0.50000  0.57269  0.25000  Biso   1.000  Cu
  Cu3      1.0000 0.00000  0.92731  0.75000  Biso   1.000  Cu
  Cu4      1.0000 0.50000  0.42731  0.75000  Biso   1.000  Cu
  S1       1.0000 0.09847  0.00931  0.44099  Biso   1.000  S
  S2       1.0000 0.59847  0.50931  0.44099  Biso   1.000  S
  S3       1.0000 0.90153  0.00931  0.05901  Biso   1.000  S
  S4       1.0000 0.40153  0.50931  0.05901  Biso   1.000  S
  S5       1.0000 0.90153  0.99069  0.55901  Biso   1.000  S
  S6       1.0000 0.40153  0.49069  0.55901  Biso   1.000  S
  S7       1.0000 0.09847  0.99069  0.94099  Biso   1.000  S
  S8       1.0000 0.59847  0.49069  0.94099  Biso   1.000  S
  N1       1.0000 0.84924  0.14667  0.31510  Biso   1.000  N
  N2       1.0000 0.34924  0.64667  0.31510  Biso   1.000  N
  N3       1.0000 0.15076  0.14667  0.18490  Biso   1.000  N
  N4       1.0000 0.65076  0.64667  0.18490  Biso   1.000  N
  N5       1.0000 0.15076  0.85333  0.68490  Biso   1.000  N
  N6       1.0000 0.65076  0.35333  0.68490  Biso   1.000  N
  N7       1.0000 0.84924  0.85333  0.81510  Biso   1.000  N
  N8       1.0000 0.34924  0.35333  0.81510  Biso   1.000  N
  N9       1.0000 0.95008  0.12148  0.36130  Biso   1.000  N
  N10      1.0000 0.45008  0.62148  0.36130  Biso   1.000  N
  N11      1.0000 0.04992  0.12148  0.13870  Biso   1.000  N
  N12      1.0000 0.54992  0.62148  0.13870  Biso   1.000  N
  N13      1.0000 0.04992  0.87852  0.63870  Biso   1.000  N
  N14      1.0000 0.54992  0.37852  0.63870  Biso   1.000  N
  N15      1.0000 0.95008  0.87852  0.86130  Biso   1.000  N
  N16      1.0000 0.45008  0.37852  0.86130  Biso   1.000  N
  C1       1.0000 0.75700  0.19873  0.08340  Biso   1.000  C
  C2       1.0000 0.25700  0.69873  0.08340  Biso   1.000  C
  C3       1.0000 0.24300  0.19873  0.41660  Biso   1.000  C
  C4       1.0000 0.74300  0.69873  0.41660  Biso   1.000  C
  C5       1.0000 0.24300  0.80127  0.91660  Biso   1.000  C
  C6       1.0000 0.74300  0.30127  0.91660  Biso   1.000  C
  C7       1.0000 0.75700  0.80127  0.58340  Biso   1.000  C
  C8       1.0000 0.25700  0.30127  0.58340  Biso   1.000  C
  C9       1.0000 0.84620  0.23742  0.12090  Biso   1.000  C
  C10      1.0000 0.34620  0.73742  0.12090  Biso   1.000  C
  C11      1.0000 0.15380  0.23742  0.37910  Biso   1.000  C
  C12      1.0000 0.65380  0.73742  0.37910  Biso   1.000  C
  C13      1.0000 0.15380  0.76258  0.87910  Biso   1.000  C
  C14      1.0000 0.65380  0.26258  0.87910  Biso   1.000  C
  C15      1.0000 0.84620  0.76258  0.62090  Biso   1.000  C
  C16      1.0000 0.34620  0.26258  0.62090  Biso   1.000  C
  H1       1.0000 0.91280  0.22920  0.20490  Biso   1.000  H
  H2       1.0000 0.41280  0.72920  0.20490  Biso   1.000  H
  H3       1.0000 0.08720  0.22920  0.29510  Biso   1.000  H
  H4       1.0000 0.58720  0.72920  0.29510  Biso   1.000  H
  H5       1.0000 0.08720  0.77080  0.79510  Biso   1.000  H
  H6       1.0000 0.58720  0.27080  0.79510  Biso   1.000  H
  H7       1.0000 0.91280  0.77080  0.70490  Biso   1.000  H
  H8       1.0000 0.41280  0.27080  0.70490  Biso   1.000  H
  C17      1.0000 0.65970  0.21226  0.96150  Biso   1.000  C
  C18      1.0000 0.15970  0.71226  0.96150  Biso   1.000  C
  C19      1.0000 0.34030  0.21226  0.53850  Biso   1.000  C
  C20      1.0000 0.84030  0.71226  0.53850  Biso   1.000  C
  C21      1.0000 0.34030  0.78774  0.03850  Biso   1.000  C
  C22      1.0000 0.84030  0.28774  0.03850  Biso   1.000  C
  C23      1.0000 0.65970  0.78774  0.46150  Biso   1.000  C
  C24      1.0000 0.15970  0.28774  0.46150  Biso   1.000  C
  H9       1.0000 0.59710  0.18680  0.93460  Biso   1.000  H
  H10      1.0000 0.09710  0.68680  0.93460  Biso   1.000  H
  H11      1.0000 0.40290  0.18680  0.56540  Biso   1.000  H
  H12      1.0000 0.90290  0.68680  0.56540  Biso   1.000  H
  H13      1.0000 0.40290  0.81320  0.06540  Biso   1.000  H
  H14      1.0000 0.90290  0.31320  0.06540  Biso   1.000  H
  H15      1.0000 0.59710  0.81320  0.43460  Biso   1.000  H
  H16      1.0000 0.09710  0.31320  0.43460  Biso   1.000  H
  C25      1.0000 0.76350  0.14200  0.16920  Biso   1.000  C
  C26      1.0000 0.26350  0.64200  0.16920  Biso   1.000  C
  C27      1.0000 0.23650  0.14200  0.33080  Biso   1.000  C
  C28      1.0000 0.73650  0.64200  0.33080  Biso   1.000  C
  C29      1.0000 0.23650  0.85800  0.83080  Biso   1.000  C
  C30      1.0000 0.73650  0.35800  0.83080  Biso   1.000  C
  C31      1.0000 0.76350  0.85800  0.66920  Biso   1.000  C
  C32      1.0000 0.26350  0.35800  0.66920  Biso   1.000  C
  H17      1.0000 0.69240  0.13680  0.16320  Biso   1.000  H
  H18      1.0000 0.19240  0.63680  0.16320  Biso   1.000  H
  H19      1.0000 0.30760  0.13680  0.33680  Biso   1.000  H
  H20      1.0000 0.80760  0.63680  0.33680  Biso   1.000  H
  H21      1.0000 0.30760  0.86320  0.83680  Biso   1.000  H
  H22      1.0000 0.80760  0.36320  0.83680  Biso   1.000  H
  H23      1.0000 0.69240  0.86320  0.66320  Biso   1.000  H
  H24      1.0000 0.19240  0.36320  0.66320  Biso   1.000  H
  H25      1.0000 0.77630  0.10350  0.12900  Biso   1.000  H
  H26      1.0000 0.27630  0.60350  0.12900  Biso   1.000  H
  H27      1.0000 0.22370  0.10350  0.37100  Biso   1.000  H
  H28      1.0000 0.72370  0.60350  0.37100  Biso   1.000  H
  H29      1.0000 0.22370  0.89650  0.87100  Biso   1.000  H
  H30      1.0000 0.72370  0.39650  0.87100  Biso   1.000  H
  H31      1.0000 0.77630  0.89650  0.62900  Biso   1.000  H
  H32      1.0000 0.27630  0.39650  0.62900  Biso   1.000  H
  C33      1.0000 0.84560  0.17778  0.41640  Biso   1.000  C
  C34      1.0000 0.34560  0.67778  0.41640  Biso   1.000  C
  C35      1.0000 0.15440  0.17778  0.08360  Biso   1.000  C
  C36      1.0000 0.65440  0.67778  0.08360  Biso   1.000  C
  C37      1.0000 0.15440  0.82222  0.58360  Biso   1.000  C
  C38      1.0000 0.65440  0.32222  0.58360  Biso   1.000  C
  C39      1.0000 0.84560  0.82222  0.91640  Biso   1.000  C
  C40      1.0000 0.34560  0.32222  0.91640  Biso   1.000  C
  H33      1.0000 0.78410  0.19930  0.40800  Biso   1.000  H
  H34      1.0000 0.28410  0.69930  0.40800  Biso   1.000  H
  H35      1.0000 0.21590  0.19930  0.09200  Biso   1.000  H
  H36      1.0000 0.71590  0.69930  0.09200  Biso   1.000  H
  H37      1.0000 0.21590  0.80070  0.59200  Biso   1.000  H
  H38      1.0000 0.71590  0.30070  0.59200  Biso   1.000  H
  H39      1.0000 0.78410  0.80070  0.90800  Biso   1.000  H
  H40      1.0000 0.28410  0.30070  0.90800  Biso   1.000  H
  C41      1.0000 0.94640  0.17291  0.53420  Biso   1.000  C
  C42      1.0000 0.44640  0.67291  0.53420  Biso   1.000  C
  C43      1.0000 0.05360  0.17291  0.96580  Biso   1.000  C
  C44      1.0000 0.55360  0.67291  0.96580  Biso   1.000  C
  C45      1.0000 0.05360  0.82709  0.46580  Biso   1.000  C
  C46      1.0000 0.55360  0.32709  0.46580  Biso   1.000  C
  C47      1.0000 0.94640  0.82709  0.03420  Biso   1.000  C
  C48      1.0000 0.44640  0.32709  0.03420  Biso   1.000  C
  H41      1.0000 0.96870  0.19010  0.62300  Biso   1.000  H
  H42      1.0000 0.46870  0.69010  0.62300  Biso   1.000  H
  H43      1.0000 0.03130  0.19010  0.87700  Biso   1.000  H
  H44      1.0000 0.53130  0.69010  0.87700  Biso   1.000  H
  H45      1.0000 0.03130  0.80990  0.37700  Biso   1.000  H
  H46      1.0000 0.53130  0.30990  0.37700  Biso   1.000  H
  H47      1.0000 0.96870  0.80990  0.12300  Biso   1.000  H
  H48      1.0000 0.46870  0.30990  0.12300  Biso   1.000  H
  C49      1.0000 0.01010  0.13719  0.49660  Biso   1.000  C
  C50      1.0000 0.51010  0.63719  0.49660  Biso   1.000  C
  C51      1.0000 0.98990  0.13719  0.00340  Biso   1.000  C
  C52      1.0000 0.48990  0.63719  0.00340  Biso   1.000  C
  C53      1.0000 0.98990  0.86281  0.50340  Biso   1.000  C
  C54      1.0000 0.48990  0.36281  0.50340  Biso   1.000  C
  C55      1.0000 0.01010  0.86281  0.99660  Biso   1.000  C
  C56      1.0000 0.51010  0.36281  0.99660  Biso   1.000  C
  C57      1.0000 0.12590  0.11966  0.58940  Biso   1.000  C
  C58      1.0000 0.62590  0.61966  0.58940  Biso   1.000  C
  C59      1.0000 0.87410  0.11966  0.91060  Biso   1.000  C
  C60      1.0000 0.37410  0.61966  0.91060  Biso   1.000  C
  C61      1.0000 0.87410  0.88034  0.41060  Biso   1.000  C
  C62      1.0000 0.37410  0.38034  0.41060  Biso   1.000  C
  C63      1.0000 0.12590  0.88034  0.08940  Biso   1.000  C
  C64      1.0000 0.62590  0.38034  0.08940  Biso   1.000  C
  C65      1.0000 0.18910  0.16035  0.70040  Biso   1.000  C
  C66      1.0000 0.68910  0.66035  0.70040  Biso   1.000  C
  C67      1.0000 0.81090  0.16035  0.79960  Biso   1.000  C
  C68      1.0000 0.31090  0.66035  0.79960  Biso   1.000  C
  C69      1.0000 0.81090  0.83965  0.29960  Biso   1.000  C
  C70      1.0000 0.31090  0.33965  0.29960  Biso   1.000  C
  C71      1.0000 0.18910  0.83965  0.20040  Biso   1.000  C
  C72      1.0000 0.68910  0.33965  0.20040  Biso   1.000  C
  H49      1.0000 0.15680  0.19790  0.70990  Biso   1.000  H
  H50      1.0000 0.65680  0.69790  0.70990  Biso   1.000  H
  H51      1.0000 0.84320  0.19790  0.79010  Biso   1.000  H
  H52      1.0000 0.34320  0.69790  0.79010  Biso   1.000  H
  H53      1.0000 0.84320  0.80210  0.29010  Biso   1.000  H
  H54      1.0000 0.34320  0.30210  0.29010  Biso   1.000  H
  H55      1.0000 0.15680  0.80210  0.20990  Biso   1.000  H
  H56      1.0000 0.65680  0.30210  0.20990  Biso   1.000  H
  C73      1.0000 0.29700  0.14780  0.79700  Biso   1.000  C
  C74      1.0000 0.79700  0.64780  0.79700  Biso   1.000  C
  C75      1.0000 0.70300  0.14780  0.70300  Biso   1.000  C
  C76      1.0000 0.20300  0.64780  0.70300  Biso   1.000  C
  C77      1.0000 0.70300  0.85220  0.20300  Biso   1.000  C
  C78      1.0000 0.20300  0.35220  0.20300  Biso   1.000  C
  C79      1.0000 0.29700  0.85220  0.29700  Biso   1.000  C
  C80      1.0000 0.79700  0.35220  0.29700  Biso   1.000  C
  H57      1.0000 0.33780  0.17620  0.87200  Biso   1.000  H
  H58      1.0000 0.83780  0.67620  0.87200  Biso   1.000  H
  H59      1.0000 0.66220  0.17620  0.62800  Biso   1.000  H
  H60      1.0000 0.16220  0.67620  0.62800  Biso   1.000  H
  H61      1.0000 0.66220  0.82380  0.12800  Biso   1.000  H
  H62      1.0000 0.16220  0.32380  0.12800  Biso   1.000  H
  H63      1.0000 0.33780  0.82380  0.37200  Biso   1.000  H
  H64      1.0000 0.83780  0.32380  0.37200  Biso   1.000  H
  C81      1.0000 0.34540  0.09370  0.78380  Biso   1.000  C
  C82      1.0000 0.84540  0.59370  0.78380  Biso   1.000  C
  C83      1.0000 0.65460  0.09370  0.71620  Biso   1.000  C
  C84      1.0000 0.15460  0.59370  0.71620  Biso   1.000  C
  C85      1.0000 0.65460  0.90630  0.21620  Biso   1.000  C
  C86      1.0000 0.15460  0.40630  0.21620  Biso   1.000  C
  C87      1.0000 0.34540  0.90630  0.28380  Biso   1.000  C
  C88      1.0000 0.84540  0.40630  0.28380  Biso   1.000  C
  H65      1.0000 0.41980  0.08490  0.84970  Biso   1.000  H
  H66      1.0000 0.91980  0.58490  0.84970  Biso   1.000  H
  H67      1.0000 0.58020  0.08490  0.65030  Biso   1.000  H
  H68      1.0000 0.08020  0.58490  0.65030  Biso   1.000  H
  H69      1.0000 0.58020  0.91510  0.15030  Biso   1.000  H
  H70      1.0000 0.08020  0.41510  0.15030  Biso   1.000  H
  H71      1.0000 0.41980  0.91510  0.34970  Biso   1.000  H
  H72      1.0000 0.91980  0.41510  0.34970  Biso   1.000  H
  C89      1.0000 0.28530  0.05218  0.67450  Biso   1.000  C
  C90      1.0000 0.78530  0.55218  0.67450  Biso   1.000  C
  C91      1.0000 0.71470  0.05218  0.82550  Biso   1.000  C
  C92      1.0000 0.21470  0.55218  0.82550  Biso   1.000  C
  C93      1.0000 0.71470  0.94782  0.32550  Biso   1.000  C
  C94      1.0000 0.21470  0.44782  0.32550  Biso   1.000  C
  C95      1.0000 0.28530  0.94782  0.17450  Biso   1.000  C
  C96      1.0000 0.78530  0.44782  0.17450  Biso   1.000  C
  H73      1.0000 0.31900  0.01500  0.66590  Biso   1.000  H
  H74      1.0000 0.81900  0.51500  0.66590  Biso   1.000  H
  H75      1.0000 0.68100  0.01500  0.83410  Biso   1.000  H
  H76      1.0000 0.18100  0.51500  0.83410  Biso   1.000  H
  H77      1.0000 0.68100  0.98500  0.33410  Biso   1.000  H
  H78      1.0000 0.18100  0.48500  0.33410  Biso   1.000  H
  H79      1.0000 0.31900  0.98500  0.16590  Biso   1.000  H
  H80      1.0000 0.81900  0.48500  0.16590  Biso   1.000  H
  C97      1.0000 0.17600  0.06453  0.57700  Biso   1.000  C
  C98      1.0000 0.67600  0.56453  0.57700  Biso   1.000  C
  C99      1.0000 0.82400  0.06453  0.92300  Biso   1.000  C
  C100     1.0000 0.32400  0.56453  0.92300  Biso   1.000  C
  C101     1.0000 0.82400  0.93547  0.42300  Biso   1.000  C
  C102     1.0000 0.32400  0.43547  0.42300  Biso   1.000  C
  C103     1.0000 0.17600  0.93547  0.07700  Biso   1.000  C
  C104     1.0000 0.67600  0.43547  0.07700  Biso   1.000  C
  C105     1.0000 0.19980  0.96341  0.42950  Biso   1.000  C
  C106     1.0000 0.69980  0.46341  0.42950  Biso   1.000  C
  C107     1.0000 0.80020  0.96341  0.07050  Biso   1.000  C
  C108     1.0000 0.30020  0.46341  0.07050  Biso   1.000  C
  C109     1.0000 0.80020  0.03659  0.57050  Biso   1.000  C
  C110     1.0000 0.30020  0.53659  0.57050  Biso   1.000  C
  C111     1.0000 0.19980  0.03659  0.92950  Biso   1.000  C
  C112     1.0000 0.69980  0.53659  0.92950  Biso   1.000  C
  H81      1.0000 0.25280  0.99210  0.42740  Biso   1.000  H
  H82      1.0000 0.75280  0.49210  0.42740  Biso   1.000  H
  H83      1.0000 0.74720  0.99210  0.07260  Biso   1.000  H
  H84      1.0000 0.24720  0.49210  0.07260  Biso   1.000  H
  H85      1.0000 0.74720  0.00790  0.57260  Biso   1.000  H
  H86      1.0000 0.24720  0.50790  0.57260  Biso   1.000  H
  H87      1.0000 0.25280  0.00790  0.92740  Biso   1.000  H
  H88      1.0000 0.75280  0.50790  0.92740  Biso   1.000  H
  H89      1.0000 0.16420  0.93780  0.34460  Biso   1.000  H
  H90      1.0000 0.66420  0.43780  0.34460  Biso   1.000  H
  H91      1.0000 0.83580  0.93780  0.15540  Biso   1.000  H
  H92      1.0000 0.33580  0.43780  0.15540  Biso   1.000  H
  H93      1.0000 0.83580  0.06220  0.65540  Biso   1.000  H
  H94      1.0000 0.33580  0.56220  0.65540  Biso   1.000  H
  H95      1.0000 0.16420  0.06220  0.84460  Biso   1.000  H
  H96      1.0000 0.66420  0.56220  0.84460  Biso   1.000  H
  H97      1.0000 0.23730  0.93530  0.51030  Biso   1.000  H
  H98      1.0000 0.73730  0.43530  0.51030  Biso   1.000  H
  H99      1.0000 0.76270  0.93530  0.98970  Biso   1.000  H
  H100     1.0000 0.26270  0.43530  0.98970  Biso   1.000  H
  H101     1.0000 0.76270  0.06470  0.48970  Biso   1.000  H
  H102     1.0000 0.26270  0.56470  0.48970  Biso   1.000  H
  H103     1.0000 0.23730  0.06470  0.01030  Biso   1.000  H
  H104     1.0000 0.73730  0.56470  0.01030  Biso   1.000  H
  P1       1.0000 0.50000  0.15291  0.25000  Biso   1.000  P
  P2       1.0000 0.00000  0.65291  0.25000  Biso   1.000  P
  P3       1.0000 0.50000  0.84709  0.75000  Biso   1.000  P
  P4       1.0000 0.00000  0.34709  0.75000  Biso   1.000  P
  F1       1.0000 0.40834  0.20597  0.18830  Biso   1.000  F
  F2       1.0000 0.90834  0.70597  0.18830  Biso   1.000  F
  F3       1.0000 0.59166  0.20597  0.31170  Biso   1.000  F
  F4       1.0000 0.09166  0.70597  0.31170  Biso   1.000  F
  F5       1.0000 0.59166  0.79403  0.81170  Biso   1.000  F
  F6       1.0000 0.09166  0.29403  0.81170  Biso   1.000  F
  F7       1.0000 0.40834  0.79403  0.68830  Biso   1.000  F
  F8       1.0000 0.90834  0.29403  0.68830  Biso   1.000  F
  F9       1.0000 0.50431  0.15363  0.11460  Biso   1.000  F
  F10      1.0000 0.00431  0.65363  0.11460  Biso   1.000  F
  F11      1.0000 0.49569  0.15363  0.38540  Biso   1.000  F
  F12      1.0000 0.99569  0.65363  0.38540  Biso   1.000  F
  F13      1.0000 0.49569  0.84637  0.88540  Biso   1.000  F
  F14      1.0000 0.99569  0.34637  0.88540  Biso   1.000  F
  F15      1.0000 0.50431  0.84637  0.61460  Biso   1.000  F
  F16      1.0000 0.00431  0.34637  0.61460  Biso   1.000  F
  F17      1.0000 0.40749  0.10143  0.19040  Biso   1.000  F
  F18      1.0000 0.90749  0.60143  0.19040  Biso   1.000  F
  F19      1.0000 0.59251  0.10143  0.30960  Biso   1.000  F
  F20      1.0000 0.09251  0.60143  0.30960  Biso   1.000  F
  F21      1.0000 0.59251  0.89857  0.80960  Biso   1.000  F
  F22      1.0000 0.09251  0.39857  0.80960  Biso   1.000  F
  F23      1.0000 0.40749  0.89857  0.69040  Biso   1.000  F
  F24      1.0000 0.90749  0.39857  0.69040  Biso   1.000  F
