data_image0
_cell_length_a       11.607
_cell_length_b       10.649
_cell_length_c       31.565
_cell_angle_alpha    90
_cell_angle_beta     97.547
_cell_angle_gamma    90

_symmetry_space_group_name_H-M    "P 1"
_symmetry_int_tables_number       1

loop_
  _symmetry_equiv_pos_as_xyz
  'x, y, z'

loop_
  _atom_site_label
  _atom_site_occupancy
  _atom_site_fract_x
  _atom_site_fract_y
  _atom_site_fract_z
  _atom_site_thermal_displace_type
  _atom_site_B_iso_or_equiv
  _atom_site_type_symbol
  Cu1      1.0000 0.96190  0.83572  0.13464  Biso   1.000  Cu
  Cu2      1.0000 0.53810  0.33572  0.36536  Biso   1.000  Cu
  Cu3      1.0000 0.03810  0.16428  0.86536  Biso   1.000  Cu
  Cu4      1.0000 0.46190  0.66428  0.63464  Biso   1.000  Cu
  S1       1.0000 0.88411  0.96900  0.07846  Biso   1.000  S
  S2       1.0000 0.61589  0.46900  0.42154  Biso   1.000  S
  S3       1.0000 0.11589  0.03100  0.92154  Biso   1.000  S
  S4       1.0000 0.38411  0.53100  0.57846  Biso   1.000  S
  S5       1.0000 0.48552  0.47192  0.30942  Biso   1.000  S
  S6       1.0000 0.01448  0.97192  0.19058  Biso   1.000  S
  S7       1.0000 0.51448  0.52808  0.69058  Biso   1.000  S
  S8       1.0000 0.98552  0.02808  0.80942  Biso   1.000  S
  N1       1.0000 0.06230  0.74380  0.10001  Biso   1.000  N
  N2       1.0000 0.43770  0.24380  0.39999  Biso   1.000  N
  N3       1.0000 0.93770  0.25620  0.89999  Biso   1.000  N
  N4       1.0000 0.56230  0.75620  0.60001  Biso   1.000  N
  N5       1.0000 0.17010  0.70060  0.11226  Biso   1.000  N
  N6       1.0000 0.32990  0.20060  0.38774  Biso   1.000  N
  N7       1.0000 0.82990  0.29940  0.88774  Biso   1.000  N
  N8       1.0000 0.67010  0.79940  0.61226  Biso   1.000  N
  N9       1.0000 0.67050  0.26720  0.33808  Biso   1.000  N
  N10      1.0000 0.82950  0.76720  0.16192  Biso   1.000  N
  N11      1.0000 0.32950  0.73280  0.66192  Biso   1.000  N
  N12      1.0000 0.17050  0.23280  0.83808  Biso   1.000  N
  N13      1.0000 0.71160  0.14540  0.33805  Biso   1.000  N
  N14      1.0000 0.78840  0.64540  0.16195  Biso   1.000  N
  N15      1.0000 0.28840  0.85460  0.66195  Biso   1.000  N
  N16      1.0000 0.21160  0.35460  0.83805  Biso   1.000  N
  C1       1.0000 0.36870  0.93200  0.23650  Biso   1.000  C
  C2       1.0000 0.13130  0.43200  0.26350  Biso   1.000  C
  C3       1.0000 0.63130  0.06800  0.76350  Biso   1.000  C
  C4       1.0000 0.86870  0.56800  0.73650  Biso   1.000  C
  C5       1.0000 0.31870  0.82240  0.21730  Biso   1.000  C
  C6       1.0000 0.18130  0.32240  0.28270  Biso   1.000  C
  C7       1.0000 0.68130  0.17760  0.78270  Biso   1.000  C
  C8       1.0000 0.81870  0.67760  0.71730  Biso   1.000  C
  H1       1.0000 0.31550  0.74890  0.23420  Biso   1.000  H
  H2       1.0000 0.18450  0.24890  0.26580  Biso   1.000  H
  H3       1.0000 0.68450  0.25110  0.76580  Biso   1.000  H
  H4       1.0000 0.81550  0.75110  0.73420  Biso   1.000  H
  C9       1.0000 0.27410  0.81860  0.17450  Biso   1.000  C
  C10      1.0000 0.22590  0.31860  0.32550  Biso   1.000  C
  C11      1.0000 0.72590  0.18140  0.82550  Biso   1.000  C
  C12      1.0000 0.77410  0.68140  0.67450  Biso   1.000  C
  C13      1.0000 0.28230  0.92420  0.14900  Biso   1.000  C
  C14      1.0000 0.21770  0.42420  0.35100  Biso   1.000  C
  C15      1.0000 0.71770  0.07580  0.85100  Biso   1.000  C
  C16      1.0000 0.78230  0.57580  0.64900  Biso   1.000  C
  H5       1.0000 0.25330  0.92240  0.11940  Biso   1.000  H
  H6       1.0000 0.24670  0.42240  0.38060  Biso   1.000  H
  H7       1.0000 0.74670  0.07760  0.88060  Biso   1.000  H
  H8       1.0000 0.75330  0.57760  0.61940  Biso   1.000  H
  C17      1.0000 0.33390  0.03250  0.16770  Biso   1.000  C
  C18      1.0000 0.16610  0.53250  0.33230  Biso   1.000  C
  C19      1.0000 0.66610  0.96750  0.83230  Biso   1.000  C
  C20      1.0000 0.83390  0.46750  0.66770  Biso   1.000  C
  H9       1.0000 0.34010  0.10480  0.15050  Biso   1.000  H
  H10      1.0000 0.15990  0.60480  0.34950  Biso   1.000  H
  H11      1.0000 0.65990  0.89520  0.84950  Biso   1.000  H
  H12      1.0000 0.84010  0.39520  0.65050  Biso   1.000  H
  C21      1.0000 0.37530  0.03700  0.21000  Biso   1.000  C
  C22      1.0000 0.12470  0.53700  0.29000  Biso   1.000  C
  C23      1.0000 0.62470  0.96300  0.79000  Biso   1.000  C
  C24      1.0000 0.87530  0.46300  0.71000  Biso   1.000  C
  H13      1.0000 0.40940  0.11240  0.22190  Biso   1.000  H
  H14      1.0000 0.09060  0.61240  0.27810  Biso   1.000  H
  H15      1.0000 0.59060  0.88760  0.77810  Biso   1.000  H
  H16      1.0000 0.90940  0.38760  0.72190  Biso   1.000  H
  C25      1.0000 0.21760  0.69650  0.15740  Biso   1.000  C
  C26      1.0000 0.28240  0.19650  0.34260  Biso   1.000  C
  C27      1.0000 0.78240  0.30350  0.84260  Biso   1.000  C
  C28      1.0000 0.71760  0.80350  0.65740  Biso   1.000  C
  H17      1.0000 0.27610  0.62840  0.16170  Biso   1.000  H
  H18      1.0000 0.22390  0.12840  0.33830  Biso   1.000  H
  H19      1.0000 0.72390  0.37160  0.83830  Biso   1.000  H
  H20      1.0000 0.77610  0.87160  0.66170  Biso   1.000  H
  H21      1.0000 0.15420  0.67520  0.17430  Biso   1.000  H
  H22      1.0000 0.34580  0.17520  0.32570  Biso   1.000  H
  H23      1.0000 0.84580  0.32480  0.82570  Biso   1.000  H
  H24      1.0000 0.65420  0.82480  0.67430  Biso   1.000  H
  C29      1.0000 0.21960  0.65750  0.07910  Biso   1.000  C
  C30      1.0000 0.28040  0.15750  0.42090  Biso   1.000  C
  C31      1.0000 0.78040  0.34250  0.92090  Biso   1.000  C
  C32      1.0000 0.71960  0.84250  0.57910  Biso   1.000  C
  H25      1.0000 0.29480  0.62110  0.08040  Biso   1.000  H
  H26      1.0000 0.20520  0.12110  0.41960  Biso   1.000  H
  H27      1.0000 0.70520  0.37890  0.91960  Biso   1.000  H
  H28      1.0000 0.79480  0.87890  0.58040  Biso   1.000  H
  C33      1.0000 0.14310  0.67500  0.04350  Biso   1.000  C
  C34      1.0000 0.35690  0.17500  0.45650  Biso   1.000  C
  C35      1.0000 0.85690  0.32500  0.95650  Biso   1.000  C
  C36      1.0000 0.64310  0.82500  0.54350  Biso   1.000  C
  H29      1.0000 0.15450  0.65520  0.01500  Biso   1.000  H
  H30      1.0000 0.34550  0.15520  0.48500  Biso   1.000  H
  H31      1.0000 0.84550  0.34480  0.98500  Biso   1.000  H
  H32      1.0000 0.65450  0.84480  0.51500  Biso   1.000  H
  C37      1.0000 0.04330  0.72850  0.05700  Biso   1.000  C
  C38      1.0000 0.45670  0.22850  0.44300  Biso   1.000  C
  C39      1.0000 0.95670  0.27150  0.94300  Biso   1.000  C
  C40      1.0000 0.54330  0.77150  0.55700  Biso   1.000  C
  C41      1.0000 0.93260  0.75800  0.03060  Biso   1.000  C
  C42      1.0000 0.56740  0.25800  0.46940  Biso   1.000  C
  C43      1.0000 0.06740  0.24200  0.96940  Biso   1.000  C
  C44      1.0000 0.43260  0.74200  0.53060  Biso   1.000  C
  C45      1.0000 0.89960  0.67540  0.99660  Biso   1.000  C
  C46      1.0000 0.60040  0.17540  0.50340  Biso   1.000  C
  C47      1.0000 0.10040  0.32460  0.00340  Biso   1.000  C
  C48      1.0000 0.39960  0.82460  0.49660  Biso   1.000  C
  H33      1.0000 0.94770  0.60540  0.99250  Biso   1.000  H
  H34      1.0000 0.55230  0.10540  0.50750  Biso   1.000  H
  H35      1.0000 0.05230  0.39460  0.00750  Biso   1.000  H
  H36      1.0000 0.44770  0.89460  0.49250  Biso   1.000  H
  C49      1.0000 0.79880  0.69350  0.96880  Biso   1.000  C
  C50      1.0000 0.70120  0.19350  0.53120  Biso   1.000  C
  C51      1.0000 0.20120  0.30650  0.03120  Biso   1.000  C
  C52      1.0000 0.29880  0.80650  0.46880  Biso   1.000  C
  H37      1.0000 0.77780  0.63520  0.94630  Biso   1.000  H
  H38      1.0000 0.72220  0.13520  0.55370  Biso   1.000  H
  H39      1.0000 0.22220  0.36480  0.05370  Biso   1.000  H
  H40      1.0000 0.27780  0.86480  0.44630  Biso   1.000  H
  C53      1.0000 0.72920  0.79450  0.97330  Biso   1.000  C
  C54      1.0000 0.77080  0.29450  0.52670  Biso   1.000  C
  C55      1.0000 0.27080  0.20550  0.02670  Biso   1.000  C
  C56      1.0000 0.22920  0.70550  0.47330  Biso   1.000  C
  H41      1.0000 0.66020  0.80720  0.95400  Biso   1.000  H
  H42      1.0000 0.83980  0.30720  0.54600  Biso   1.000  H
  H43      1.0000 0.33980  0.19280  0.04600  Biso   1.000  H
  H44      1.0000 0.16020  0.69280  0.45400  Biso   1.000  H
  C57      1.0000 0.76030  0.87900  0.00670  Biso   1.000  C
  C58      1.0000 0.73970  0.37900  0.49330  Biso   1.000  C
  C59      1.0000 0.23970  0.12100  0.99330  Biso   1.000  C
  C60      1.0000 0.26030  0.62100  0.50670  Biso   1.000  C
  H45      1.0000 0.71250  0.95000  0.00970  Biso   1.000  H
  H46      1.0000 0.78750  0.45000  0.49030  Biso   1.000  H
  H47      1.0000 0.28750  0.05000  0.99030  Biso   1.000  H
  H48      1.0000 0.21250  0.55000  0.50970  Biso   1.000  H
  C61      1.0000 0.86070  0.86050  0.03560  Biso   1.000  C
  C62      1.0000 0.63930  0.36050  0.46440  Biso   1.000  C
  C63      1.0000 0.13930  0.13950  0.96440  Biso   1.000  C
  C64      1.0000 0.36070  0.63950  0.53560  Biso   1.000  C
  C65      1.0000 0.00580  0.06000  0.06480  Biso   1.000  C
  C66      1.0000 0.49420  0.56000  0.43520  Biso   1.000  C
  C67      1.0000 0.99420  0.94000  0.93520  Biso   1.000  C
  C68      1.0000 0.50580  0.44000  0.56480  Biso   1.000  C
  H49      1.0000 0.07120  0.00390  0.06190  Biso   1.000  H
  H50      1.0000 0.42880  0.50390  0.43810  Biso   1.000  H
  H51      1.0000 0.92880  0.99610  0.93810  Biso   1.000  H
  H52      1.0000 0.57120  0.49610  0.56190  Biso   1.000  H
  H53      1.0000 0.02900  0.12160  0.08740  Biso   1.000  H
  H54      1.0000 0.47100  0.62160  0.41260  Biso   1.000  H
  H55      1.0000 0.97100  0.87840  0.91260  Biso   1.000  H
  H56      1.0000 0.52900  0.37840  0.58740  Biso   1.000  H
  H57      1.0000 0.98300  0.10390  0.03770  Biso   1.000  H
  H58      1.0000 0.51700  0.60390  0.46230  Biso   1.000  H
  H59      1.0000 0.01700  0.89610  0.96230  Biso   1.000  H
  H60      1.0000 0.48300  0.39610  0.53770  Biso   1.000  H
  C69      1.0000 0.40910  0.93330  0.28270  Biso   1.000  C
  C70      1.0000 0.09090  0.43330  0.21730  Biso   1.000  C
  C71      1.0000 0.59090  0.06670  0.71730  Biso   1.000  C
  C72      1.0000 0.90910  0.56670  0.78270  Biso   1.000  C
  C73      1.0000 0.51200  0.99410  0.29920  Biso   1.000  C
  C74      1.0000 0.98800  0.49410  0.20080  Biso   1.000  C
  C75      1.0000 0.48800  0.00590  0.70080  Biso   1.000  C
  C76      1.0000 0.01200  0.50590  0.79920  Biso   1.000  C
  H61      1.0000 0.55760  0.03520  0.28050  Biso   1.000  H
  H62      1.0000 0.94240  0.53520  0.21950  Biso   1.000  H
  H63      1.0000 0.44240  0.96480  0.71950  Biso   1.000  H
  H64      1.0000 0.05760  0.46480  0.78050  Biso   1.000  H
  C77      1.0000 0.54770  0.99440  0.34300  Biso   1.000  C
  C78      1.0000 0.95230  0.49440  0.15700  Biso   1.000  C
  C79      1.0000 0.45230  0.00560  0.65700  Biso   1.000  C
  C80      1.0000 0.04770  0.50560  0.84300  Biso   1.000  C
  C81      1.0000 0.48000  0.93540  0.37050  Biso   1.000  C
  C82      1.0000 0.02000  0.43540  0.12950  Biso   1.000  C
  C83      1.0000 0.52000  0.06460  0.62950  Biso   1.000  C
  C84      1.0000 0.98000  0.56460  0.87050  Biso   1.000  C
  H65      1.0000 0.50410  0.93580  0.40050  Biso   1.000  H
  H66      1.0000 0.99590  0.43580  0.09950  Biso   1.000  H
  H67      1.0000 0.49590  0.06420  0.59950  Biso   1.000  H
  H68      1.0000 0.00410  0.56420  0.90050  Biso   1.000  H
  C85      1.0000 0.37780  0.87630  0.35420  Biso   1.000  C
  C86      1.0000 0.12220  0.37630  0.14580  Biso   1.000  C
  C87      1.0000 0.62220  0.12370  0.64580  Biso   1.000  C
  C88      1.0000 0.87780  0.62370  0.85420  Biso   1.000  C
  H69      1.0000 0.33150  0.83610  0.37280  Biso   1.000  H
  H70      1.0000 0.16850  0.33610  0.12720  Biso   1.000  H
  H71      1.0000 0.66850  0.16390  0.62720  Biso   1.000  H
  H72      1.0000 0.83150  0.66390  0.87280  Biso   1.000  H
  C89      1.0000 0.34300  0.87560  0.31060  Biso   1.000  C
  C90      1.0000 0.15700  0.37560  0.18940  Biso   1.000  C
  C91      1.0000 0.65700  0.12440  0.68940  Biso   1.000  C
  C92      1.0000 0.84300  0.62440  0.81060  Biso   1.000  C
  H73      1.0000 0.27260  0.83500  0.29960  Biso   1.000  H
  H74      1.0000 0.22740  0.33500  0.20040  Biso   1.000  H
  H75      1.0000 0.72740  0.16500  0.70040  Biso   1.000  H
  H76      1.0000 0.77260  0.66500  0.79960  Biso   1.000  H
  C93      1.0000 0.66280  0.04960  0.36330  Biso   1.000  C
  C94      1.0000 0.83720  0.54960  0.13670  Biso   1.000  C
  C95      1.0000 0.33720  0.95040  0.63670  Biso   1.000  C
  C96      1.0000 0.16280  0.45040  0.86330  Biso   1.000  C
  H77      1.0000 0.65170  0.08630  0.39120  Biso   1.000  H
  H78      1.0000 0.84830  0.58630  0.10880  Biso   1.000  H
  H79      1.0000 0.34830  0.91370  0.60880  Biso   1.000  H
  H80      1.0000 0.15170  0.41370  0.89120  Biso   1.000  H
  H81      1.0000 0.71990  0.98050  0.36870  Biso   1.000  H
  H82      1.0000 0.78010  0.48050  0.13130  Biso   1.000  H
  H83      1.0000 0.28010  0.01950  0.63130  Biso   1.000  H
  H84      1.0000 0.21990  0.51950  0.86870  Biso   1.000  H
  C97      1.0000 0.79960  0.13700  0.31540  Biso   1.000  C
  C98      1.0000 0.70040  0.63700  0.18460  Biso   1.000  C
  C99      1.0000 0.20040  0.86300  0.68460  Biso   1.000  C
  C100     1.0000 0.29960  0.36300  0.81540  Biso   1.000  C
  H85      1.0000 0.84110  0.06250  0.31060  Biso   1.000  H
  H86      1.0000 0.65890  0.56250  0.18940  Biso   1.000  H
  H87      1.0000 0.15890  0.93750  0.68940  Biso   1.000  H
  H88      1.0000 0.34110  0.43750  0.81060  Biso   1.000  H
  C101     1.0000 0.82050  0.25410  0.30010  Biso   1.000  C
  C102     1.0000 0.67950  0.75410  0.19990  Biso   1.000  C
  C103     1.0000 0.17950  0.74590  0.69990  Biso   1.000  C
  C104     1.0000 0.32050  0.24590  0.80010  Biso   1.000  C
  H89      1.0000 0.87840  0.27700  0.28290  Biso   1.000  H
  H90      1.0000 0.62160  0.77700  0.21710  Biso   1.000  H
  H91      1.0000 0.12160  0.72300  0.71710  Biso   1.000  H
  H92      1.0000 0.37840  0.22300  0.78290  Biso   1.000  H
  C105     1.0000 0.73880  0.33210  0.31509  Biso   1.000  C
  C106     1.0000 0.76120  0.83210  0.18491  Biso   1.000  C
  C107     1.0000 0.26120  0.66790  0.68491  Biso   1.000  C
  C108     1.0000 0.23880  0.16790  0.81509  Biso   1.000  C
  C109     1.0000 0.72930  0.47130  0.31103  Biso   1.000  C
  C110     1.0000 0.77070  0.97130  0.18897  Biso   1.000  C
  C111     1.0000 0.27070  0.52870  0.68897  Biso   1.000  C
  C112     1.0000 0.22930  0.02870  0.81103  Biso   1.000  C
  C113     1.0000 0.83230  0.53610  0.31060  Biso   1.000  C
  C114     1.0000 0.66770  0.03610  0.18940  Biso   1.000  C
  C115     1.0000 0.16770  0.46390  0.68940  Biso   1.000  C
  C116     1.0000 0.33230  0.96390  0.81060  Biso   1.000  C
  H93      1.0000 0.90280  0.49050  0.31100  Biso   1.000  H
  H94      1.0000 0.59720  0.99050  0.18900  Biso   1.000  H
  H95      1.0000 0.09720  0.50950  0.68900  Biso   1.000  H
  H96      1.0000 0.40280  0.00950  0.81100  Biso   1.000  H
  C117     1.0000 0.83490  0.66620  0.30960  Biso   1.000  C
  C118     1.0000 0.66510  0.16620  0.19040  Biso   1.000  C
  C119     1.0000 0.16510  0.33380  0.69040  Biso   1.000  C
  C120     1.0000 0.33490  0.83380  0.80960  Biso   1.000  C
  H97      1.0000 0.90680  0.70890  0.30970  Biso   1.000  H
  H98      1.0000 0.59320  0.20890  0.19030  Biso   1.000  H
  H99      1.0000 0.09320  0.29110  0.69030  Biso   1.000  H
  H100     1.0000 0.40680  0.79110  0.80970  Biso   1.000  H
  C121     1.0000 0.73420  0.73290  0.30850  Biso   1.000  C
  C122     1.0000 0.76580  0.23290  0.19150  Biso   1.000  C
  C123     1.0000 0.26580  0.26710  0.69150  Biso   1.000  C
  C124     1.0000 0.23420  0.76710  0.80850  Biso   1.000  C
  H101     1.0000 0.73630  0.82200  0.30810  Biso   1.000  H
  H102     1.0000 0.76370  0.32200  0.19190  Biso   1.000  H
  H103     1.0000 0.26370  0.17800  0.69190  Biso   1.000  H
  H104     1.0000 0.23630  0.67800  0.80810  Biso   1.000  H
  C125     1.0000 0.62860  0.67120  0.30798  Biso   1.000  C
  C126     1.0000 0.87140  0.17120  0.19202  Biso   1.000  C
  C127     1.0000 0.37140  0.32880  0.69202  Biso   1.000  C
  C128     1.0000 0.12860  0.82880  0.80798  Biso   1.000  C
  H105     1.0000 0.55850  0.71810  0.30650  Biso   1.000  H
  H106     1.0000 0.94150  0.21810  0.19350  Biso   1.000  H
  H107     1.0000 0.44150  0.28190  0.69350  Biso   1.000  H
  H108     1.0000 0.05850  0.78190  0.80650  Biso   1.000  H
  C129     1.0000 0.62550  0.53980  0.30967  Biso   1.000  C
  C130     1.0000 0.87450  0.03980  0.19033  Biso   1.000  C
  C131     1.0000 0.37450  0.46020  0.69033  Biso   1.000  C
  C132     1.0000 0.12550  0.96020  0.80967  Biso   1.000  C
  C133     1.0000 0.47420  0.38060  0.26130  Biso   1.000  C
  C134     1.0000 0.02580  0.88060  0.23870  Biso   1.000  C
  C135     1.0000 0.52580  0.61940  0.73870  Biso   1.000  C
  C136     1.0000 0.97420  0.11940  0.76130  Biso   1.000  C
  H109     1.0000 0.47340  0.43670  0.23670  Biso   1.000  H
  H110     1.0000 0.02660  0.93670  0.26330  Biso   1.000  H
  H111     1.0000 0.52660  0.56330  0.76330  Biso   1.000  H
  H112     1.0000 0.97340  0.06330  0.73670  Biso   1.000  H
  H113     1.0000 0.40210  0.33150  0.25850  Biso   1.000  H
  H114     1.0000 0.09790  0.83150  0.24150  Biso   1.000  H
  H115     1.0000 0.59790  0.66850  0.74150  Biso   1.000  H
  H116     1.0000 0.90210  0.16850  0.75850  Biso   1.000  H
  H117     1.0000 0.54080  0.32360  0.26250  Biso   1.000  H
  H118     1.0000 0.95920  0.82360  0.23750  Biso   1.000  H
  H119     1.0000 0.45920  0.67640  0.73750  Biso   1.000  H
  H120     1.0000 0.04080  0.17640  0.76250  Biso   1.000  H
  B1       1.0000 0.04160  0.91980  0.36220  Biso   1.000  B
  B2       1.0000 0.45840  0.41980  0.13780  Biso   1.000  B
  B3       1.0000 0.95840  0.08020  0.63780  Biso   1.000  B
  B4       1.0000 0.54160  0.58020  0.86220  Biso   1.000  B
  F1       1.0000 0.09730  0.93000  0.40249  Biso   1.000  F
  F2       1.0000 0.40270  0.43000  0.09751  Biso   1.000  F
  F3       1.0000 0.90270  0.07000  0.59751  Biso   1.000  F
  F4       1.0000 0.59730  0.57000  0.90249  Biso   1.000  F
  F5       1.0000 0.06110  0.02510  0.33984  Biso   1.000  F
  F6       1.0000 0.43890  0.52510  0.16016  Biso   1.000  F
  F7       1.0000 0.93890  0.97490  0.66016  Biso   1.000  F
  F8       1.0000 0.56110  0.47490  0.83984  Biso   1.000  F
  F9       1.0000 0.08410  0.81840  0.34166  Biso   1.000  F
  F10      1.0000 0.41590  0.31840  0.15834  Biso   1.000  F
  F11      1.0000 0.91590  0.18160  0.65834  Biso   1.000  F
  F12      1.0000 0.58410  0.68160  0.84166  Biso   1.000  F
  F13      1.0000 0.92380  0.90500  0.36270  Biso   1.000  F
  F14      1.0000 0.57620  0.40500  0.13730  Biso   1.000  F
  F15      1.0000 0.07620  0.09500  0.63730  Biso   1.000  F
  F16      1.0000 0.42380  0.59500  0.86270  Biso   1.000  F
  N17      1.0000 0.79940  0.33170  0.05910  Biso   1.000  N
  N18      1.0000 0.70060  0.83170  0.44090  Biso   1.000  N
  N19      1.0000 0.20060  0.66830  0.94090  Biso   1.000  N
  N20      1.0000 0.29940  0.16830  0.55910  Biso   1.000  N
  C137     1.0000 0.62010  0.19690  0.06730  Biso   1.000  C
  C138     1.0000 0.87990  0.69690  0.43270  Biso   1.000  C
  C139     1.0000 0.37990  0.80310  0.93270  Biso   1.000  C
  C140     1.0000 0.12010  0.30310  0.56730  Biso   1.000  C
  H121     1.0000 0.56890  0.24350  0.08400  Biso   1.000  H
  H122     1.0000 0.93110  0.74350  0.41600  Biso   1.000  H
  H123     1.0000 0.43110  0.75650  0.91600  Biso   1.000  H
  H124     1.0000 0.06890  0.25650  0.58400  Biso   1.000  H
  H125     1.0000 0.64410  0.11830  0.08200  Biso   1.000  H
  H126     1.0000 0.85590  0.61830  0.41800  Biso   1.000  H
  H127     1.0000 0.35590  0.88170  0.91800  Biso   1.000  H
  H128     1.0000 0.14410  0.38170  0.58200  Biso   1.000  H
  H129     1.0000 0.57840  0.17810  0.03890  Biso   1.000  H
  H130     1.0000 0.92160  0.67810  0.46110  Biso   1.000  H
  H131     1.0000 0.42160  0.82190  0.96110  Biso   1.000  H
  H132     1.0000 0.07840  0.32190  0.53890  Biso   1.000  H
  C141     1.0000 0.72100  0.27140  0.06280  Biso   1.000  C
  C142     1.0000 0.77900  0.77140  0.43720  Biso   1.000  C
  C143     1.0000 0.27900  0.72860  0.93720  Biso   1.000  C
  C144     1.0000 0.22100  0.22860  0.56280  Biso   1.000  C
  N21      1.0000 0.94930  0.60680  0.53900  Biso   1.000  N
  N22      1.0000 0.55070  0.10680  0.96100  Biso   1.000  N
  N23      1.0000 0.05070  0.39320  0.46100  Biso   1.000  N
  N24      1.0000 0.44930  0.89320  0.03900  Biso   1.000  N
  C145     1.0000 0.00390  0.67010  0.56180  Biso   1.000  C
  C146     1.0000 0.49610  0.17010  0.93820  Biso   1.000  C
  C147     1.0000 0.99610  0.32990  0.43820  Biso   1.000  C
  C148     1.0000 0.50390  0.82990  0.06180  Biso   1.000  C
  C149     1.0000 0.07470  0.77040  0.57970  Biso   1.000  C
  C150     1.0000 0.42530  0.27040  0.92030  Biso   1.000  C
  C151     1.0000 0.92530  0.22960  0.42030  Biso   1.000  C
  C152     1.0000 0.57470  0.72960  0.07970  Biso   1.000  C
  H133     1.0000 0.15660  0.74540  0.58230  Biso   1.000  H
  H134     1.0000 0.34340  0.24540  0.91770  Biso   1.000  H
  H135     1.0000 0.84340  0.25460  0.41770  Biso   1.000  H
  H136     1.0000 0.65660  0.75460  0.08230  Biso   1.000  H
  H137     1.0000 0.05420  0.79090  0.60800  Biso   1.000  H
  H138     1.0000 0.44580  0.29090  0.89200  Biso   1.000  H
  H139     1.0000 0.94580  0.20910  0.39200  Biso   1.000  H
  H140     1.0000 0.55420  0.70910  0.10800  Biso   1.000  H
  H141     1.0000 0.06230  0.84430  0.56110  Biso   1.000  H
  H142     1.0000 0.43770  0.34430  0.93890  Biso   1.000  H
  H143     1.0000 0.93770  0.15570  0.43890  Biso   1.000  H
  H144     1.0000 0.56230  0.65570  0.06110  Biso   1.000  H
  C153     1.0000 0.96200  0.59220  0.56630  Biso   1.000  C
  C154     1.0000 0.53800  0.09220  0.93370  Biso   1.000  C
  C155     1.0000 0.03800  0.40780  0.43370  Biso   1.000  C
  C156     1.0000 0.46200  0.90780  0.06630  Biso   1.000  C
  H145     1.0000 0.87920  0.61510  0.56270  Biso   1.000  H
  H146     1.0000 0.62080  0.11510  0.93730  Biso   1.000  H
  H147     1.0000 0.12080  0.38490  0.43730  Biso   1.000  H
  H148     1.0000 0.37920  0.88490  0.06270  Biso   1.000  H
  H149     1.0000 0.97680  0.52910  0.58890  Biso   1.000  H
  H150     1.0000 0.52320  0.02910  0.91110  Biso   1.000  H
  H151     1.0000 0.02320  0.47090  0.41110  Biso   1.000  H
  H152     1.0000 0.47680  0.97090  0.08890  Biso   1.000  H
  H153     1.0000 0.98170  0.55750  0.53940  Biso   1.000  H
  H154     1.0000 0.51830  0.05750  0.96060  Biso   1.000  H
  H155     1.0000 0.01830  0.44250  0.46060  Biso   1.000  H
  H156     1.0000 0.48170  0.94250  0.03940  Biso   1.000  H
  O1       1.0000 0.00780  0.79180  0.53920  Biso   1.000  O
  O2       1.0000 0.49220  0.29180  0.96080  Biso   1.000  O
  O3       1.0000 0.99220  0.20820  0.46080  Biso   1.000  O
  O4       1.0000 0.50780  0.70820  0.03920  Biso   1.000  O
  C157     1.0000 0.04400  0.72100  0.57970  Biso   1.000  C
  C158     1.0000 0.45600  0.22100  0.92030  Biso   1.000  C
  C159     1.0000 0.95600  0.27900  0.42030  Biso   1.000  C
  C160     1.0000 0.54400  0.77900  0.07970  Biso   1.000  C
  H157     1.0000 0.02070  0.76480  0.60510  Biso   1.000  H
  H158     1.0000 0.47930  0.26480  0.89490  Biso   1.000  H
  H159     1.0000 0.97930  0.23520  0.39490  Biso   1.000  H
  H160     1.0000 0.52070  0.73520  0.10510  Biso   1.000  H
  H161     1.0000 0.12780  0.70240  0.58420  Biso   1.000  H
  H162     1.0000 0.37220  0.20240  0.91580  Biso   1.000  H
  H163     1.0000 0.87220  0.29760  0.41580  Biso   1.000  H
  H164     1.0000 0.62780  0.79760  0.08420  Biso   1.000  H
  C161     1.0000 0.00000  0.00000  0.50000  Biso   1.000  C
  C162     1.0000 0.50000  0.50000  0.00000  Biso   1.000  C
  H165     1.0000 0.03830  0.07940  0.49840  Biso   1.000  H
  H166     1.0000 0.46170  0.57940  0.00160  Biso   1.000  H
  H167     1.0000 0.96170  0.92060  0.50160  Biso   1.000  H
  H168     1.0000 0.53830  0.42060  0.99840  Biso   1.000  H
  H169     1.0000 0.99780  0.95680  0.47320  Biso   1.000  H
  H170     1.0000 0.50220  0.45680  0.02680  Biso   1.000  H
  H171     1.0000 0.00220  0.04320  0.52680  Biso   1.000  H
  H172     1.0000 0.49780  0.54320  0.97320  Biso   1.000  H
  H173     1.0000 0.92210  0.01360  0.50620  Biso   1.000  H
  H174     1.0000 0.57790  0.51360  0.99380  Biso   1.000  H
  H175     1.0000 0.07790  0.98640  0.49380  Biso   1.000  H
  H176     1.0000 0.42210  0.48640  0.00620  Biso   1.000  H
  C163     1.0000 0.07360  0.91220  0.53940  Biso   1.000  C
  C164     1.0000 0.42640  0.41220  0.96060  Biso   1.000  C
  C165     1.0000 0.92640  0.08780  0.46060  Biso   1.000  C
  C166     1.0000 0.57360  0.58780  0.03940  Biso   1.000  C
  H177     1.0000 0.15420  0.89700  0.53360  Biso   1.000  H
  H178     1.0000 0.34580  0.39700  0.96640  Biso   1.000  H
  H179     1.0000 0.84580  0.10300  0.46640  Biso   1.000  H
  H180     1.0000 0.65420  0.60300  0.03360  Biso   1.000  H
  H181     1.0000 0.07600  0.95500  0.56740  Biso   1.000  H
  H182     1.0000 0.42400  0.45500  0.93260  Biso   1.000  H
  H183     1.0000 0.92400  0.04500  0.43260  Biso   1.000  H
  H184     1.0000 0.57600  0.54500  0.06740  Biso   1.000  H
