data_image0
_cell_length_a       21.129
_cell_length_b       13.7026
_cell_length_c       11.7024
_cell_angle_alpha    90
_cell_angle_beta     90
_cell_angle_gamma    90

_symmetry_space_group_name_H-M    "P 1"
_symmetry_int_tables_number       1

loop_
  _symmetry_equiv_pos_as_xyz
  'x, y, z'

loop_
  _atom_site_label
  _atom_site_occupancy
  _atom_site_fract_x
  _atom_site_fract_y
  _atom_site_fract_z
  _atom_site_thermal_displace_type
  _atom_site_B_iso_or_equiv
  _atom_site_type_symbol
  Cu1      1.0000 0.29659  0.00000  0.50000  Biso   1.000  Cu
  Cu2      1.0000 0.20341  0.00000  0.00000  Biso   1.000  Cu
  Cu3      1.0000 0.70341  0.00000  0.50000  Biso   1.000  Cu
  Cu4      1.0000 0.79659  0.00000  0.00000  Biso   1.000  Cu
  S1       1.0000 0.25794  0.87755  0.09138  Biso   1.000  S
  S2       1.0000 0.24206  0.12245  0.59138  Biso   1.000  S
  S3       1.0000 0.24206  0.87755  0.40862  Biso   1.000  S
  S4       1.0000 0.25794  0.12245  0.90862  Biso   1.000  S
  S5       1.0000 0.74206  0.12245  0.90862  Biso   1.000  S
  S6       1.0000 0.75794  0.87755  0.40862  Biso   1.000  S
  S7       1.0000 0.75794  0.12245  0.59138  Biso   1.000  S
  S8       1.0000 0.74206  0.87755  0.09138  Biso   1.000  S
  N1       1.0000 0.12656  0.08363  0.19963  Biso   1.000  N
  N2       1.0000 0.37344  0.91637  0.69963  Biso   1.000  N
  N3       1.0000 0.37344  0.08363  0.30037  Biso   1.000  N
  N4       1.0000 0.12656  0.91637  0.80037  Biso   1.000  N
  N5       1.0000 0.87344  0.91637  0.80037  Biso   1.000  N
  N6       1.0000 0.62656  0.08363  0.30037  Biso   1.000  N
  N7       1.0000 0.62656  0.91637  0.69963  Biso   1.000  N
  N8       1.0000 0.87344  0.08363  0.19963  Biso   1.000  N
  N9       1.0000 0.15032  0.00285  0.14735  Biso   1.000  N
  N10      1.0000 0.34968  0.99715  0.64735  Biso   1.000  N
  N11      1.0000 0.34968  0.00285  0.35265  Biso   1.000  N
  N12      1.0000 0.15032  0.99715  0.85265  Biso   1.000  N
  N13      1.0000 0.84968  0.99715  0.85265  Biso   1.000  N
  N14      1.0000 0.65032  0.00285  0.35265  Biso   1.000  N
  N15      1.0000 0.65032  0.99715  0.64735  Biso   1.000  N
  N16      1.0000 0.84968  0.00285  0.14735  Biso   1.000  N
  C1       1.0000 0.25000  0.38140  0.25000  Biso   1.000  C
  C2       1.0000 0.25000  0.61860  0.75000  Biso   1.000  C
  C3       1.0000 0.75000  0.61860  0.75000  Biso   1.000  C
  C4       1.0000 0.75000  0.38140  0.25000  Biso   1.000  C
  H1       1.0000 0.25000  0.45070  0.25000  Biso   1.000  H
  H2       1.0000 0.25000  0.54930  0.75000  Biso   1.000  H
  H3       1.0000 0.75000  0.54930  0.75000  Biso   1.000  H
  H4       1.0000 0.75000  0.45070  0.25000  Biso   1.000  H
  C5       1.0000 0.19834  0.33100  0.20910  Biso   1.000  C
  C6       1.0000 0.30166  0.66900  0.70910  Biso   1.000  C
  C7       1.0000 0.30166  0.33100  0.29090  Biso   1.000  C
  C8       1.0000 0.19834  0.66900  0.79090  Biso   1.000  C
  C9       1.0000 0.80166  0.66900  0.79090  Biso   1.000  C
  C10      1.0000 0.69834  0.33100  0.29090  Biso   1.000  C
  C11      1.0000 0.69834  0.66900  0.70910  Biso   1.000  C
  C12      1.0000 0.80166  0.33100  0.20910  Biso   1.000  C
  H5       1.0000 0.16270  0.36590  0.18140  Biso   1.000  H
  H6       1.0000 0.33730  0.63410  0.68140  Biso   1.000  H
  H7       1.0000 0.33730  0.36590  0.31860  Biso   1.000  H
  H8       1.0000 0.16270  0.63410  0.81860  Biso   1.000  H
  H9       1.0000 0.83730  0.63410  0.81860  Biso   1.000  H
  H10      1.0000 0.66270  0.36590  0.31860  Biso   1.000  H
  H11      1.0000 0.66270  0.63410  0.68140  Biso   1.000  H
  H12      1.0000 0.83730  0.36590  0.18140  Biso   1.000  H
  C13      1.0000 0.19785  0.22960  0.20810  Biso   1.000  C
  C14      1.0000 0.30215  0.77040  0.70810  Biso   1.000  C
  C15      1.0000 0.30215  0.22960  0.29190  Biso   1.000  C
  C16      1.0000 0.19785  0.77040  0.79190  Biso   1.000  C
  C17      1.0000 0.80215  0.77040  0.79190  Biso   1.000  C
  C18      1.0000 0.69785  0.22960  0.29190  Biso   1.000  C
  C19      1.0000 0.69785  0.77040  0.70810  Biso   1.000  C
  C20      1.0000 0.80215  0.22960  0.20810  Biso   1.000  C
  C21      1.0000 0.25000  0.17930  0.25000  Biso   1.000  C
  C22      1.0000 0.25000  0.82070  0.75000  Biso   1.000  C
  C23      1.0000 0.75000  0.82070  0.75000  Biso   1.000  C
  C24      1.0000 0.75000  0.17930  0.25000  Biso   1.000  C
  H13      1.0000 0.25000  0.11000  0.25000  Biso   1.000  H
  H14      1.0000 0.25000  0.89000  0.75000  Biso   1.000  H
  H15      1.0000 0.75000  0.89000  0.75000  Biso   1.000  H
  H16      1.0000 0.75000  0.11000  0.25000  Biso   1.000  H
  C25      1.0000 0.13985  0.18100  0.15770  Biso   1.000  C
  C26      1.0000 0.36015  0.81900  0.65770  Biso   1.000  C
  C27      1.0000 0.36015  0.18100  0.34230  Biso   1.000  C
  C28      1.0000 0.13985  0.81900  0.84230  Biso   1.000  C
  C29      1.0000 0.86015  0.81900  0.84230  Biso   1.000  C
  C30      1.0000 0.63985  0.18100  0.34230  Biso   1.000  C
  C31      1.0000 0.63985  0.81900  0.65770  Biso   1.000  C
  C32      1.0000 0.86015  0.18100  0.15770  Biso   1.000  C
  H17      1.0000 0.10260  0.22280  0.17340  Biso   1.000  H
  H18      1.0000 0.39740  0.77720  0.67340  Biso   1.000  H
  H19      1.0000 0.39740  0.22280  0.32660  Biso   1.000  H
  H20      1.0000 0.10260  0.77720  0.82660  Biso   1.000  H
  H21      1.0000 0.89740  0.77720  0.82660  Biso   1.000  H
  H22      1.0000 0.60260  0.22280  0.32660  Biso   1.000  H
  H23      1.0000 0.60260  0.77720  0.67340  Biso   1.000  H
  H24      1.0000 0.89740  0.22280  0.17340  Biso   1.000  H
  H25      1.0000 0.14510  0.17770  0.07370  Biso   1.000  H
  H26      1.0000 0.35490  0.82230  0.57370  Biso   1.000  H
  H27      1.0000 0.35490  0.17770  0.42630  Biso   1.000  H
  H28      1.0000 0.14510  0.82230  0.92630  Biso   1.000  H
  H29      1.0000 0.85490  0.82230  0.92630  Biso   1.000  H
  H30      1.0000 0.64510  0.17770  0.42630  Biso   1.000  H
  H31      1.0000 0.64510  0.82230  0.57370  Biso   1.000  H
  H32      1.0000 0.85490  0.17770  0.07370  Biso   1.000  H
  C33      1.0000 0.09000  0.05920  0.29050  Biso   1.000  C
  C34      1.0000 0.41000  0.94080  0.79050  Biso   1.000  C
  C35      1.0000 0.41000  0.05920  0.20950  Biso   1.000  C
  C36      1.0000 0.09000  0.94080  0.70950  Biso   1.000  C
  C37      1.0000 0.91000  0.94080  0.70950  Biso   1.000  C
  C38      1.0000 0.59000  0.05920  0.20950  Biso   1.000  C
  C39      1.0000 0.59000  0.94080  0.79050  Biso   1.000  C
  C40      1.0000 0.91000  0.05920  0.29050  Biso   1.000  C
  H33      1.0000 0.06850  0.10330  0.33970  Biso   1.000  H
  H34      1.0000 0.43150  0.89670  0.83970  Biso   1.000  H
  H35      1.0000 0.43150  0.10330  0.16030  Biso   1.000  H
  H36      1.0000 0.06850  0.89670  0.66030  Biso   1.000  H
  H37      1.0000 0.93150  0.89670  0.66030  Biso   1.000  H
  H38      1.0000 0.56850  0.10330  0.16030  Biso   1.000  H
  H39      1.0000 0.56850  0.89670  0.83970  Biso   1.000  H
  H40      1.0000 0.93150  0.10330  0.33970  Biso   1.000  H
  C41      1.0000 0.08965  0.96050  0.29830  Biso   1.000  C
  C42      1.0000 0.41035  0.03950  0.79830  Biso   1.000  C
  C43      1.0000 0.41035  0.96050  0.20170  Biso   1.000  C
  C44      1.0000 0.08965  0.03950  0.70170  Biso   1.000  C
  C45      1.0000 0.91035  0.03950  0.70170  Biso   1.000  C
  C46      1.0000 0.58965  0.96050  0.20170  Biso   1.000  C
  C47      1.0000 0.58965  0.03950  0.79830  Biso   1.000  C
  C48      1.0000 0.91035  0.96050  0.29830  Biso   1.000  C
  H41      1.0000 0.06810  0.92190  0.35330  Biso   1.000  H
  H42      1.0000 0.43190  0.07810  0.85330  Biso   1.000  H
  H43      1.0000 0.43190  0.92190  0.14670  Biso   1.000  H
  H44      1.0000 0.06810  0.07810  0.64670  Biso   1.000  H
  H45      1.0000 0.93190  0.07810  0.64670  Biso   1.000  H
  H46      1.0000 0.56810  0.92190  0.14670  Biso   1.000  H
  H47      1.0000 0.56810  0.07810  0.85330  Biso   1.000  H
  H48      1.0000 0.93190  0.92190  0.35330  Biso   1.000  H
  C49      1.0000 0.12801  0.92720  0.20780  Biso   1.000  C
  C50      1.0000 0.37199  0.07280  0.70780  Biso   1.000  C
  C51      1.0000 0.37199  0.92720  0.29220  Biso   1.000  C
  C52      1.0000 0.12801  0.07280  0.79220  Biso   1.000  C
  C53      1.0000 0.87199  0.07280  0.79220  Biso   1.000  C
  C54      1.0000 0.62801  0.92720  0.29220  Biso   1.000  C
  C55      1.0000 0.62801  0.07280  0.70780  Biso   1.000  C
  C56      1.0000 0.87199  0.92720  0.20780  Biso   1.000  C
  C57      1.0000 0.14203  0.82440  0.17910  Biso   1.000  C
  C58      1.0000 0.35797  0.17560  0.67910  Biso   1.000  C
  C59      1.0000 0.35797  0.82440  0.32090  Biso   1.000  C
  C60      1.0000 0.14203  0.17560  0.82090  Biso   1.000  C
  C61      1.0000 0.85797  0.17560  0.82090  Biso   1.000  C
  C62      1.0000 0.64203  0.82440  0.32090  Biso   1.000  C
  C63      1.0000 0.64203  0.17560  0.67910  Biso   1.000  C
  C64      1.0000 0.85797  0.82440  0.17910  Biso   1.000  C
  C65      1.0000 0.09687  0.75460  0.21040  Biso   1.000  C
  C66      1.0000 0.40313  0.24540  0.71040  Biso   1.000  C
  C67      1.0000 0.40313  0.75460  0.28960  Biso   1.000  C
  C68      1.0000 0.09687  0.24540  0.78960  Biso   1.000  C
  C69      1.0000 0.90313  0.24540  0.78960  Biso   1.000  C
  C70      1.0000 0.59687  0.75460  0.28960  Biso   1.000  C
  C71      1.0000 0.59687  0.24540  0.71040  Biso   1.000  C
  C72      1.0000 0.90313  0.75460  0.21040  Biso   1.000  C
  H49      1.0000 0.05910  0.77530  0.24710  Biso   1.000  H
  H50      1.0000 0.44090  0.22470  0.74710  Biso   1.000  H
  H51      1.0000 0.44090  0.77530  0.25290  Biso   1.000  H
  H52      1.0000 0.05910  0.22470  0.75290  Biso   1.000  H
  H53      1.0000 0.94090  0.22470  0.75290  Biso   1.000  H
  H54      1.0000 0.55910  0.77530  0.25290  Biso   1.000  H
  H55      1.0000 0.55910  0.22470  0.74710  Biso   1.000  H
  H56      1.0000 0.94090  0.77530  0.24710  Biso   1.000  H
  C73      1.0000 0.10588  0.65610  0.18910  Biso   1.000  C
  C74      1.0000 0.39412  0.34390  0.68910  Biso   1.000  C
  C75      1.0000 0.39412  0.65610  0.31090  Biso   1.000  C
  C76      1.0000 0.10588  0.34390  0.81090  Biso   1.000  C
  C77      1.0000 0.89412  0.34390  0.81090  Biso   1.000  C
  C78      1.0000 0.60588  0.65610  0.31090  Biso   1.000  C
  C79      1.0000 0.60588  0.34390  0.68910  Biso   1.000  C
  C80      1.0000 0.89412  0.65610  0.18910  Biso   1.000  C
  H57      1.0000 0.07440  0.61010  0.21060  Biso   1.000  H
  H58      1.0000 0.42560  0.38990  0.71060  Biso   1.000  H
  H59      1.0000 0.42560  0.61010  0.28940  Biso   1.000  H
  H60      1.0000 0.07440  0.38990  0.78940  Biso   1.000  H
  H61      1.0000 0.92560  0.38990  0.78940  Biso   1.000  H
  H62      1.0000 0.57440  0.61010  0.28940  Biso   1.000  H
  H63      1.0000 0.57440  0.38990  0.71060  Biso   1.000  H
  H64      1.0000 0.92560  0.61010  0.21060  Biso   1.000  H
  C81      1.0000 0.16101  0.62500  0.13640  Biso   1.000  C
  C82      1.0000 0.33899  0.37500  0.63640  Biso   1.000  C
  C83      1.0000 0.33899  0.62500  0.36360  Biso   1.000  C
  C84      1.0000 0.16101  0.37500  0.86360  Biso   1.000  C
  C85      1.0000 0.83899  0.37500  0.86360  Biso   1.000  C
  C86      1.0000 0.66101  0.62500  0.36360  Biso   1.000  C
  C87      1.0000 0.66101  0.37500  0.63640  Biso   1.000  C
  C88      1.0000 0.83899  0.62500  0.13640  Biso   1.000  C
  H65      1.0000 0.16740  0.55760  0.12150  Biso   1.000  H
  H66      1.0000 0.33260  0.44240  0.62150  Biso   1.000  H
  H67      1.0000 0.33260  0.55760  0.37850  Biso   1.000  H
  H68      1.0000 0.16740  0.44240  0.87850  Biso   1.000  H
  H69      1.0000 0.83260  0.44240  0.87850  Biso   1.000  H
  H70      1.0000 0.66740  0.55760  0.37850  Biso   1.000  H
  H71      1.0000 0.66740  0.44240  0.62150  Biso   1.000  H
  H72      1.0000 0.83260  0.55760  0.12150  Biso   1.000  H
  C89      1.0000 0.20664  0.69220  0.10570  Biso   1.000  C
  C90      1.0000 0.29336  0.30780  0.60570  Biso   1.000  C
  C91      1.0000 0.29336  0.69220  0.39430  Biso   1.000  C
  C92      1.0000 0.20664  0.30780  0.89430  Biso   1.000  C
  C93      1.0000 0.79336  0.30780  0.89430  Biso   1.000  C
  C94      1.0000 0.70664  0.69220  0.39430  Biso   1.000  C
  C95      1.0000 0.70664  0.30780  0.60570  Biso   1.000  C
  C96      1.0000 0.79336  0.69220  0.10570  Biso   1.000  C
  H73      1.0000 0.24450  0.67040  0.07010  Biso   1.000  H
  H74      1.0000 0.25550  0.32960  0.57010  Biso   1.000  H
  H75      1.0000 0.25550  0.67040  0.42990  Biso   1.000  H
  H76      1.0000 0.24450  0.32960  0.92990  Biso   1.000  H
  H77      1.0000 0.75550  0.32960  0.92990  Biso   1.000  H
  H78      1.0000 0.74450  0.67040  0.42990  Biso   1.000  H
  H79      1.0000 0.74450  0.32960  0.57010  Biso   1.000  H
  H80      1.0000 0.75550  0.67040  0.07010  Biso   1.000  H
  C97      1.0000 0.19807  0.79140  0.12620  Biso   1.000  C
  C98      1.0000 0.30193  0.20860  0.62620  Biso   1.000  C
  C99      1.0000 0.30193  0.79140  0.37380  Biso   1.000  C
  C100     1.0000 0.19807  0.20860  0.87380  Biso   1.000  C
  C101     1.0000 0.80193  0.20860  0.87380  Biso   1.000  C
  C102     1.0000 0.69807  0.79140  0.37380  Biso   1.000  C
  C103     1.0000 0.69807  0.20860  0.62620  Biso   1.000  C
  C104     1.0000 0.80193  0.79140  0.12620  Biso   1.000  C
  C105     1.0000 0.31778  0.80540  0.02140  Biso   1.000  C
  C106     1.0000 0.18222  0.19460  0.52140  Biso   1.000  C
  C107     1.0000 0.18222  0.80540  0.47860  Biso   1.000  C
  C108     1.0000 0.31778  0.19460  0.97860  Biso   1.000  C
  C109     1.0000 0.68222  0.19460  0.97860  Biso   1.000  C
  C110     1.0000 0.81778  0.80540  0.47860  Biso   1.000  C
  C111     1.0000 0.81778  0.19460  0.52140  Biso   1.000  C
  C112     1.0000 0.68222  0.80540  0.02140  Biso   1.000  C
  H81      1.0000 0.33590  0.75900  0.07600  Biso   1.000  H
  H82      1.0000 0.16410  0.24100  0.57600  Biso   1.000  H
  H83      1.0000 0.16410  0.75900  0.42400  Biso   1.000  H
  H84      1.0000 0.33590  0.24100  0.92400  Biso   1.000  H
  H85      1.0000 0.66410  0.24100  0.92400  Biso   1.000  H
  H86      1.0000 0.83590  0.75900  0.42400  Biso   1.000  H
  H87      1.0000 0.83590  0.24100  0.57600  Biso   1.000  H
  H88      1.0000 0.66410  0.75900  0.07600  Biso   1.000  H
  H89      1.0000 0.35120  0.84840  0.99240  Biso   1.000  H
  H90      1.0000 0.14880  0.15160  0.49240  Biso   1.000  H
  H91      1.0000 0.14880  0.84840  0.50760  Biso   1.000  H
  H92      1.0000 0.35120  0.15160  0.00760  Biso   1.000  H
  H93      1.0000 0.64880  0.15160  0.00760  Biso   1.000  H
  H94      1.0000 0.85120  0.84840  0.50760  Biso   1.000  H
  H95      1.0000 0.85120  0.15160  0.49240  Biso   1.000  H
  H96      1.0000 0.64880  0.84840  0.99240  Biso   1.000  H
  H97      1.0000 0.29870  0.76960  0.95750  Biso   1.000  H
  H98      1.0000 0.20130  0.23040  0.45750  Biso   1.000  H
  H99      1.0000 0.20130  0.76960  0.54250  Biso   1.000  H
  H100     1.0000 0.29870  0.23040  0.04250  Biso   1.000  H
  H101     1.0000 0.70130  0.23040  0.04250  Biso   1.000  H
  H102     1.0000 0.79870  0.76960  0.54250  Biso   1.000  H
  H103     1.0000 0.79870  0.23040  0.45750  Biso   1.000  H
  H104     1.0000 0.70130  0.76960  0.95750  Biso   1.000  H
  B1       1.0000 0.00000  0.25280  0.47190  Biso   1.000  B
  B2       1.0000 0.50000  0.74720  0.97190  Biso   1.000  B
  B3       1.0000 0.50000  0.25280  0.02810  Biso   1.000  B
  B4       1.0000 0.00000  0.74720  0.52810  Biso   1.000  B
  F1       1.0000 0.00000  0.30880  0.57020  Biso   1.000  F
  F2       1.0000 0.50000  0.69120  0.07020  Biso   1.000  F
  F3       1.0000 0.50000  0.30880  0.92980  Biso   1.000  F
  F4       1.0000 0.00000  0.69120  0.42980  Biso   1.000  F
  F5       1.0000 0.94661  0.27294  0.40786  Biso   1.000  F
  F6       1.0000 0.55339  0.72706  0.90786  Biso   1.000  F
  F7       1.0000 0.55339  0.27294  0.09214  Biso   1.000  F
  F8       1.0000 0.94661  0.72706  0.59214  Biso   1.000  F
  F9       1.0000 0.05339  0.72706  0.59214  Biso   1.000  F
  F10      1.0000 0.44661  0.27294  0.09214  Biso   1.000  F
  F11      1.0000 0.44661  0.72706  0.90786  Biso   1.000  F
  F12      1.0000 0.05339  0.27294  0.40786  Biso   1.000  F
  F13      1.0000 0.00000  0.15343  0.50030  Biso   1.000  F
  F14      1.0000 0.50000  0.84657  0.00030  Biso   1.000  F
  F15      1.0000 0.50000  0.15343  0.99970  Biso   1.000  F
  F16      1.0000 0.00000  0.84657  0.49970  Biso   1.000  F
  C113     1.0000 0.15960  0.50000  0.50000  Biso   1.000  C
  C114     1.0000 0.34040  0.50000  0.00000  Biso   1.000  C
  C115     1.0000 0.84040  0.50000  0.50000  Biso   1.000  C
  C116     1.0000 0.65960  0.50000  0.00000  Biso   1.000  C
  C117     1.0000 0.08970  0.50000  0.50000  Biso   1.000  C
  C118     1.0000 0.41030  0.50000  0.00000  Biso   1.000  C
  C119     1.0000 0.91030  0.50000  0.50000  Biso   1.000  C
  C120     1.0000 0.58970  0.50000  0.00000  Biso   1.000  C
  N17      1.0000 0.21280  0.50000  0.50000  Biso   1.000  N
  N18      1.0000 0.28720  0.50000  0.00000  Biso   1.000  N
  N19      1.0000 0.78720  0.50000  0.50000  Biso   1.000  N
  N20      1.0000 0.71280  0.50000  0.00000  Biso   1.000  N
  O1       1.0000 0.00000  0.48270  0.96090  Biso   1.000  O
  O2       1.0000 0.50000  0.51730  0.46090  Biso   1.000  O
  O3       1.0000 0.50000  0.48270  0.53910  Biso   1.000  O
  O4       1.0000 0.00000  0.51730  0.03910  Biso   1.000  O
  C121     1.0000 0.98160  0.43360  0.06640  Biso   1.000  C
  C122     1.0000 0.51840  0.56640  0.56640  Biso   1.000  C
  C123     1.0000 0.51840  0.43360  0.43360  Biso   1.000  C
  C124     1.0000 0.98160  0.56640  0.93360  Biso   1.000  C
  C125     1.0000 0.01840  0.56640  0.93360  Biso   1.000  C
  C126     1.0000 0.48160  0.43360  0.43360  Biso   1.000  C
  C127     1.0000 0.48160  0.56640  0.56640  Biso   1.000  C
  C128     1.0000 0.01840  0.43360  0.06640  Biso   1.000  C
  C129     1.0000 0.00000  0.39550  0.17800  Biso   1.000  C
  C130     1.0000 0.50000  0.60450  0.67800  Biso   1.000  C
  C131     1.0000 0.50000  0.39550  0.32200  Biso   1.000  C
  C132     1.0000 0.00000  0.60450  0.82200  Biso   1.000  C
  C133     1.0000 0.00000  0.34310  0.08610  Biso   1.000  C
  C134     1.0000 0.50000  0.65690  0.58610  Biso   1.000  C
  C135     1.0000 0.50000  0.34310  0.41390  Biso   1.000  C
  C136     1.0000 0.00000  0.65690  0.91390  Biso   1.000  C
  C137     1.0000 0.00000  0.05310  0.00860  Biso   1.000  C
  C138     1.0000 0.50000  0.94690  0.50860  Biso   1.000  C
  C139     1.0000 0.50000  0.05310  0.49140  Biso   1.000  C
  C140     1.0000 0.00000  0.94690  0.99140  Biso   1.000  C
  N21      1.0000 0.00000  0.15330  0.02700  Biso   1.000  N
  N22      1.0000 0.50000  0.84670  0.52700  Biso   1.000  N
  N23      1.0000 0.50000  0.15330  0.47300  Biso   1.000  N
  N24      1.0000 0.00000  0.84670  0.97300  Biso   1.000  N
