data_image0
_cell_length_a       3.951
_cell_length_b       5.989
_cell_length_c       14.721
_cell_angle_alpha    81.29
_cell_angle_beta     85.71
_cell_angle_gamma    84.87

_symmetry_space_group_name_H-M    "P 1"
_symmetry_int_tables_number       1

loop_
  _symmetry_equiv_pos_as_xyz
  'x, y, z'

loop_
  _atom_site_label
  _atom_site_occupancy
  _atom_site_fract_x
  _atom_site_fract_y
  _atom_site_fract_z
  _atom_site_thermal_displace_type
  _atom_site_B_iso_or_equiv
  _atom_site_type_symbol
  Cu1      1.0000 0.00000  0.00000  0.00000  Biso   1.000  Cu
  N1       1.0000 0.78400  0.25920  0.04470  Biso   1.000  N
  N2       1.0000 0.21600  0.74080  0.95530  Biso   1.000  N
  N3       1.0000 0.48500  0.67790  0.09130  Biso   1.000  N
  N4       1.0000 0.51500  0.32210  0.90870  Biso   1.000  N
  C1       1.0000 0.84100  0.32700  0.12570  Biso   1.000  C
  C2       1.0000 0.15900  0.67300  0.87430  Biso   1.000  C
  C3       1.0000 0.05200  0.18500  0.18890  Biso   1.000  C
  C4       1.0000 0.94800  0.81500  0.81110  Biso   1.000  C
  C5       1.0000 0.11200  0.25500  0.26930  Biso   1.000  C
  C6       1.0000 0.88800  0.74500  0.73070  Biso   1.000  C
  C7       1.0000 0.96900  0.46600  0.29160  Biso   1.000  C
  C8       1.0000 0.03100  0.53400  0.70840  Biso   1.000  C
  C9       1.0000 0.76300  0.60600  0.23340  Biso   1.000  C
  C10      1.0000 0.23700  0.39400  0.76660  Biso   1.000  C
  C11      1.0000 0.69000  0.53800  0.14800  Biso   1.000  C
  C12      1.0000 0.31000  0.46200  0.85200  Biso   1.000  C
  C13      1.0000 0.57300  0.39500  0.98650  Biso   1.000  C
  C14      1.0000 0.42700  0.60500  0.01350  Biso   1.000  C
  H1       1.0000 0.14900  0.04250  0.17450  Biso   1.000  H
  H2       1.0000 0.85100  0.95750  0.82550  Biso   1.000  H
  H3       1.0000 0.25500  0.16040  0.31080  Biso   1.000  H
  H4       1.0000 0.74500  0.83960  0.68920  Biso   1.000  H
  H5       1.0000 0.01480  0.51070  0.34850  Biso   1.000  H
  H6       1.0000 0.98520  0.48930  0.65150  Biso   1.000  H
  H7       1.0000 0.66880  0.74790  0.24920  Biso   1.000  H
  H8       1.0000 0.33120  0.25210  0.75080  Biso   1.000  H
  F1       1.0000 0.36100  0.17200  0.51400  Biso   1.000  F
  F2       1.0000 0.63900  0.82800  0.48600  Biso   1.000  F
  F3       1.0000 0.23000  0.80300  0.48600  Biso   1.000  F
  F4       1.0000 0.77000  0.19700  0.51400  Biso   1.000  F
  F5       1.0000 0.98000  0.87000  0.48900  Biso   1.000  F
  F6       1.0000 0.02000  0.13000  0.51100  Biso   1.000  F
