data_image0
_cell_length_a       13.039
_cell_length_b       10.586
_cell_length_c       6.072
_cell_angle_alpha    90
_cell_angle_beta     90
_cell_angle_gamma    100.23

_symmetry_space_group_name_H-M    "P 1"
_symmetry_int_tables_number       1

loop_
  _symmetry_equiv_pos_as_xyz
  'x, y, z'

loop_
  _atom_site_label
  _atom_site_occupancy
  _atom_site_fract_x
  _atom_site_fract_y
  _atom_site_fract_z
  _atom_site_thermal_displace_type
  _atom_site_B_iso_or_equiv
  _atom_site_type_symbol
  Cu1      1.0000 0.58287  0.14139  0.44005  Biso   1.000  Cu
  Cu2      1.0000 0.41713  0.35861  0.94005  Biso   1.000  Cu
  Cu3      1.0000 0.41713  0.85861  0.55995  Biso   1.000  Cu
  Cu4      1.0000 0.58287  0.64139  0.05995  Biso   1.000  Cu
  Si1      1.0000 0.00000  0.00000  0.00000  Biso   1.000  Si
  Si2      1.0000 0.00000  0.50000  0.50000  Biso   1.000  Si
  F1       1.0000 0.93450  0.12160  0.00970  Biso   1.000  F
  F2       1.0000 0.06550  0.37840  0.50970  Biso   1.000  F
  F3       1.0000 0.06550  0.87840  0.99030  Biso   1.000  F
  F4       1.0000 0.93450  0.62160  0.49030  Biso   1.000  F
  F5       1.0000 0.06780  0.07130  0.78490  Biso   1.000  F
  F6       1.0000 0.93220  0.42870  0.28490  Biso   1.000  F
  F7       1.0000 0.93220  0.92870  0.21510  Biso   1.000  F
  F8       1.0000 0.06780  0.57130  0.71510  Biso   1.000  F
  F9       1.0000 0.08680  0.07970  0.17550  Biso   1.000  F
  F10      1.0000 0.91320  0.42030  0.67550  Biso   1.000  F
  F11      1.0000 0.91320  0.92030  0.82450  Biso   1.000  F
  F12      1.0000 0.08680  0.57970  0.32450  Biso   1.000  F
  O1       1.0000 0.43550  0.07010  0.35880  Biso   1.000  O
  O2       1.0000 0.56450  0.42990  0.85880  Biso   1.000  O
  O3       1.0000 0.56450  0.92990  0.64120  Biso   1.000  O
  O4       1.0000 0.43550  0.57010  0.14120  Biso   1.000  O
  O5       1.0000 0.55350  0.24410  0.69120  Biso   1.000  O
  O6       1.0000 0.44650  0.25590  0.19120  Biso   1.000  O
  O7       1.0000 0.44650  0.75590  0.30880  Biso   1.000  O
  O8       1.0000 0.55350  0.74410  0.80880  Biso   1.000  O
  N1       1.0000 0.90670  0.14690  0.49450  Biso   1.000  N
  N2       1.0000 0.09330  0.35310  0.99450  Biso   1.000  N
  N3       1.0000 0.09330  0.85310  0.50550  Biso   1.000  N
  N4       1.0000 0.90670  0.64690  0.00550  Biso   1.000  N
  C1       1.0000 0.67790  0.09460  0.21080  Biso   1.000  C
  C2       1.0000 0.32210  0.40540  0.71080  Biso   1.000  C
  C3       1.0000 0.32210  0.90540  0.78920  Biso   1.000  C
  C4       1.0000 0.67790  0.59460  0.28920  Biso   1.000  C
  C5       1.0000 0.73360  0.17330  0.36270  Biso   1.000  C
  C6       1.0000 0.26640  0.32670  0.86270  Biso   1.000  C
  C7       1.0000 0.26640  0.82670  0.63730  Biso   1.000  C
  C8       1.0000 0.73360  0.67330  0.13730  Biso   1.000  C
  C9       1.0000 0.79380  0.12460  0.54320  Biso   1.000  C
  C10      1.0000 0.20620  0.37540  0.04320  Biso   1.000  C
  C11      1.0000 0.20620  0.87540  0.45680  Biso   1.000  C
  C12      1.0000 0.79380  0.62460  0.95680  Biso   1.000  C
  C13      1.0000 0.39900  0.14730  0.23990  Biso   1.000  C
  C14      1.0000 0.60100  0.35270  0.73990  Biso   1.000  C
  C15      1.0000 0.60100  0.85270  0.76010  Biso   1.000  C
  C16      1.0000 0.39900  0.64730  0.26010  Biso   1.000  C
  H1       1.0000 0.32400  0.11200  0.18000  Biso   1.000  H
  H2       1.0000 0.67600  0.38800  0.68000  Biso   1.000  H
  H3       1.0000 0.67600  0.88800  0.82000  Biso   1.000  H
  H4       1.0000 0.32400  0.61200  0.32000  Biso   1.000  H
  H5       1.0000 0.67000  0.99800  0.25500  Biso   1.000  H
  H6       1.0000 0.33000  0.50200  0.75500  Biso   1.000  H
  H7       1.0000 0.33000  0.00200  0.74500  Biso   1.000  H
  H8       1.0000 0.67000  0.49800  0.24500  Biso   1.000  H
  H9       1.0000 0.66000  0.12600  0.09500  Biso   1.000  H
  H10      1.0000 0.34000  0.37400  0.59500  Biso   1.000  H
  H11      1.0000 0.34000  0.87400  0.90500  Biso   1.000  H
  H12      1.0000 0.66000  0.62600  0.40500  Biso   1.000  H
  H13      1.0000 0.75200  0.26100  0.33500  Biso   1.000  H
  H14      1.0000 0.24800  0.23900  0.83500  Biso   1.000  H
  H15      1.0000 0.24800  0.73900  0.66500  Biso   1.000  H
  H16      1.0000 0.75200  0.76100  0.16500  Biso   1.000  H
  H17      1.0000 0.77400  0.02300  0.54100  Biso   1.000  H
  H18      1.0000 0.22600  0.47700  0.04100  Biso   1.000  H
  H19      1.0000 0.22600  0.97700  0.45900  Biso   1.000  H
  H20      1.0000 0.77400  0.52300  0.95900  Biso   1.000  H
  H21      1.0000 0.78600  0.15400  0.68300  Biso   1.000  H
  H22      1.0000 0.21400  0.34600  0.18300  Biso   1.000  H
  H23      1.0000 0.21400  0.84600  0.31700  Biso   1.000  H
  H24      1.0000 0.78600  0.65400  0.81700  Biso   1.000  H
  H25      1.0000 0.91000  0.12300  0.39400  Biso   1.000  H
  H26      1.0000 0.09000  0.37700  0.89400  Biso   1.000  H
  H27      1.0000 0.09000  0.87700  0.60600  Biso   1.000  H
  H28      1.0000 0.91000  0.62300  0.10600  Biso   1.000  H
  H29      1.0000 0.95300  0.22900  0.49600  Biso   1.000  H
  H30      1.0000 0.04700  0.27100  0.99600  Biso   1.000  H
  H31      1.0000 0.04700  0.77100  0.50400  Biso   1.000  H
  H32      1.0000 0.95300  0.72900  0.00400  Biso   1.000  H
  H33      1.0000 0.95400  0.09700  0.58400  Biso   1.000  H
  H34      1.0000 0.04600  0.40300  0.08400  Biso   1.000  H
  H35      1.0000 0.04600  0.90300  0.41600  Biso   1.000  H
  H36      1.0000 0.95400  0.59700  0.91600  Biso   1.000  H
