data_image0
_cell_length_a       9.7137
_cell_length_b       8.0745
_cell_length_c       15.396
_cell_angle_alpha    90
_cell_angle_beta     98.73
_cell_angle_gamma    90

_symmetry_space_group_name_H-M    "P 1"
_symmetry_int_tables_number       1

loop_
  _symmetry_equiv_pos_as_xyz
  'x, y, z'

loop_
  _atom_site_label
  _atom_site_occupancy
  _atom_site_fract_x
  _atom_site_fract_y
  _atom_site_fract_z
  _atom_site_thermal_displace_type
  _atom_site_B_iso_or_equiv
  _atom_site_type_symbol
  I1       1.0000 0.10063  0.31252  0.41593  Biso   1.000  I
  I2       1.0000 0.89937  0.31252  0.08407  Biso   1.000  I
  I3       1.0000 0.89937  0.68748  0.58407  Biso   1.000  I
  I4       1.0000 0.10063  0.68748  0.91593  Biso   1.000  I
  Cu1      1.0000 0.05260  0.62373  0.45162  Biso   1.000  Cu
  Cu2      1.0000 0.94740  0.62373  0.04838  Biso   1.000  Cu
  Cu3      1.0000 0.94740  0.37627  0.54838  Biso   1.000  Cu
  Cu4      1.0000 0.05260  0.37627  0.95162  Biso   1.000  Cu
  N1       1.0000 0.92550  0.72130  0.34670  Biso   1.000  N
  N2       1.0000 0.07450  0.72130  0.15330  Biso   1.000  N
  N3       1.0000 0.07450  0.27870  0.65330  Biso   1.000  N
  N4       1.0000 0.92550  0.27870  0.84670  Biso   1.000  N
  N5       1.0000 0.23980  0.27500  0.00420  Biso   1.000  N
  N6       1.0000 0.76020  0.27500  0.49580  Biso   1.000  N
  N7       1.0000 0.76020  0.72500  0.99580  Biso   1.000  N
  N8       1.0000 0.23980  0.72500  0.50420  Biso   1.000  N
  N9       1.0000 0.58680  0.07210  0.16610  Biso   1.000  N
  N10      1.0000 0.41320  0.07210  0.33390  Biso   1.000  N
  N11      1.0000 0.41320  0.92790  0.83390  Biso   1.000  N
  N12      1.0000 0.58680  0.92790  0.66610  Biso   1.000  N
  N13      1.0000 0.60060  0.91960  0.16330  Biso   1.000  N
  N14      1.0000 0.39940  0.91960  0.33670  Biso   1.000  N
  N15      1.0000 0.39940  0.08040  0.83670  Biso   1.000  N
  N16      1.0000 0.60060  0.08040  0.66330  Biso   1.000  N
  C1       1.0000 0.91240  0.88430  0.33620  Biso   1.000  C
  C2       1.0000 0.08760  0.88430  0.16380  Biso   1.000  C
  C3       1.0000 0.08760  0.11570  0.66380  Biso   1.000  C
  C4       1.0000 0.91240  0.11570  0.83620  Biso   1.000  C
  H1       1.0000 0.97530  0.95200  0.37130  Biso   1.000  H
  H2       1.0000 0.02470  0.95200  0.12870  Biso   1.000  H
  H3       1.0000 0.02470  0.04800  0.62870  Biso   1.000  H
  H4       1.0000 0.97530  0.04800  0.87130  Biso   1.000  H
  C5       1.0000 0.81120  0.95970  0.27630  Biso   1.000  C
  C6       1.0000 0.18880  0.95970  0.22370  Biso   1.000  C
  C7       1.0000 0.18880  0.04030  0.72370  Biso   1.000  C
  C8       1.0000 0.81120  0.04030  0.77630  Biso   1.000  C
  H5       1.0000 0.80690  0.07440  0.27080  Biso   1.000  H
  H6       1.0000 0.19310  0.07440  0.22920  Biso   1.000  H
  H7       1.0000 0.19310  0.92560  0.72920  Biso   1.000  H
  H8       1.0000 0.80690  0.92560  0.77080  Biso   1.000  H
  C9       1.0000 0.71670  0.85880  0.22490  Biso   1.000  C
  C10      1.0000 0.28330  0.85880  0.27510  Biso   1.000  C
  C11      1.0000 0.28330  0.14120  0.77510  Biso   1.000  C
  C12      1.0000 0.71670  0.14120  0.72490  Biso   1.000  C
  C13      1.0000 0.72920  0.69130  0.23400  Biso   1.000  C
  C14      1.0000 0.27080  0.69130  0.26600  Biso   1.000  C
  C15      1.0000 0.27080  0.30870  0.76600  Biso   1.000  C
  C16      1.0000 0.72920  0.30870  0.73400  Biso   1.000  C
  H9       1.0000 0.66640  0.62130  0.20030  Biso   1.000  H
  H10      1.0000 0.33360  0.62130  0.29970  Biso   1.000  H
  H11      1.0000 0.33360  0.37870  0.79970  Biso   1.000  H
  H12      1.0000 0.66640  0.37870  0.70030  Biso   1.000  H
  C17      1.0000 0.83600  0.62670  0.29360  Biso   1.000  C
  C18      1.0000 0.16400  0.62670  0.20640  Biso   1.000  C
  C19      1.0000 0.16400  0.37330  0.70640  Biso   1.000  C
  C20      1.0000 0.83600  0.37330  0.79360  Biso   1.000  C
  H13      1.0000 0.84640  0.51230  0.29710  Biso   1.000  H
  H14      1.0000 0.15360  0.51230  0.20290  Biso   1.000  H
  H15      1.0000 0.15360  0.48770  0.70290  Biso   1.000  H
  H16      1.0000 0.84640  0.48770  0.79710  Biso   1.000  H
  C21      1.0000 0.25400  0.11160  0.01230  Biso   1.000  C
  C22      1.0000 0.74600  0.11160  0.48770  Biso   1.000  C
  C23      1.0000 0.74600  0.88840  0.98770  Biso   1.000  C
  C24      1.0000 0.25400  0.88840  0.51230  Biso   1.000  C
  H17      1.0000 0.18450  0.04500  0.98230  Biso   1.000  H
  H18      1.0000 0.81550  0.04500  0.51770  Biso   1.000  H
  H19      1.0000 0.81550  0.95500  0.01770  Biso   1.000  H
  H20      1.0000 0.18450  0.95500  0.48230  Biso   1.000  H
  C25      1.0000 0.36520  0.03520  0.06250  Biso   1.000  C
  C26      1.0000 0.63480  0.03520  0.43750  Biso   1.000  C
  C27      1.0000 0.63480  0.96480  0.93750  Biso   1.000  C
  C28      1.0000 0.36520  0.96480  0.56250  Biso   1.000  C
  H21      1.0000 0.36990  0.92040  0.06650  Biso   1.000  H
  H22      1.0000 0.63010  0.92040  0.43350  Biso   1.000  H
  H23      1.0000 0.63010  0.07960  0.93350  Biso   1.000  H
  H24      1.0000 0.36990  0.07960  0.56650  Biso   1.000  H
  C29      1.0000 0.46890  0.13180  0.10670  Biso   1.000  C
  C30      1.0000 0.53110  0.13180  0.39330  Biso   1.000  C
  C31      1.0000 0.53110  0.86820  0.89330  Biso   1.000  C
  C32      1.0000 0.46890  0.86820  0.60670  Biso   1.000  C
  C33      1.0000 0.45860  0.30160  0.09760  Biso   1.000  C
  C34      1.0000 0.54140  0.30160  0.40240  Biso   1.000  C
  C35      1.0000 0.54140  0.69840  0.90240  Biso   1.000  C
  C36      1.0000 0.45860  0.69840  0.59760  Biso   1.000  C
  H25      1.0000 0.52800  0.37060  0.12590  Biso   1.000  H
  H26      1.0000 0.47200  0.37060  0.37410  Biso   1.000  H
  H27      1.0000 0.47200  0.62940  0.87410  Biso   1.000  H
  H28      1.0000 0.52800  0.62940  0.62590  Biso   1.000  H
  C37      1.0000 0.34240  0.36740  0.04520  Biso   1.000  C
  C38      1.0000 0.65760  0.36740  0.45480  Biso   1.000  C
  C39      1.0000 0.65760  0.63260  0.95480  Biso   1.000  C
  C40      1.0000 0.34240  0.63260  0.54520  Biso   1.000  C
  H29      1.0000 0.33630  0.48180  0.03860  Biso   1.000  H
  H30      1.0000 0.66370  0.48180  0.46140  Biso   1.000  H
  H31      1.0000 0.66370  0.51820  0.96140  Biso   1.000  H
  H32      1.0000 0.33630  0.51820  0.53860  Biso   1.000  H
