data_image0
_cell_length_a       18.73
_cell_length_b       15.036
_cell_length_c       6.68
_cell_angle_alpha    90
_cell_angle_beta     90
_cell_angle_gamma    121.62

_symmetry_space_group_name_H-M    "P 1"
_symmetry_int_tables_number       1

loop_
  _symmetry_equiv_pos_as_xyz
  'x, y, z'

loop_
  _atom_site_label
  _atom_site_occupancy
  _atom_site_fract_x
  _atom_site_fract_y
  _atom_site_fract_z
  _atom_site_thermal_displace_type
  _atom_site_B_iso_or_equiv
  _atom_site_type_symbol
  Cu1      1.0000 0.58543  0.32740  0.94680  Biso   1.000  Cu
  Cu2      1.0000 0.91457  0.67260  0.44680  Biso   1.000  Cu
  Cu3      1.0000 0.41457  0.67260  0.05320  Biso   1.000  Cu
  Cu4      1.0000 0.08543  0.32740  0.55320  Biso   1.000  Cu
  Cu5      1.0000 0.35599  0.14050  0.03210  Biso   1.000  Cu
  Cu6      1.0000 0.14401  0.85950  0.53210  Biso   1.000  Cu
  Cu7      1.0000 0.64401  0.85950  0.96790  Biso   1.000  Cu
  Cu8      1.0000 0.85599  0.14050  0.46790  Biso   1.000  Cu
  Si1      1.0000 0.00000  0.00000  0.00000  Biso   1.000  Si
  Si2      1.0000 0.50000  0.00000  0.50000  Biso   1.000  Si
  Si3      1.0000 0.50000  0.50000  0.50000  Biso   1.000  Si
  Si4      1.0000 0.00000  0.50000  0.00000  Biso   1.000  Si
  F1       1.0000 0.97940  0.01900  0.23710  Biso   1.000  F
  F2       1.0000 0.52060  0.98100  0.73710  Biso   1.000  F
  F3       1.0000 0.02060  0.98100  0.76290  Biso   1.000  F
  F4       1.0000 0.47940  0.01900  0.26290  Biso   1.000  F
  F5       1.0000 0.89660  0.92000  0.98300  Biso   1.000  F
  F6       1.0000 0.60340  0.08000  0.48300  Biso   1.000  F
  F7       1.0000 0.10340  0.08000  0.01700  Biso   1.000  F
  F8       1.0000 0.39660  0.92000  0.51700  Biso   1.000  F
  F9       1.0000 0.98990  0.10090  0.92200  Biso   1.000  F
  F10      1.0000 0.51010  0.89910  0.42200  Biso   1.000  F
  F11      1.0000 0.01010  0.89910  0.07800  Biso   1.000  F
  F12      1.0000 0.48990  0.10090  0.57800  Biso   1.000  F
  F13      1.0000 0.05720  0.13030  0.98200  Biso   1.000  F
  F14      1.0000 0.44280  0.86970  0.48200  Biso   1.000  F
  F15      1.0000 0.94280  0.86970  0.01800  Biso   1.000  F
  F16      1.0000 0.55720  0.13030  0.51800  Biso   1.000  F
  F17      1.0000 0.92240  0.00450  0.89300  Biso   1.000  F
  F18      1.0000 0.57760  0.99550  0.39300  Biso   1.000  F
  F19      1.0000 0.07760  0.99550  0.10700  Biso   1.000  F
  F20      1.0000 0.42240  0.00450  0.60700  Biso   1.000  F
  F21      1.0000 0.47530  0.45320  0.73190  Biso   1.000  F
  F22      1.0000 0.02470  0.54680  0.23190  Biso   1.000  F
  F23      1.0000 0.52470  0.54680  0.26810  Biso   1.000  F
  F24      1.0000 0.97530  0.45320  0.76810  Biso   1.000  F
  F25      1.0000 0.60090  0.54990  0.55470  Biso   1.000  F
  F26      1.0000 0.89910  0.45010  0.05470  Biso   1.000  F
  F27      1.0000 0.39910  0.45010  0.44530  Biso   1.000  F
  F28      1.0000 0.10090  0.54990  0.94530  Biso   1.000  F
  F29      1.0000 0.49270  0.38890  0.42540  Biso   1.000  F
  F30      1.0000 0.00730  0.61110  0.92540  Biso   1.000  F
  F31      1.0000 0.50730  0.61110  0.57460  Biso   1.000  F
  F32      1.0000 0.99270  0.38890  0.07460  Biso   1.000  F
  O1       1.0000 0.48300  0.33500  0.02480  Biso   1.000  O
  O2       1.0000 0.01700  0.66500  0.52480  Biso   1.000  O
  O3       1.0000 0.51700  0.66500  0.97520  Biso   1.000  O
  O4       1.0000 0.98300  0.33500  0.47520  Biso   1.000  O
  O5       1.0000 0.43880  0.09890  0.95760  Biso   1.000  O
  O6       1.0000 0.06120  0.90110  0.45760  Biso   1.000  O
  O7       1.0000 0.56120  0.90110  0.04240  Biso   1.000  O
  O8       1.0000 0.93880  0.09890  0.54240  Biso   1.000  O
  O9       1.0000 0.56230  0.30200  0.65590  Biso   1.000  O
  O10      1.0000 0.93770  0.69800  0.15590  Biso   1.000  O
  O11      1.0000 0.43770  0.69800  0.34410  Biso   1.000  O
  O12      1.0000 0.06230  0.30200  0.84410  Biso   1.000  O
  O13      1.0000 0.66680  0.50640  0.88000  Biso   1.000  O
  O14      1.0000 0.83320  0.49360  0.38000  Biso   1.000  O
  O15      1.0000 0.33320  0.49360  0.12000  Biso   1.000  O
  O16      1.0000 0.16680  0.50640  0.62000  Biso   1.000  O
  N1       1.0000 0.80900  0.16960  0.69620  Biso   1.000  N
  N2       1.0000 0.69100  0.83040  0.19620  Biso   1.000  N
  N3       1.0000 0.19100  0.83040  0.30380  Biso   1.000  N
  N4       1.0000 0.30900  0.16960  0.80380  Biso   1.000  N
  N5       1.0000 0.73310  0.18920  0.97900  Biso   1.000  N
  N6       1.0000 0.76690  0.81080  0.47900  Biso   1.000  N
  N7       1.0000 0.26690  0.81080  0.02100  Biso   1.000  N
  N8       1.0000 0.23310  0.18920  0.52100  Biso   1.000  N
  C1       1.0000 0.64230  0.31480  0.18700  Biso   1.000  C
  C2       1.0000 0.85770  0.68520  0.68700  Biso   1.000  C
  C3       1.0000 0.35770  0.68520  0.81300  Biso   1.000  C
  C4       1.0000 0.14230  0.31480  0.31300  Biso   1.000  C
  C5       1.0000 0.67920  0.30310  0.02100  Biso   1.000  C
  C6       1.0000 0.82080  0.69690  0.52100  Biso   1.000  C
  C7       1.0000 0.32080  0.69690  0.97900  Biso   1.000  C
  C8       1.0000 0.17920  0.30310  0.47900  Biso   1.000  C
  C9       1.0000 0.66250  0.20200  0.94700  Biso   1.000  C
  C10      1.0000 0.83750  0.79800  0.44700  Biso   1.000  C
  C11      1.0000 0.33750  0.79800  0.05300  Biso   1.000  C
  C12      1.0000 0.16250  0.20200  0.55300  Biso   1.000  C
  C13      1.0000 0.76880  0.20030  0.17900  Biso   1.000  C
  C14      1.0000 0.73120  0.79970  0.67900  Biso   1.000  C
  C15      1.0000 0.23120  0.79970  0.82100  Biso   1.000  C
  C16      1.0000 0.26880  0.20030  0.32100  Biso   1.000  C
  C17      1.0000 0.78110  0.11110  0.22400  Biso   1.000  C
  C18      1.0000 0.71890  0.88890  0.72400  Biso   1.000  C
  C19      1.0000 0.21890  0.88890  0.77600  Biso   1.000  C
  C20      1.0000 0.28110  0.11110  0.27600  Biso   1.000  C
  C21      1.0000 0.85090  0.11350  0.17000  Biso   1.000  C
  C22      1.0000 0.64910  0.88650  0.67000  Biso   1.000  C
  C23      1.0000 0.14910  0.88650  0.83000  Biso   1.000  C
  C24      1.0000 0.35090  0.11350  0.33000  Biso   1.000  C
  C25      1.0000 0.77280  0.17940  0.82740  Biso   1.000  C
  C26      1.0000 0.72720  0.82060  0.32740  Biso   1.000  C
  C27      1.0000 0.22720  0.82060  0.17260  Biso   1.000  C
  C28      1.0000 0.27280  0.17940  0.67260  Biso   1.000  C
  C29      1.0000 0.69200  0.57970  0.03600  Biso   1.000  C
  C30      1.0000 0.80800  0.42030  0.53600  Biso   1.000  C
  C31      1.0000 0.30800  0.42030  0.96400  Biso   1.000  C
  C32      1.0000 0.19200  0.57970  0.46400  Biso   1.000  C
  H1       1.0000 0.61800  0.26500  0.27100  Biso   1.000  H
  H2       1.0000 0.88200  0.73500  0.77100  Biso   1.000  H
  H3       1.0000 0.38200  0.73500  0.72900  Biso   1.000  H
  H4       1.0000 0.11800  0.26500  0.22900  Biso   1.000  H
  H5       1.0000 0.68600  0.40400  0.22800  Biso   1.000  H
  H6       1.0000 0.81400  0.59600  0.72800  Biso   1.000  H
  H7       1.0000 0.31400  0.59600  0.77200  Biso   1.000  H
  H8       1.0000 0.18600  0.40400  0.27200  Biso   1.000  H
  H9       1.0000 0.72600  0.36400  0.95700  Biso   1.000  H
  H10      1.0000 0.77400  0.63600  0.45700  Biso   1.000  H
  H11      1.0000 0.27400  0.63600  0.04300  Biso   1.000  H
  H12      1.0000 0.22600  0.36400  0.54300  Biso   1.000  H
  H13      1.0000 0.65100  0.19100  0.79300  Biso   1.000  H
  H14      1.0000 0.84900  0.80900  0.29300  Biso   1.000  H
  H15      1.0000 0.34900  0.80900  0.20700  Biso   1.000  H
  H16      1.0000 0.15100  0.19100  0.70700  Biso   1.000  H
  H17      1.0000 0.61200  0.14300  0.01100  Biso   1.000  H
  H18      1.0000 0.88800  0.85700  0.51100  Biso   1.000  H
  H19      1.0000 0.38800  0.85700  0.98900  Biso   1.000  H
  H20      1.0000 0.11200  0.14300  0.48900  Biso   1.000  H
  H21      1.0000 0.83300  0.27400  0.18700  Biso   1.000  H
  H22      1.0000 0.66700  0.72600  0.68700  Biso   1.000  H
  H23      1.0000 0.16700  0.72600  0.81300  Biso   1.000  H
  H24      1.0000 0.33300  0.27400  0.31300  Biso   1.000  H
  H25      1.0000 0.73800  0.20600  0.24900  Biso   1.000  H
  H26      1.0000 0.76200  0.79400  0.74900  Biso   1.000  H
  H27      1.0000 0.26200  0.79400  0.75100  Biso   1.000  H
  H28      1.0000 0.23800  0.20600  0.25100  Biso   1.000  H
  H29      1.0000 0.73100  0.03400  0.22700  Biso   1.000  H
  H30      1.0000 0.76900  0.96600  0.72700  Biso   1.000  H
  H31      1.0000 0.26900  0.96600  0.77300  Biso   1.000  H
  H32      1.0000 0.23100  0.03400  0.27300  Biso   1.000  H
  H33      1.0000 0.84500  0.05800  0.16400  Biso   1.000  H
  H34      1.0000 0.65500  0.94200  0.66400  Biso   1.000  H
  H35      1.0000 0.15500  0.94200  0.83600  Biso   1.000  H
  H36      1.0000 0.34500  0.05800  0.33600  Biso   1.000  H
  H37      1.0000 0.90500  0.18800  0.13300  Biso   1.000  H
  H38      1.0000 0.59500  0.81200  0.63300  Biso   1.000  H
  H39      1.0000 0.09500  0.81200  0.86700  Biso   1.000  H
  H40      1.0000 0.40500  0.18800  0.36700  Biso   1.000  H
  H41      1.0000 0.73100  0.55900  0.09500  Biso   1.000  H
  H42      1.0000 0.76900  0.44100  0.59500  Biso   1.000  H
  H43      1.0000 0.26900  0.44100  0.90500  Biso   1.000  H
  H44      1.0000 0.23100  0.55900  0.40500  Biso   1.000  H
  H45      1.0000 0.71800  0.67000  0.01900  Biso   1.000  H
  H46      1.0000 0.78200  0.33000  0.51900  Biso   1.000  H
  H47      1.0000 0.28200  0.33000  0.98100  Biso   1.000  H
  H48      1.0000 0.21800  0.67000  0.48100  Biso   1.000  H
  H49      1.0000 0.64000  0.57500  0.10400  Biso   1.000  H
  H50      1.0000 0.86000  0.42500  0.60400  Biso   1.000  H
  H51      1.0000 0.36000  0.42500  0.89600  Biso   1.000  H
  H52      1.0000 0.14000  0.57500  0.39600  Biso   1.000  H
  H53      1.0000 0.49700  0.36400  0.10000  Biso   1.000  H
  H54      1.0000 0.00300  0.63600  0.60000  Biso   1.000  H
  H55      1.0000 0.50300  0.63600  0.90000  Biso   1.000  H
  H56      1.0000 0.99700  0.36400  0.40000  Biso   1.000  H
  H57      1.0000 0.48000  0.36700  0.95300  Biso   1.000  H
  H58      1.0000 0.02000  0.63300  0.45300  Biso   1.000  H
  H59      1.0000 0.52000  0.63300  0.04700  Biso   1.000  H
  H60      1.0000 0.98000  0.36700  0.54700  Biso   1.000  H
  H61      1.0000 0.45000  0.07000  0.09200  Biso   1.000  H
  H62      1.0000 0.05000  0.93000  0.59200  Biso   1.000  H
  H63      1.0000 0.55000  0.93000  0.90800  Biso   1.000  H
  H64      1.0000 0.95000  0.07000  0.40800  Biso   1.000  H
  H65      1.0000 0.46100  0.11200  0.86000  Biso   1.000  H
  H66      1.0000 0.03900  0.88800  0.36000  Biso   1.000  H
  H67      1.0000 0.53900  0.88800  0.14000  Biso   1.000  H
  H68      1.0000 0.96100  0.11200  0.64000  Biso   1.000  H
  H69      1.0000 0.54800  0.33100  0.57900  Biso   1.000  H
  H70      1.0000 0.95200  0.66900  0.07900  Biso   1.000  H
  H71      1.0000 0.45200  0.66900  0.42100  Biso   1.000  H
  H72      1.0000 0.04800  0.33100  0.92100  Biso   1.000  H
  H73      1.0000 0.53700  0.25200  0.58700  Biso   1.000  H
  H74      1.0000 0.96300  0.74800  0.08700  Biso   1.000  H
  H75      1.0000 0.46300  0.74800  0.41300  Biso   1.000  H
  H76      1.0000 0.03700  0.25200  0.91300  Biso   1.000  H
  H77      1.0000 0.63800  0.52100  0.73100  Biso   1.000  H
  H78      1.0000 0.86200  0.47900  0.23100  Biso   1.000  H
  H79      1.0000 0.36200  0.47900  0.26900  Biso   1.000  H
  H80      1.0000 0.13800  0.52100  0.76900  Biso   1.000  H
