data_image0
_cell_length_a       5.655
_cell_length_b       15.4504
_cell_length_c       8.1286
_cell_angle_alpha    90
_cell_angle_beta     97.531
_cell_angle_gamma    90

_symmetry_space_group_name_H-M    "P 1"
_symmetry_int_tables_number       1

loop_
  _symmetry_equiv_pos_as_xyz
  'x, y, z'

loop_
  _atom_site_label
  _atom_site_occupancy
  _atom_site_fract_x
  _atom_site_fract_y
  _atom_site_fract_z
  _atom_site_thermal_displace_type
  _atom_site_B_iso_or_equiv
  _atom_site_type_symbol
  Cu1      1.0000 0.98505  0.80354  0.27467  Biso   1.000  Cu
  Cu2      1.0000 0.98505  0.19646  0.77467  Biso   1.000  Cu
  Cu3      1.0000 0.82077  0.62133  0.24771  Biso   1.000  Cu
  Cu4      1.0000 0.82077  0.37867  0.74771  Biso   1.000  Cu
  N1       1.0000 0.78880  0.76870  0.06120  Biso   1.000  N
  N2       1.0000 0.78880  0.23130  0.56120  Biso   1.000  N
  N3       1.0000 0.67790  0.69130  0.06660  Biso   1.000  N
  N4       1.0000 0.67790  0.30870  0.56660  Biso   1.000  N
  N5       1.0000 0.88440  0.07050  0.82640  Biso   1.000  N
  N6       1.0000 0.88440  0.92950  0.32640  Biso   1.000  N
  N7       1.0000 0.02270  0.47440  0.82450  Biso   1.000  N
  N8       1.0000 0.02270  0.52560  0.32450  Biso   1.000  N
  N9       1.0000 0.31080  0.78160  0.35750  Biso   1.000  N
  N10      1.0000 0.31080  0.21840  0.85750  Biso   1.000  N
  S1       1.0000 0.76530  0.71891  0.48110  Biso   1.000  S
  S2       1.0000 0.76530  0.28109  0.98110  Biso   1.000  S
  C1       1.0000 0.59840  0.95700  0.79930  Biso   1.000  C
  C2       1.0000 0.59840  0.04300  0.29930  Biso   1.000  C
  H1       1.0000 0.44540  0.93900  0.75730  Biso   1.000  H
  H2       1.0000 0.44540  0.06100  0.25730  Biso   1.000  H
  C3       1.0000 0.67070  0.03980  0.77080  Biso   1.000  C
  C4       1.0000 0.67070  0.96020  0.27080  Biso   1.000  C
  H3       1.0000 0.56310  0.07640  0.70880  Biso   1.000  H
  H4       1.0000 0.56310  0.92360  0.20880  Biso   1.000  H
  C5       1.0000 0.03600  0.01640  0.91310  Biso   1.000  C
  C6       1.0000 0.03600  0.98360  0.41310  Biso   1.000  C
  H5       1.0000 0.18750  0.03670  0.95290  Biso   1.000  H
  H6       1.0000 0.18750  0.96330  0.45290  Biso   1.000  H
  C7       1.0000 0.98080  0.93150  0.94750  Biso   1.000  C
  C8       1.0000 0.98080  0.06850  0.44750  Biso   1.000  C
  H7       1.0000 0.09370  0.89600  0.00740  Biso   1.000  H
  H8       1.0000 0.09370  0.10400  0.50740  Biso   1.000  H
  C9       1.0000 0.75370  0.90020  0.89090  Biso   1.000  C
  C10      1.0000 0.75370  0.09980  0.39090  Biso   1.000  C
  C11      1.0000 0.67810  0.81310  0.93280  Biso   1.000  C
  C12      1.0000 0.67810  0.18690  0.43280  Biso   1.000  C
  C13      1.0000 0.48410  0.76690  0.85560  Biso   1.000  C
  C14      1.0000 0.48410  0.23310  0.35560  Biso   1.000  C
  H9       1.0000 0.37370  0.78400  0.76650  Biso   1.000  H
  H10      1.0000 0.37370  0.21600  0.26650  Biso   1.000  H
  C15      1.0000 0.49340  0.68870  0.94340  Biso   1.000  C
  C16      1.0000 0.49340  0.31130  0.44340  Biso   1.000  C
  C17      1.0000 0.33140  0.61410  0.90940  Biso   1.000  C
  C18      1.0000 0.33140  0.38590  0.40940  Biso   1.000  C
  C19      1.0000 0.10290  0.62780  0.82850  Biso   1.000  C
  C20      1.0000 0.10290  0.37220  0.32850  Biso   1.000  C
  H11      1.0000 0.04870  0.68360  0.80230  Biso   1.000  H
  H12      1.0000 0.04870  0.31640  0.30230  Biso   1.000  H
  C21      1.0000 0.95680  0.55700  0.78730  Biso   1.000  C
  C22      1.0000 0.95680  0.44300  0.28730  Biso   1.000  C
  H13      1.0000 0.80510  0.56680  0.73110  Biso   1.000  H
  H14      1.0000 0.80510  0.43320  0.23110  Biso   1.000  H
  C23      1.0000 0.23850  0.46320  0.90910  Biso   1.000  C
  C24      1.0000 0.23850  0.53680  0.40910  Biso   1.000  C
  H15      1.0000 0.28500  0.40730  0.94110  Biso   1.000  H
  H16      1.0000 0.28500  0.59270  0.44110  Biso   1.000  H
  C25      1.0000 0.39710  0.52980  0.95190  Biso   1.000  C
  C26      1.0000 0.39710  0.47020  0.45190  Biso   1.000  C
  H17      1.0000 0.54720  0.51820  0.00900  Biso   1.000  H
  H18      1.0000 0.54720  0.48180  0.50900  Biso   1.000  H
  C27      1.0000 0.49860  0.75650  0.40860  Biso   1.000  C
  C28      1.0000 0.49860  0.24350  0.90860  Biso   1.000  C
