data_image0
_cell_length_a       7.3624
_cell_length_b       8.6798
_cell_length_c       14.3089
_cell_angle_alpha    86.401
_cell_angle_beta     83.16
_cell_angle_gamma    81.975

_symmetry_space_group_name_H-M    "P 1"
_symmetry_int_tables_number       1

loop_
  _symmetry_equiv_pos_as_xyz
  'x, y, z'

loop_
  _atom_site_label
  _atom_site_occupancy
  _atom_site_fract_x
  _atom_site_fract_y
  _atom_site_fract_z
  _atom_site_thermal_displace_type
  _atom_site_B_iso_or_equiv
  _atom_site_type_symbol
  Br1      1.0000 0.10278  0.73279  0.85695  Biso   1.000  Br
  Br2      1.0000 0.89722  0.26721  0.14305  Biso   1.000  Br
  Br3      1.0000 0.76626  0.59615  0.40613  Biso   1.000  Br
  Br4      1.0000 0.23374  0.40385  0.59387  Biso   1.000  Br
  Cu1      1.0000 0.34853  0.89801  0.82025  Biso   1.000  Cu
  Cu2      1.0000 0.65147  0.10199  0.17975  Biso   1.000  Cu
  Cu3      1.0000 0.20986  0.48967  0.01958  Biso   1.000  Cu
  Cu4      1.0000 0.79014  0.51033  0.98042  Biso   1.000  Cu
  Cu5      1.0000 0.52876  0.15311  0.68748  Biso   1.000  Cu
  Cu6      1.0000 0.47124  0.84689  0.31252  Biso   1.000  Cu
  Cu7      1.0000 0.71029  0.41552  0.56308  Biso   1.000  Cu
  Cu8      1.0000 0.28971  0.58448  0.43692  Biso   1.000  Cu
  Cu9      1.0000 0.81987  0.92498  0.79185  Biso   1.000  Cu
  Cu10     1.0000 0.18013  0.07502  0.20815  Biso   1.000  Cu
  Cu11     1.0000 0.89922  0.85325  0.34342  Biso   1.000  Cu
  Cu12     1.0000 0.10078  0.14675  0.65658  Biso   1.000  Cu
  N1       1.0000 0.33800  0.10110  0.86870  Biso   1.000  N
  N2       1.0000 0.66200  0.89890  0.13130  Biso   1.000  N
  N3       1.0000 0.29290  0.32710  0.93780  Biso   1.000  N
  N4       1.0000 0.70710  0.67290  0.06220  Biso   1.000  N
  N5       1.0000 0.41400  0.20990  0.80740  Biso   1.000  N
  N6       1.0000 0.58600  0.79010  0.19260  Biso   1.000  N
  N7       1.0000 0.66520  0.09400  0.57270  Biso   1.000  N
  N8       1.0000 0.33480  0.90600  0.42730  Biso   1.000  N
  N9       1.0000 0.80390  0.99400  0.43930  Biso   1.000  N
  N10      1.0000 0.19610  0.00600  0.56070  Biso   1.000  N
  N11      1.0000 0.73710  0.21170  0.51720  Biso   1.000  N
  N12      1.0000 0.26290  0.78830  0.48280  Biso   1.000  N
  N13      1.0000 0.67130  0.57450  0.65230  Biso   1.000  N
  N14      1.0000 0.32870  0.42550  0.34770  Biso   1.000  N
  N15      1.0000 0.53070  0.76740  0.74020  Biso   1.000  N
  N16      1.0000 0.46930  0.23260  0.25980  Biso   1.000  N
  N17      1.0000 0.71780  0.76910  0.73630  Biso   1.000  N
  N18      1.0000 0.28220  0.23090  0.26370  Biso   1.000  N
  N19      1.0000 0.03620  0.78660  0.22890  Biso   1.000  N
  N20      1.0000 0.96380  0.21340  0.77110  Biso   1.000  N
  N21      1.0000 0.15540  0.65010  0.10390  Biso   1.000  N
  N22      1.0000 0.84460  0.34990  0.89610  Biso   1.000  N
  N23      1.0000 0.14370  0.87770  0.16890  Biso   1.000  N
  N24      1.0000 0.85630  0.12230  0.83110  Biso   1.000  N
  C1       1.0000 0.26620  0.17570  0.94520  Biso   1.000  C
  C2       1.0000 0.73380  0.82430  0.05480  Biso   1.000  C
  H1       1.0000 0.20340  0.12840  0.99890  Biso   1.000  H
  H2       1.0000 0.79660  0.87160  0.00110  Biso   1.000  H
  C3       1.0000 0.38340  0.34220  0.85080  Biso   1.000  C
  C4       1.0000 0.61660  0.65780  0.14920  Biso   1.000  C
  H3       1.0000 0.42080  0.43720  0.82390  Biso   1.000  H
  H4       1.0000 0.57920  0.56280  0.17610  Biso   1.000  H
  C5       1.0000 0.70740  0.96620  0.52380  Biso   1.000  C
  C6       1.0000 0.29260  0.03380  0.47620  Biso   1.000  C
  H5       1.0000 0.67390  0.86730  0.54550  Biso   1.000  H
  H6       1.0000 0.32610  0.13270  0.45450  Biso   1.000  H
  C7       1.0000 0.81740  0.14690  0.43880  Biso   1.000  C
  C8       1.0000 0.18260  0.85310  0.56120  Biso   1.000  C
  H7       1.0000 0.87780  0.20250  0.38770  Biso   1.000  H
  H8       1.0000 0.12220  0.79750  0.61230  Biso   1.000  H
  C9       1.0000 0.50920  0.64990  0.68960  Biso   1.000  C
  C10      1.0000 0.49080  0.35010  0.31040  Biso   1.000  C
  H9       1.0000 0.39240  0.62200  0.68060  Biso   1.000  H
  H10      1.0000 0.60760  0.37800  0.31940  Biso   1.000  H
  C11      1.0000 0.79650  0.65270  0.68370  Biso   1.000  C
  C12      1.0000 0.20350  0.34730  0.31630  Biso   1.000  C
  H11      1.0000 0.92620  0.62710  0.66970  Biso   1.000  H
  H12      1.0000 0.07380  0.37290  0.33030  Biso   1.000  H
  C13      1.0000 0.04720  0.65330  0.18740  Biso   1.000  C
  C14      1.0000 0.95280  0.34670  0.81260  Biso   1.000  C
  H13      1.0000 0.98570  0.56870  0.21340  Biso   1.000  H
  H14      1.0000 0.01430  0.43130  0.78660  Biso   1.000  H
  C15      1.0000 0.21160  0.79220  0.09670  Biso   1.000  C
  C16      1.0000 0.78840  0.20780  0.90330  Biso   1.000  C
  H15      1.0000 0.29180  0.82700  0.04510  Biso   1.000  H
  H16      1.0000 0.70820  0.17300  0.95490  Biso   1.000  H
