data_image0
_cell_length_a       28.6782
_cell_length_b       28.6782
_cell_length_c       6.527
_cell_angle_alpha    90
_cell_angle_beta     90
_cell_angle_gamma    90

_symmetry_space_group_name_H-M    "P 1"
_symmetry_int_tables_number       1

loop_
  _symmetry_equiv_pos_as_xyz
  'x, y, z'

loop_
  _atom_site_label
  _atom_site_occupancy
  _atom_site_fract_x
  _atom_site_fract_y
  _atom_site_fract_z
  _atom_site_thermal_displace_type
  _atom_site_B_iso_or_equiv
  _atom_site_type_symbol
  Br1      1.0000 0.00000  0.75000  0.87500  Biso   1.000  Br
  Br2      1.0000 0.50000  0.75000  0.12500  Biso   1.000  Br
  Br3      1.0000 0.00000  0.25000  0.62500  Biso   1.000  Br
  Br4      1.0000 0.50000  0.25000  0.37500  Biso   1.000  Br
  Br5      1.0000 0.00000  0.25000  0.12500  Biso   1.000  Br
  Br6      1.0000 0.00000  0.75000  0.37500  Biso   1.000  Br
  Br7      1.0000 0.50000  0.75000  0.62500  Biso   1.000  Br
  Br8      1.0000 0.50000  0.25000  0.87500  Biso   1.000  Br
  Cu1      1.0000 0.05280  0.31845  0.36733  Biso   1.000  Cu
  Cu2      1.0000 0.93155  0.80280  0.61733  Biso   1.000  Cu
  Cu3      1.0000 0.05280  0.68155  0.13267  Biso   1.000  Cu
  Cu4      1.0000 0.44720  0.68155  0.86733  Biso   1.000  Cu
  Cu5      1.0000 0.56845  0.80280  0.38267  Biso   1.000  Cu
  Cu6      1.0000 0.56845  0.19720  0.11733  Biso   1.000  Cu
  Cu7      1.0000 0.44720  0.31845  0.63267  Biso   1.000  Cu
  Cu8      1.0000 0.93155  0.19720  0.88267  Biso   1.000  Cu
  Cu9      1.0000 0.55280  0.81845  0.86733  Biso   1.000  Cu
  Cu10     1.0000 0.43155  0.30280  0.11733  Biso   1.000  Cu
  Cu11     1.0000 0.55280  0.18155  0.63267  Biso   1.000  Cu
  Cu12     1.0000 0.94720  0.18155  0.36733  Biso   1.000  Cu
  Cu13     1.0000 0.06845  0.30280  0.88267  Biso   1.000  Cu
  Cu14     1.0000 0.06845  0.69720  0.61733  Biso   1.000  Cu
  Cu15     1.0000 0.94720  0.81845  0.13267  Biso   1.000  Cu
  Cu16     1.0000 0.43155  0.69720  0.38267  Biso   1.000  Cu
  Cu17     1.0000 0.94720  0.68155  0.63267  Biso   1.000  Cu
  Cu18     1.0000 0.56845  0.69720  0.88267  Biso   1.000  Cu
  Cu19     1.0000 0.94720  0.31845  0.86733  Biso   1.000  Cu
  Cu20     1.0000 0.55280  0.31845  0.13267  Biso   1.000  Cu
  Cu21     1.0000 0.93155  0.69720  0.11733  Biso   1.000  Cu
  Cu22     1.0000 0.93155  0.30280  0.38267  Biso   1.000  Cu
  Cu23     1.0000 0.55280  0.68155  0.36733  Biso   1.000  Cu
  Cu24     1.0000 0.56845  0.30280  0.61733  Biso   1.000  Cu
  Cu25     1.0000 0.44720  0.18155  0.13267  Biso   1.000  Cu
  Cu26     1.0000 0.06845  0.19720  0.38267  Biso   1.000  Cu
  Cu27     1.0000 0.44720  0.81845  0.36733  Biso   1.000  Cu
  Cu28     1.0000 0.05280  0.81845  0.63267  Biso   1.000  Cu
  Cu29     1.0000 0.43155  0.19720  0.61733  Biso   1.000  Cu
  Cu30     1.0000 0.43155  0.80280  0.88267  Biso   1.000  Cu
  Cu31     1.0000 0.05280  0.18155  0.86733  Biso   1.000  Cu
  Cu32     1.0000 0.06845  0.80280  0.11733  Biso   1.000  Cu
  Cu33     1.0000 0.96884  0.50000  0.25000  Biso   1.000  Cu
  Cu34     1.0000 0.75000  0.71884  0.50000  Biso   1.000  Cu
  Cu35     1.0000 0.53116  0.50000  0.75000  Biso   1.000  Cu
  Cu36     1.0000 0.75000  0.28116  0.00000  Biso   1.000  Cu
  Cu37     1.0000 0.46884  0.00000  0.75000  Biso   1.000  Cu
  Cu38     1.0000 0.25000  0.21884  0.00000  Biso   1.000  Cu
  Cu39     1.0000 0.03116  0.00000  0.25000  Biso   1.000  Cu
  Cu40     1.0000 0.25000  0.78116  0.50000  Biso   1.000  Cu
  Cu41     1.0000 0.03116  0.50000  0.75000  Biso   1.000  Cu
  Cu42     1.0000 0.75000  0.78116  0.00000  Biso   1.000  Cu
  Cu43     1.0000 0.46884  0.50000  0.25000  Biso   1.000  Cu
  Cu44     1.0000 0.75000  0.21884  0.50000  Biso   1.000  Cu
  Cu45     1.0000 0.53116  0.00000  0.25000  Biso   1.000  Cu
  Cu46     1.0000 0.25000  0.28116  0.50000  Biso   1.000  Cu
  Cu47     1.0000 0.96884  0.00000  0.75000  Biso   1.000  Cu
  Cu48     1.0000 0.25000  0.71884  0.00000  Biso   1.000  Cu
  N1       1.0000 0.00940  0.36733  0.34110  Biso   1.000  N
  N2       1.0000 0.88267  0.75940  0.59110  Biso   1.000  N
  N3       1.0000 0.00940  0.63267  0.15890  Biso   1.000  N
  N4       1.0000 0.49060  0.63267  0.84110  Biso   1.000  N
  N5       1.0000 0.61733  0.75940  0.40890  Biso   1.000  N
  N6       1.0000 0.61733  0.24060  0.09110  Biso   1.000  N
  N7       1.0000 0.49060  0.36733  0.65890  Biso   1.000  N
  N8       1.0000 0.88267  0.24060  0.90890  Biso   1.000  N
  N9       1.0000 0.50940  0.86733  0.84110  Biso   1.000  N
  N10      1.0000 0.38267  0.25940  0.09110  Biso   1.000  N
  N11      1.0000 0.50940  0.13267  0.65890  Biso   1.000  N
  N12      1.0000 0.99060  0.13267  0.34110  Biso   1.000  N
  N13      1.0000 0.11733  0.25940  0.90890  Biso   1.000  N
  N14      1.0000 0.11733  0.74060  0.59110  Biso   1.000  N
  N15      1.0000 0.99060  0.86733  0.15890  Biso   1.000  N
  N16      1.0000 0.38267  0.74060  0.40890  Biso   1.000  N
  N17      1.0000 0.99060  0.63267  0.65890  Biso   1.000  N
  N18      1.0000 0.61733  0.74060  0.90890  Biso   1.000  N
  N19      1.0000 0.99060  0.36733  0.84110  Biso   1.000  N
  N20      1.0000 0.50940  0.36733  0.15890  Biso   1.000  N
  N21      1.0000 0.88267  0.74060  0.09110  Biso   1.000  N
  N22      1.0000 0.88267  0.25940  0.40890  Biso   1.000  N
  N23      1.0000 0.50940  0.63267  0.34110  Biso   1.000  N
  N24      1.0000 0.61733  0.25940  0.59110  Biso   1.000  N
  N25      1.0000 0.49060  0.13267  0.15890  Biso   1.000  N
  N26      1.0000 0.11733  0.24060  0.40890  Biso   1.000  N
  N27      1.0000 0.49060  0.86733  0.34110  Biso   1.000  N
  N28      1.0000 0.00940  0.86733  0.65890  Biso   1.000  N
  N29      1.0000 0.38267  0.24060  0.59110  Biso   1.000  N
  N30      1.0000 0.38267  0.75940  0.90890  Biso   1.000  N
  N31      1.0000 0.00940  0.13267  0.84110  Biso   1.000  N
  N32      1.0000 0.11733  0.75940  0.09110  Biso   1.000  N
  N33      1.0000 0.96095  0.36111  0.34840  Biso   1.000  N
  N34      1.0000 0.88889  0.71095  0.59840  Biso   1.000  N
  N35      1.0000 0.96095  0.63889  0.15160  Biso   1.000  N
  N36      1.0000 0.53905  0.63889  0.84840  Biso   1.000  N
  N37      1.0000 0.61111  0.71095  0.40160  Biso   1.000  N
  N38      1.0000 0.61111  0.28905  0.09840  Biso   1.000  N
  N39      1.0000 0.53905  0.36111  0.65160  Biso   1.000  N
  N40      1.0000 0.88889  0.28905  0.90160  Biso   1.000  N
  N41      1.0000 0.46095  0.86111  0.84840  Biso   1.000  N
  N42      1.0000 0.38889  0.21095  0.09840  Biso   1.000  N
  N43      1.0000 0.46095  0.13889  0.65160  Biso   1.000  N
  N44      1.0000 0.03905  0.13889  0.34840  Biso   1.000  N
  N45      1.0000 0.11111  0.21095  0.90160  Biso   1.000  N
  N46      1.0000 0.11111  0.78905  0.59840  Biso   1.000  N
  N47      1.0000 0.03905  0.86111  0.15160  Biso   1.000  N
  N48      1.0000 0.38889  0.78905  0.40160  Biso   1.000  N
  N49      1.0000 0.03905  0.63889  0.65160  Biso   1.000  N
  N50      1.0000 0.61111  0.78905  0.90160  Biso   1.000  N
  N51      1.0000 0.03905  0.36111  0.84840  Biso   1.000  N
  N52      1.0000 0.46095  0.36111  0.15160  Biso   1.000  N
  N53      1.0000 0.88889  0.78905  0.09840  Biso   1.000  N
  N54      1.0000 0.88889  0.21095  0.40160  Biso   1.000  N
  N55      1.0000 0.46095  0.63889  0.34840  Biso   1.000  N
  N56      1.0000 0.61111  0.21095  0.59840  Biso   1.000  N
  N57      1.0000 0.53905  0.13889  0.15160  Biso   1.000  N
  N58      1.0000 0.11111  0.28905  0.40160  Biso   1.000  N
  N59      1.0000 0.53905  0.86111  0.34840  Biso   1.000  N
  N60      1.0000 0.96095  0.86111  0.65160  Biso   1.000  N
  N61      1.0000 0.38889  0.28905  0.59840  Biso   1.000  N
  N62      1.0000 0.38889  0.71095  0.90160  Biso   1.000  N
  N63      1.0000 0.96095  0.13889  0.84840  Biso   1.000  N
  N64      1.0000 0.11111  0.71095  0.09840  Biso   1.000  N
  N65      1.0000 0.97534  0.43602  0.29790  Biso   1.000  N
  N66      1.0000 0.81398  0.72534  0.54790  Biso   1.000  N
  N67      1.0000 0.97534  0.56398  0.20210  Biso   1.000  N
  N68      1.0000 0.52466  0.56398  0.79790  Biso   1.000  N
  N69      1.0000 0.68602  0.72534  0.45210  Biso   1.000  N
  N70      1.0000 0.68602  0.27466  0.04790  Biso   1.000  N
  N71      1.0000 0.52466  0.43602  0.70210  Biso   1.000  N
  N72      1.0000 0.81398  0.27466  0.95210  Biso   1.000  N
  N73      1.0000 0.47534  0.93602  0.79790  Biso   1.000  N
  N74      1.0000 0.31398  0.22534  0.04790  Biso   1.000  N
  N75      1.0000 0.47534  0.06398  0.70210  Biso   1.000  N
  N76      1.0000 0.02466  0.06398  0.29790  Biso   1.000  N
  N77      1.0000 0.18602  0.22534  0.95210  Biso   1.000  N
  N78      1.0000 0.18602  0.77466  0.54790  Biso   1.000  N
  N79      1.0000 0.02466  0.93602  0.20210  Biso   1.000  N
  N80      1.0000 0.31398  0.77466  0.45210  Biso   1.000  N
  N81      1.0000 0.02466  0.56398  0.70210  Biso   1.000  N
  N82      1.0000 0.68602  0.77466  0.95210  Biso   1.000  N
  N83      1.0000 0.02466  0.43602  0.79790  Biso   1.000  N
  N84      1.0000 0.47534  0.43602  0.20210  Biso   1.000  N
  N85      1.0000 0.81398  0.77466  0.04790  Biso   1.000  N
  N86      1.0000 0.81398  0.22534  0.45210  Biso   1.000  N
  N87      1.0000 0.47534  0.56398  0.29790  Biso   1.000  N
  N88      1.0000 0.68602  0.22534  0.54790  Biso   1.000  N
  N89      1.0000 0.52466  0.06398  0.20210  Biso   1.000  N
  N90      1.0000 0.18602  0.27466  0.45210  Biso   1.000  N
  N91      1.0000 0.52466  0.93602  0.29790  Biso   1.000  N
  N92      1.0000 0.97534  0.93602  0.70210  Biso   1.000  N
  N93      1.0000 0.31398  0.27466  0.54790  Biso   1.000  N
  N94      1.0000 0.31398  0.72534  0.95210  Biso   1.000  N
  N95      1.0000 0.97534  0.06398  0.79790  Biso   1.000  N
  N96      1.0000 0.18602  0.72534  0.04790  Biso   1.000  N
  C1       1.0000 0.01470  0.41170  0.31130  Biso   1.000  C
  C2       1.0000 0.83830  0.76470  0.56130  Biso   1.000  C
  C3       1.0000 0.01470  0.58830  0.18870  Biso   1.000  C
  C4       1.0000 0.48530  0.58830  0.81130  Biso   1.000  C
  C5       1.0000 0.66170  0.76470  0.43870  Biso   1.000  C
  C6       1.0000 0.66170  0.23530  0.06130  Biso   1.000  C
  C7       1.0000 0.48530  0.41170  0.68870  Biso   1.000  C
  C8       1.0000 0.83830  0.23530  0.93870  Biso   1.000  C
  C9       1.0000 0.51470  0.91170  0.81130  Biso   1.000  C
  C10      1.0000 0.33830  0.26470  0.06130  Biso   1.000  C
  C11      1.0000 0.51470  0.08830  0.68870  Biso   1.000  C
  C12      1.0000 0.98530  0.08830  0.31130  Biso   1.000  C
  C13      1.0000 0.16170  0.26470  0.93870  Biso   1.000  C
  C14      1.0000 0.16170  0.73530  0.56130  Biso   1.000  C
  C15      1.0000 0.98530  0.91170  0.18870  Biso   1.000  C
  C16      1.0000 0.33830  0.73530  0.43870  Biso   1.000  C
  C17      1.0000 0.98530  0.58830  0.68870  Biso   1.000  C
  C18      1.0000 0.66170  0.73530  0.93870  Biso   1.000  C
  C19      1.0000 0.98530  0.41170  0.81130  Biso   1.000  C
  C20      1.0000 0.51470  0.41170  0.18870  Biso   1.000  C
  C21      1.0000 0.83830  0.73530  0.06130  Biso   1.000  C
  C22      1.0000 0.83830  0.26470  0.43870  Biso   1.000  C
  C23      1.0000 0.51470  0.58830  0.31130  Biso   1.000  C
  C24      1.0000 0.66170  0.26470  0.56130  Biso   1.000  C
  C25      1.0000 0.48530  0.08830  0.18870  Biso   1.000  C
  C26      1.0000 0.16170  0.23530  0.43870  Biso   1.000  C
  C27      1.0000 0.48530  0.91170  0.31130  Biso   1.000  C
  C28      1.0000 0.01470  0.91170  0.68870  Biso   1.000  C
  C29      1.0000 0.33830  0.23530  0.56130  Biso   1.000  C
  C30      1.0000 0.33830  0.76470  0.93870  Biso   1.000  C
  C31      1.0000 0.01470  0.08830  0.81130  Biso   1.000  C
  C32      1.0000 0.16170  0.76470  0.06130  Biso   1.000  C
  H1       1.0000 0.04460  0.42580  0.29980  Biso   1.000  H
  H2       1.0000 0.82420  0.79460  0.54980  Biso   1.000  H
  H3       1.0000 0.04460  0.57420  0.20020  Biso   1.000  H
  H4       1.0000 0.45540  0.57420  0.79980  Biso   1.000  H
  H5       1.0000 0.67580  0.79460  0.45020  Biso   1.000  H
  H6       1.0000 0.67580  0.20540  0.04980  Biso   1.000  H
  H7       1.0000 0.45540  0.42580  0.70020  Biso   1.000  H
  H8       1.0000 0.82420  0.20540  0.95020  Biso   1.000  H
  H9       1.0000 0.54460  0.92580  0.79980  Biso   1.000  H
  H10      1.0000 0.32420  0.29460  0.04980  Biso   1.000  H
  H11      1.0000 0.54460  0.07420  0.70020  Biso   1.000  H
  H12      1.0000 0.95540  0.07420  0.29980  Biso   1.000  H
  H13      1.0000 0.17580  0.29460  0.95020  Biso   1.000  H
  H14      1.0000 0.17580  0.70540  0.54980  Biso   1.000  H
  H15      1.0000 0.95540  0.92580  0.20020  Biso   1.000  H
  H16      1.0000 0.32420  0.70540  0.45020  Biso   1.000  H
  H17      1.0000 0.95540  0.57420  0.70020  Biso   1.000  H
  H18      1.0000 0.67580  0.70540  0.95020  Biso   1.000  H
  H19      1.0000 0.95540  0.42580  0.79980  Biso   1.000  H
  H20      1.0000 0.54460  0.42580  0.20020  Biso   1.000  H
  H21      1.0000 0.82420  0.70540  0.04980  Biso   1.000  H
  H22      1.0000 0.82420  0.29460  0.45020  Biso   1.000  H
  H23      1.0000 0.54460  0.57420  0.29980  Biso   1.000  H
  H24      1.0000 0.67580  0.29460  0.54980  Biso   1.000  H
  H25      1.0000 0.45540  0.07420  0.20020  Biso   1.000  H
  H26      1.0000 0.17580  0.20540  0.45020  Biso   1.000  H
  H27      1.0000 0.45540  0.92580  0.29980  Biso   1.000  H
  H28      1.0000 0.04460  0.92580  0.70020  Biso   1.000  H
  H29      1.0000 0.32420  0.20540  0.54980  Biso   1.000  H
  H30      1.0000 0.32420  0.79460  0.95020  Biso   1.000  H
  H31      1.0000 0.04460  0.07420  0.79980  Biso   1.000  H
  H32      1.0000 0.17580  0.79460  0.04980  Biso   1.000  H
  C33      1.0000 0.94250  0.40190  0.32150  Biso   1.000  C
  C34      1.0000 0.84810  0.69250  0.57150  Biso   1.000  C
  C35      1.0000 0.94250  0.59810  0.17850  Biso   1.000  C
  C36      1.0000 0.55750  0.59810  0.82150  Biso   1.000  C
  C37      1.0000 0.65190  0.69250  0.42850  Biso   1.000  C
  C38      1.0000 0.65190  0.30750  0.07150  Biso   1.000  C
  C39      1.0000 0.55750  0.40190  0.67850  Biso   1.000  C
  C40      1.0000 0.84810  0.30750  0.92850  Biso   1.000  C
  C41      1.0000 0.44250  0.90190  0.82150  Biso   1.000  C
  C42      1.0000 0.34810  0.19250  0.07150  Biso   1.000  C
  C43      1.0000 0.44250  0.09810  0.67850  Biso   1.000  C
  C44      1.0000 0.05750  0.09810  0.32150  Biso   1.000  C
  C45      1.0000 0.15190  0.19250  0.92850  Biso   1.000  C
  C46      1.0000 0.15190  0.80750  0.57150  Biso   1.000  C
  C47      1.0000 0.05750  0.90190  0.17850  Biso   1.000  C
  C48      1.0000 0.34810  0.80750  0.42850  Biso   1.000  C
  C49      1.0000 0.05750  0.59810  0.67850  Biso   1.000  C
  C50      1.0000 0.65190  0.80750  0.92850  Biso   1.000  C
  C51      1.0000 0.05750  0.40190  0.82150  Biso   1.000  C
  C52      1.0000 0.44250  0.40190  0.17850  Biso   1.000  C
  C53      1.0000 0.84810  0.80750  0.07150  Biso   1.000  C
  C54      1.0000 0.84810  0.19250  0.42850  Biso   1.000  C
  C55      1.0000 0.44250  0.59810  0.32150  Biso   1.000  C
  C56      1.0000 0.65190  0.19250  0.57150  Biso   1.000  C
  C57      1.0000 0.55750  0.09810  0.17850  Biso   1.000  C
  C58      1.0000 0.15190  0.30750  0.42850  Biso   1.000  C
  C59      1.0000 0.55750  0.90190  0.32150  Biso   1.000  C
  C60      1.0000 0.94250  0.90190  0.67850  Biso   1.000  C
  C61      1.0000 0.34810  0.30750  0.57150  Biso   1.000  C
  C62      1.0000 0.34810  0.69250  0.92850  Biso   1.000  C
  C63      1.0000 0.94250  0.09810  0.82150  Biso   1.000  C
  C64      1.0000 0.15190  0.69250  0.07150  Biso   1.000  C
  H33      1.0000 0.90990  0.40750  0.31850  Biso   1.000  H
  H34      1.0000 0.84250  0.65990  0.56850  Biso   1.000  H
  H35      1.0000 0.90990  0.59250  0.18150  Biso   1.000  H
  H36      1.0000 0.59010  0.59250  0.81850  Biso   1.000  H
  H37      1.0000 0.65750  0.65990  0.43150  Biso   1.000  H
  H38      1.0000 0.65750  0.34010  0.06850  Biso   1.000  H
  H39      1.0000 0.59010  0.40750  0.68150  Biso   1.000  H
  H40      1.0000 0.84250  0.34010  0.93150  Biso   1.000  H
  H41      1.0000 0.40990  0.90750  0.81850  Biso   1.000  H
  H42      1.0000 0.34250  0.15990  0.06850  Biso   1.000  H
  H43      1.0000 0.40990  0.09250  0.68150  Biso   1.000  H
  H44      1.0000 0.09010  0.09250  0.31850  Biso   1.000  H
  H45      1.0000 0.15750  0.15990  0.93150  Biso   1.000  H
  H46      1.0000 0.15750  0.84010  0.56850  Biso   1.000  H
  H47      1.0000 0.09010  0.90750  0.18150  Biso   1.000  H
  H48      1.0000 0.34250  0.84010  0.43150  Biso   1.000  H
  H49      1.0000 0.09010  0.59250  0.68150  Biso   1.000  H
  H50      1.0000 0.65750  0.84010  0.93150  Biso   1.000  H
  H51      1.0000 0.09010  0.40750  0.81850  Biso   1.000  H
  H52      1.0000 0.40990  0.40750  0.18150  Biso   1.000  H
  H53      1.0000 0.84250  0.84010  0.06850  Biso   1.000  H
  H54      1.0000 0.84250  0.15990  0.43150  Biso   1.000  H
  H55      1.0000 0.40990  0.59250  0.31850  Biso   1.000  H
  H56      1.0000 0.65750  0.15990  0.56850  Biso   1.000  H
  H57      1.0000 0.59010  0.09250  0.18150  Biso   1.000  H
  H58      1.0000 0.15750  0.34010  0.43150  Biso   1.000  H
  H59      1.0000 0.59010  0.90750  0.31850  Biso   1.000  H
  H60      1.0000 0.90990  0.90750  0.68150  Biso   1.000  H
  H61      1.0000 0.34250  0.34010  0.56850  Biso   1.000  H
  H62      1.0000 0.34250  0.65990  0.93150  Biso   1.000  H
  H63      1.0000 0.90990  0.09250  0.81850  Biso   1.000  H
  H64      1.0000 0.15750  0.65990  0.06850  Biso   1.000  H
