data_image0
_cell_length_a       9.7141
_cell_length_b       4.0899
_cell_length_c       21.067
_cell_angle_alpha    90
_cell_angle_beta     98.896
_cell_angle_gamma    90

_symmetry_space_group_name_H-M    "P 1"
_symmetry_int_tables_number       1

loop_
  _symmetry_equiv_pos_as_xyz
  'x, y, z'

loop_
  _atom_site_label
  _atom_site_occupancy
  _atom_site_fract_x
  _atom_site_fract_y
  _atom_site_fract_z
  _atom_site_thermal_displace_type
  _atom_site_B_iso_or_equiv
  _atom_site_type_symbol
  I1       1.0000 0.95741  0.18172  0.24713  Biso   1.000  I
  I2       1.0000 0.54259  0.18172  0.25287  Biso   1.000  I
  I3       1.0000 0.04259  0.81828  0.75287  Biso   1.000  I
  I4       1.0000 0.45741  0.81828  0.74713  Biso   1.000  I
  I5       1.0000 0.79775  0.68252  0.41340  Biso   1.000  I
  I6       1.0000 0.70225  0.68252  0.08660  Biso   1.000  I
  I7       1.0000 0.20225  0.31748  0.58660  Biso   1.000  I
  I8       1.0000 0.29775  0.31748  0.91340  Biso   1.000  I
  Cu1      1.0000 0.50000  0.00000  0.50000  Biso   1.000  Cu
  Cu2      1.0000 0.00000  0.00000  0.00000  Biso   1.000  Cu
  Cu3      1.0000 0.25000  0.57000  0.25000  Biso   1.000  Cu
  Cu4      1.0000 0.75000  0.43000  0.75000  Biso   1.000  Cu
  Cu5      1.0000 0.97069  0.67226  0.33099  Biso   1.000  Cu
  Cu6      1.0000 0.52931  0.67226  0.16901  Biso   1.000  Cu
  Cu7      1.0000 0.02931  0.32774  0.66901  Biso   1.000  Cu
  Cu8      1.0000 0.47069  0.32774  0.83099  Biso   1.000  Cu
  Cu9      1.0000 0.78376  0.18079  0.33449  Biso   1.000  Cu
  Cu10     1.0000 0.71624  0.18079  0.16551  Biso   1.000  Cu
  Cu11     1.0000 0.21624  0.81921  0.66551  Biso   1.000  Cu
  Cu12     1.0000 0.28376  0.81921  0.83449  Biso   1.000  Cu
  N1       1.0000 0.36800  0.82560  0.43600  Biso   1.000  N
  N2       1.0000 0.13200  0.82560  0.06400  Biso   1.000  N
  N3       1.0000 0.63200  0.17440  0.56400  Biso   1.000  N
  N4       1.0000 0.86800  0.17440  0.93600  Biso   1.000  N
  N5       1.0000 0.27670  0.63030  0.33940  Biso   1.000  N
  N6       1.0000 0.22330  0.63030  0.16060  Biso   1.000  N
  N7       1.0000 0.72330  0.36970  0.66060  Biso   1.000  N
  N8       1.0000 0.77670  0.36970  0.83940  Biso   1.000  N
  N9       1.0000 0.16940  0.70170  0.37280  Biso   1.000  N
  N10      1.0000 0.33060  0.70170  0.12720  Biso   1.000  N
  N11      1.0000 0.83060  0.29830  0.62720  Biso   1.000  N
  N12      1.0000 0.66940  0.29830  0.87280  Biso   1.000  N
  C1       1.0000 0.22750  0.81540  0.42940  Biso   1.000  C
  C2       1.0000 0.27250  0.81540  0.07060  Biso   1.000  C
  C3       1.0000 0.77250  0.18460  0.57060  Biso   1.000  C
  C4       1.0000 0.72750  0.18460  0.92940  Biso   1.000  C
  H1       1.0000 0.17590  0.88270  0.46190  Biso   1.000  H
  H2       1.0000 0.32410  0.88270  0.03810  Biso   1.000  H
  H3       1.0000 0.82410  0.11730  0.53810  Biso   1.000  H
  H4       1.0000 0.67590  0.11730  0.96190  Biso   1.000  H
  C5       1.0000 0.39250  0.70490  0.37860  Biso   1.000  C
  C6       1.0000 0.10750  0.70490  0.12140  Biso   1.000  C
  C7       1.0000 0.60750  0.29510  0.62140  Biso   1.000  C
  C8       1.0000 0.89250  0.29510  0.87860  Biso   1.000  C
  H5       1.0000 0.48320  0.67690  0.36790  Biso   1.000  H
  H6       1.0000 0.01680  0.67690  0.13210  Biso   1.000  H
  H7       1.0000 0.51680  0.32310  0.63210  Biso   1.000  H
  H8       1.0000 0.98320  0.32310  0.86790  Biso   1.000  H
