data_image0
_cell_length_a       6.5561
_cell_length_b       21.983
_cell_length_c       39.775
_cell_angle_alpha    90
_cell_angle_beta     90
_cell_angle_gamma    90

_symmetry_space_group_name_H-M    "P 1"
_symmetry_int_tables_number       1

loop_
  _symmetry_equiv_pos_as_xyz
  'x, y, z'

loop_
  _atom_site_label
  _atom_site_occupancy
  _atom_site_fract_x
  _atom_site_fract_y
  _atom_site_fract_z
  _atom_site_thermal_displace_type
  _atom_site_B_iso_or_equiv
  _atom_site_type_symbol
  Cu1      1.0000 0.50000  0.00000  0.28203  Biso   1.000  Cu
  Cu2      1.0000 0.75000  0.25000  0.53203  Biso   1.000  Cu
  Cu3      1.0000 0.50000  0.50000  0.78203  Biso   1.000  Cu
  Cu4      1.0000 0.75000  0.75000  0.03203  Biso   1.000  Cu
  Cu5      1.0000 0.00000  0.00000  0.78203  Biso   1.000  Cu
  Cu6      1.0000 0.25000  0.25000  0.03203  Biso   1.000  Cu
  Cu7      1.0000 0.00000  0.50000  0.28203  Biso   1.000  Cu
  Cu8      1.0000 0.25000  0.75000  0.53203  Biso   1.000  Cu
  Cu9      1.0000 0.25000  0.25000  0.24798  Biso   1.000  Cu
  Cu10     1.0000 0.75000  0.75000  0.24798  Biso   1.000  Cu
  Cu11     1.0000 0.50000  0.00000  0.49798  Biso   1.000  Cu
  Cu12     1.0000 0.00000  0.50000  0.49798  Biso   1.000  Cu
  Cu13     1.0000 0.25000  0.75000  0.74798  Biso   1.000  Cu
  Cu14     1.0000 0.75000  0.25000  0.74798  Biso   1.000  Cu
  Cu15     1.0000 0.50000  0.50000  0.99798  Biso   1.000  Cu
  Cu16     1.0000 0.00000  0.00000  0.99798  Biso   1.000  Cu
  Cu17     1.0000 0.31580  0.17330  0.17330  Biso   1.000  Cu
  Cu18     1.0000 0.68420  0.82670  0.17330  Biso   1.000  Cu
  Cu19     1.0000 0.56580  0.07670  0.42330  Biso   1.000  Cu
  Cu20     1.0000 0.93420  0.42330  0.42330  Biso   1.000  Cu
  Cu21     1.0000 0.31580  0.67330  0.67330  Biso   1.000  Cu
  Cu22     1.0000 0.68420  0.32670  0.67330  Biso   1.000  Cu
  Cu23     1.0000 0.56580  0.57670  0.92330  Biso   1.000  Cu
  Cu24     1.0000 0.93420  0.92330  0.92330  Biso   1.000  Cu
  Cu25     1.0000 0.81580  0.17330  0.67330  Biso   1.000  Cu
  Cu26     1.0000 0.18420  0.82670  0.67330  Biso   1.000  Cu
  Cu27     1.0000 0.06580  0.07670  0.92330  Biso   1.000  Cu
  Cu28     1.0000 0.43420  0.42330  0.92330  Biso   1.000  Cu
  Cu29     1.0000 0.81580  0.67330  0.17330  Biso   1.000  Cu
  Cu30     1.0000 0.18420  0.32670  0.17330  Biso   1.000  Cu
  Cu31     1.0000 0.06580  0.57670  0.42330  Biso   1.000  Cu
  Cu32     1.0000 0.43420  0.92330  0.42330  Biso   1.000  Cu
  Cu33     1.0000 0.25000  0.25000  0.50104  Biso   1.000  Cu
  Cu34     1.0000 0.75000  0.75000  0.50104  Biso   1.000  Cu
  Cu35     1.0000 0.50000  0.00000  0.75104  Biso   1.000  Cu
  Cu36     1.0000 0.00000  0.50000  0.75104  Biso   1.000  Cu
  Cu37     1.0000 0.25000  0.75000  0.00104  Biso   1.000  Cu
  Cu38     1.0000 0.75000  0.25000  0.00104  Biso   1.000  Cu
  Cu39     1.0000 0.50000  0.50000  0.25104  Biso   1.000  Cu
  Cu40     1.0000 0.00000  0.00000  0.25104  Biso   1.000  Cu
  Cu41     1.0000 0.00000  0.00000  0.46658  Biso   1.000  Cu
  Cu42     1.0000 0.25000  0.25000  0.71658  Biso   1.000  Cu
  Cu43     1.0000 0.00000  0.50000  0.96658  Biso   1.000  Cu
  Cu44     1.0000 0.25000  0.75000  0.21658  Biso   1.000  Cu
  Cu45     1.0000 0.50000  0.00000  0.96658  Biso   1.000  Cu
  Cu46     1.0000 0.75000  0.25000  0.21658  Biso   1.000  Cu
  Cu47     1.0000 0.50000  0.50000  0.46658  Biso   1.000  Cu
  Cu48     1.0000 0.75000  0.75000  0.71658  Biso   1.000  Cu
  Cu49     1.0000 0.04570  0.07669  0.39289  Biso   1.000  Cu
  Cu50     1.0000 0.95430  0.92331  0.39289  Biso   1.000  Cu
  Cu51     1.0000 0.29570  0.17331  0.64289  Biso   1.000  Cu
  Cu52     1.0000 0.20430  0.32669  0.64289  Biso   1.000  Cu
  Cu53     1.0000 0.04570  0.57669  0.89289  Biso   1.000  Cu
  Cu54     1.0000 0.95430  0.42331  0.89289  Biso   1.000  Cu
  Cu55     1.0000 0.29570  0.67331  0.14289  Biso   1.000  Cu
  Cu56     1.0000 0.20430  0.82669  0.14289  Biso   1.000  Cu
  Cu57     1.0000 0.54570  0.07669  0.89289  Biso   1.000  Cu
  Cu58     1.0000 0.45430  0.92331  0.89289  Biso   1.000  Cu
  Cu59     1.0000 0.79570  0.17331  0.14289  Biso   1.000  Cu
  Cu60     1.0000 0.70430  0.32669  0.14289  Biso   1.000  Cu
  Cu61     1.0000 0.54570  0.57669  0.39289  Biso   1.000  Cu
  Cu62     1.0000 0.45430  0.42331  0.39289  Biso   1.000  Cu
  Cu63     1.0000 0.79570  0.67331  0.64289  Biso   1.000  Cu
  Cu64     1.0000 0.70430  0.82669  0.64289  Biso   1.000  Cu
  N1       1.0000 0.41500  0.07190  0.25690  Biso   1.000  N
  N2       1.0000 0.58500  0.92810  0.25690  Biso   1.000  N
  N3       1.0000 0.66500  0.17810  0.50690  Biso   1.000  N
  N4       1.0000 0.83500  0.32190  0.50690  Biso   1.000  N
  N5       1.0000 0.41500  0.57190  0.75690  Biso   1.000  N
  N6       1.0000 0.58500  0.42810  0.75690  Biso   1.000  N
  N7       1.0000 0.66500  0.67810  0.00690  Biso   1.000  N
  N8       1.0000 0.83500  0.82190  0.00690  Biso   1.000  N
  N9       1.0000 0.91500  0.07190  0.75690  Biso   1.000  N
  N10      1.0000 0.08500  0.92810  0.75690  Biso   1.000  N
  N11      1.0000 0.16500  0.17810  0.00690  Biso   1.000  N
  N12      1.0000 0.33500  0.32190  0.00690  Biso   1.000  N
  N13      1.0000 0.91500  0.57190  0.25690  Biso   1.000  N
  N14      1.0000 0.08500  0.42810  0.25690  Biso   1.000  N
  N15      1.0000 0.16500  0.67810  0.50690  Biso   1.000  N
  N16      1.0000 0.33500  0.82190  0.50690  Biso   1.000  N
  N17      1.0000 0.35300  0.13920  0.21500  Biso   1.000  N
  N18      1.0000 0.64700  0.86080  0.21500  Biso   1.000  N
  N19      1.0000 0.60300  0.11080  0.46500  Biso   1.000  N
  N20      1.0000 0.89700  0.38920  0.46500  Biso   1.000  N
  N21      1.0000 0.35300  0.63920  0.71500  Biso   1.000  N
  N22      1.0000 0.64700  0.36080  0.71500  Biso   1.000  N
  N23      1.0000 0.60300  0.61080  0.96500  Biso   1.000  N
  N24      1.0000 0.89700  0.88920  0.96500  Biso   1.000  N
  N25      1.0000 0.85300  0.13920  0.71500  Biso   1.000  N
  N26      1.0000 0.14700  0.86080  0.71500  Biso   1.000  N
  N27      1.0000 0.10300  0.11080  0.96500  Biso   1.000  N
  N28      1.0000 0.39700  0.38920  0.96500  Biso   1.000  N
  N29      1.0000 0.85300  0.63920  0.21500  Biso   1.000  N
  N30      1.0000 0.14700  0.36080  0.21500  Biso   1.000  N
  N31      1.0000 0.10300  0.61080  0.46500  Biso   1.000  N
  N32      1.0000 0.39700  0.88920  0.46500  Biso   1.000  N
  N33      1.0000 0.34900  0.16840  0.24450  Biso   1.000  N
  N34      1.0000 0.65100  0.83160  0.24450  Biso   1.000  N
  N35      1.0000 0.59900  0.08160  0.49450  Biso   1.000  N
  N36      1.0000 0.90100  0.41840  0.49450  Biso   1.000  N
  N37      1.0000 0.34900  0.66840  0.74450  Biso   1.000  N
  N38      1.0000 0.65100  0.33160  0.74450  Biso   1.000  N
  N39      1.0000 0.59900  0.58160  0.99450  Biso   1.000  N
  N40      1.0000 0.90100  0.91840  0.99450  Biso   1.000  N
  N41      1.0000 0.84900  0.16840  0.74450  Biso   1.000  N
  N42      1.0000 0.15100  0.83160  0.74450  Biso   1.000  N
  N43      1.0000 0.09900  0.08160  0.99450  Biso   1.000  N
  N44      1.0000 0.40100  0.41840  0.99450  Biso   1.000  N
  N45      1.0000 0.84900  0.66840  0.24450  Biso   1.000  N
  N46      1.0000 0.15100  0.33160  0.24450  Biso   1.000  N
  N47      1.0000 0.09900  0.58160  0.49450  Biso   1.000  N
  N48      1.0000 0.40100  0.91840  0.49450  Biso   1.000  N
  N49      1.0000 0.52500  0.03410  0.38390  Biso   1.000  N
  N50      1.0000 0.47500  0.96590  0.38390  Biso   1.000  N
  N51      1.0000 0.77500  0.21590  0.63390  Biso   1.000  N
  N52      1.0000 0.72500  0.28410  0.63390  Biso   1.000  N
  N53      1.0000 0.52500  0.53410  0.88390  Biso   1.000  N
  N54      1.0000 0.47500  0.46590  0.88390  Biso   1.000  N
  N55      1.0000 0.77500  0.71590  0.13390  Biso   1.000  N
  N56      1.0000 0.72500  0.78410  0.13390  Biso   1.000  N
  N57      1.0000 0.02500  0.03410  0.88390  Biso   1.000  N
  N58      1.0000 0.97500  0.96590  0.88390  Biso   1.000  N
  N59      1.0000 0.27500  0.21590  0.13390  Biso   1.000  N
  N60      1.0000 0.22500  0.28410  0.13390  Biso   1.000  N
  N61      1.0000 0.02500  0.53410  0.38390  Biso   1.000  N
  N62      1.0000 0.97500  0.46590  0.38390  Biso   1.000  N
  N63      1.0000 0.27500  0.71590  0.63390  Biso   1.000  N
  N64      1.0000 0.22500  0.78410  0.63390  Biso   1.000  N
  N65      1.0000 0.50000  0.00000  0.33320  Biso   1.000  N
  N66      1.0000 0.75000  0.25000  0.58320  Biso   1.000  N
  N67      1.0000 0.50000  0.50000  0.83320  Biso   1.000  N
  N68      1.0000 0.75000  0.75000  0.08320  Biso   1.000  N
  N69      1.0000 0.00000  0.00000  0.83320  Biso   1.000  N
  N70      1.0000 0.25000  0.25000  0.08320  Biso   1.000  N
  N71      1.0000 0.00000  0.50000  0.33320  Biso   1.000  N
  N72      1.0000 0.25000  0.75000  0.58320  Biso   1.000  N
  N73      1.0000 0.16350  0.17720  0.47570  Biso   1.000  N
  N74      1.0000 0.83650  0.82280  0.47570  Biso   1.000  N
  N75      1.0000 0.41350  0.07280  0.72570  Biso   1.000  N
  N76      1.0000 0.08650  0.42720  0.72570  Biso   1.000  N
  N77      1.0000 0.16350  0.67720  0.97570  Biso   1.000  N
  N78      1.0000 0.83650  0.32280  0.97570  Biso   1.000  N
  N79      1.0000 0.41350  0.57280  0.22570  Biso   1.000  N
  N80      1.0000 0.08650  0.92720  0.22570  Biso   1.000  N
  N81      1.0000 0.66350  0.17720  0.97570  Biso   1.000  N
  N82      1.0000 0.33650  0.82280  0.97570  Biso   1.000  N
  N83      1.0000 0.91350  0.07280  0.22570  Biso   1.000  N
  N84      1.0000 0.58650  0.42720  0.22570  Biso   1.000  N
  N85      1.0000 0.66350  0.67720  0.47570  Biso   1.000  N
  N86      1.0000 0.33650  0.32280  0.47570  Biso   1.000  N
  N87      1.0000 0.91350  0.57280  0.72570  Biso   1.000  N
  N88      1.0000 0.58650  0.92720  0.72570  Biso   1.000  N
  N89      1.0000 0.07570  0.08170  0.46520  Biso   1.000  N
  N90      1.0000 0.92430  0.91830  0.46520  Biso   1.000  N
  N91      1.0000 0.32570  0.16830  0.71520  Biso   1.000  N
  N92      1.0000 0.17430  0.33170  0.71520  Biso   1.000  N
  N93      1.0000 0.07570  0.58170  0.96520  Biso   1.000  N
  N94      1.0000 0.92430  0.41830  0.96520  Biso   1.000  N
  N95      1.0000 0.32570  0.66830  0.21520  Biso   1.000  N
  N96      1.0000 0.17430  0.83170  0.21520  Biso   1.000  N
  N97      1.0000 0.57570  0.08170  0.96520  Biso   1.000  N
  N98      1.0000 0.42430  0.91830  0.96520  Biso   1.000  N
  N99      1.0000 0.82570  0.16830  0.21520  Biso   1.000  N
  N100     1.0000 0.67430  0.33170  0.21520  Biso   1.000  N
  N101     1.0000 0.57570  0.58170  0.46520  Biso   1.000  N
  N102     1.0000 0.42430  0.41830  0.46520  Biso   1.000  N
  N103     1.0000 0.82570  0.66830  0.71520  Biso   1.000  N
  N104     1.0000 0.67430  0.83170  0.71520  Biso   1.000  N
  N105     1.0000 0.09200  0.11430  0.43434  Biso   1.000  N
  N106     1.0000 0.90800  0.88570  0.43434  Biso   1.000  N
  N107     1.0000 0.34200  0.13570  0.68434  Biso   1.000  N
  N108     1.0000 0.15800  0.36430  0.68434  Biso   1.000  N
  N109     1.0000 0.09200  0.61430  0.93434  Biso   1.000  N
  N110     1.0000 0.90800  0.38570  0.93434  Biso   1.000  N
  N111     1.0000 0.34200  0.63570  0.18434  Biso   1.000  N
  N112     1.0000 0.15800  0.86430  0.18434  Biso   1.000  N
  N113     1.0000 0.59200  0.11430  0.93434  Biso   1.000  N
  N114     1.0000 0.40800  0.88570  0.93434  Biso   1.000  N
  N115     1.0000 0.84200  0.13570  0.18434  Biso   1.000  N
  N116     1.0000 0.65800  0.36430  0.18434  Biso   1.000  N
  N117     1.0000 0.59200  0.61430  0.43434  Biso   1.000  N
  N118     1.0000 0.40800  0.38570  0.43434  Biso   1.000  N
  N119     1.0000 0.84200  0.63570  0.68434  Biso   1.000  N
  N120     1.0000 0.65800  0.86430  0.68434  Biso   1.000  N
  N121     1.0000 0.26760  0.21850  0.60394  Biso   1.000  N
  N122     1.0000 0.73240  0.78150  0.60394  Biso   1.000  N
  N123     1.0000 0.51760  0.03150  0.85394  Biso   1.000  N
  N124     1.0000 0.98240  0.46850  0.85394  Biso   1.000  N
  N125     1.0000 0.26760  0.71850  0.10394  Biso   1.000  N
  N126     1.0000 0.73240  0.28150  0.10394  Biso   1.000  N
  N127     1.0000 0.51760  0.53150  0.35394  Biso   1.000  N
  N128     1.0000 0.98240  0.96850  0.35394  Biso   1.000  N
  N129     1.0000 0.76760  0.21850  0.10394  Biso   1.000  N
  N130     1.0000 0.23240  0.78150  0.10394  Biso   1.000  N
  N131     1.0000 0.01760  0.03150  0.35394  Biso   1.000  N
  N132     1.0000 0.48240  0.46850  0.35394  Biso   1.000  N
  N133     1.0000 0.76760  0.71850  0.60394  Biso   1.000  N
  N134     1.0000 0.23240  0.28150  0.60394  Biso   1.000  N
  N135     1.0000 0.01760  0.53150  0.85394  Biso   1.000  N
  N136     1.0000 0.48240  0.96850  0.85394  Biso   1.000  N
  N137     1.0000 0.25000  0.25000  0.55060  Biso   1.000  N
  N138     1.0000 0.75000  0.75000  0.55060  Biso   1.000  N
  N139     1.0000 0.50000  0.00000  0.80060  Biso   1.000  N
  N140     1.0000 0.00000  0.50000  0.80060  Biso   1.000  N
  N141     1.0000 0.25000  0.75000  0.05060  Biso   1.000  N
  N142     1.0000 0.75000  0.25000  0.05060  Biso   1.000  N
  N143     1.0000 0.50000  0.50000  0.30060  Biso   1.000  N
  N144     1.0000 0.00000  0.00000  0.30060  Biso   1.000  N
  C1       1.0000 0.39700  0.08520  0.22180  Biso   1.000  C
  C2       1.0000 0.60300  0.91480  0.22180  Biso   1.000  C
  C3       1.0000 0.64700  0.16480  0.47180  Biso   1.000  C
  C4       1.0000 0.85300  0.33520  0.47180  Biso   1.000  C
  C5       1.0000 0.39700  0.58520  0.72180  Biso   1.000  C
  C6       1.0000 0.60300  0.41480  0.72180  Biso   1.000  C
  C7       1.0000 0.64700  0.66480  0.97180  Biso   1.000  C
  C8       1.0000 0.85300  0.83520  0.97180  Biso   1.000  C
  C9       1.0000 0.89700  0.08520  0.72180  Biso   1.000  C
  C10      1.0000 0.10300  0.91480  0.72180  Biso   1.000  C
  C11      1.0000 0.14700  0.16480  0.97180  Biso   1.000  C
  C12      1.0000 0.35300  0.33520  0.97180  Biso   1.000  C
  C13      1.0000 0.89700  0.58520  0.22180  Biso   1.000  C
  C14      1.0000 0.10300  0.41480  0.22180  Biso   1.000  C
  C15      1.0000 0.14700  0.66480  0.47180  Biso   1.000  C
  C16      1.0000 0.35300  0.83520  0.47180  Biso   1.000  C
  H1       1.0000 0.41690  0.05520  0.20490  Biso   1.000  H
  H2       1.0000 0.58310  0.94480  0.20490  Biso   1.000  H
  H3       1.0000 0.66690  0.19480  0.45490  Biso   1.000  H
  H4       1.0000 0.83310  0.30520  0.45490  Biso   1.000  H
  H5       1.0000 0.41690  0.55520  0.70490  Biso   1.000  H
  H6       1.0000 0.58310  0.44480  0.70490  Biso   1.000  H
  H7       1.0000 0.66690  0.69480  0.95490  Biso   1.000  H
  H8       1.0000 0.83310  0.80520  0.95490  Biso   1.000  H
  H9       1.0000 0.91690  0.05520  0.70490  Biso   1.000  H
  H10      1.0000 0.08310  0.94480  0.70490  Biso   1.000  H
  H11      1.0000 0.16690  0.19480  0.95490  Biso   1.000  H
  H12      1.0000 0.33310  0.30520  0.95490  Biso   1.000  H
  H13      1.0000 0.91690  0.55520  0.20490  Biso   1.000  H
  H14      1.0000 0.08310  0.44480  0.20490  Biso   1.000  H
  H15      1.0000 0.16690  0.69480  0.45490  Biso   1.000  H
  H16      1.0000 0.33310  0.80520  0.45490  Biso   1.000  H
  C17      1.0000 0.37600  0.13160  0.26960  Biso   1.000  C
  C18      1.0000 0.62400  0.86840  0.26960  Biso   1.000  C
  C19      1.0000 0.62600  0.11840  0.51960  Biso   1.000  C
  C20      1.0000 0.87400  0.38160  0.51960  Biso   1.000  C
  C21      1.0000 0.37600  0.63160  0.76960  Biso   1.000  C
  C22      1.0000 0.62400  0.36840  0.76960  Biso   1.000  C
  C23      1.0000 0.62600  0.61840  0.01960  Biso   1.000  C
  C24      1.0000 0.87400  0.88160  0.01960  Biso   1.000  C
  C25      1.0000 0.87600  0.13160  0.76960  Biso   1.000  C
  C26      1.0000 0.12400  0.86840  0.76960  Biso   1.000  C
  C27      1.0000 0.12600  0.11840  0.01960  Biso   1.000  C
  C28      1.0000 0.37400  0.38160  0.01960  Biso   1.000  C
  C29      1.0000 0.87600  0.63160  0.26960  Biso   1.000  C
  C30      1.0000 0.12400  0.36840  0.26960  Biso   1.000  C
  C31      1.0000 0.12600  0.61840  0.51960  Biso   1.000  C
  C32      1.0000 0.37400  0.88160  0.51960  Biso   1.000  C
  H17      1.0000 0.37150  0.14260  0.29270  Biso   1.000  H
  H18      1.0000 0.62850  0.85740  0.29270  Biso   1.000  H
  H19      1.0000 0.62150  0.10740  0.54270  Biso   1.000  H
  H20      1.0000 0.87850  0.39260  0.54270  Biso   1.000  H
  H21      1.0000 0.37150  0.64260  0.79270  Biso   1.000  H
  H22      1.0000 0.62850  0.35740  0.79270  Biso   1.000  H
  H23      1.0000 0.62150  0.60740  0.04270  Biso   1.000  H
  H24      1.0000 0.87850  0.89260  0.04270  Biso   1.000  H
  H25      1.0000 0.87150  0.14260  0.79270  Biso   1.000  H
  H26      1.0000 0.12850  0.85740  0.79270  Biso   1.000  H
  H27      1.0000 0.12150  0.10740  0.04270  Biso   1.000  H
  H28      1.0000 0.37850  0.39260  0.04270  Biso   1.000  H
  H29      1.0000 0.87150  0.64260  0.29270  Biso   1.000  H
  H30      1.0000 0.12850  0.35740  0.29270  Biso   1.000  H
  H31      1.0000 0.12150  0.60740  0.54270  Biso   1.000  H
  H32      1.0000 0.37850  0.89260  0.54270  Biso   1.000  H
  C33      1.0000 0.53300  0.04460  0.35240  Biso   1.000  C
  C34      1.0000 0.46700  0.95540  0.35240  Biso   1.000  C
  C35      1.0000 0.78300  0.20540  0.60240  Biso   1.000  C
  C36      1.0000 0.71700  0.29460  0.60240  Biso   1.000  C
  C37      1.0000 0.53300  0.54460  0.85240  Biso   1.000  C
  C38      1.0000 0.46700  0.45540  0.85240  Biso   1.000  C
  C39      1.0000 0.78300  0.70540  0.10240  Biso   1.000  C
  C40      1.0000 0.71700  0.79460  0.10240  Biso   1.000  C
  C41      1.0000 0.03300  0.04460  0.85240  Biso   1.000  C
  C42      1.0000 0.96700  0.95540  0.85240  Biso   1.000  C
  C43      1.0000 0.28300  0.20540  0.10240  Biso   1.000  C
  C44      1.0000 0.21700  0.29460  0.10240  Biso   1.000  C
  C45      1.0000 0.03300  0.54460  0.35240  Biso   1.000  C
  C46      1.0000 0.96700  0.45540  0.35240  Biso   1.000  C
  C47      1.0000 0.28300  0.70540  0.60240  Biso   1.000  C
  C48      1.0000 0.21700  0.79460  0.60240  Biso   1.000  C
  H33      1.0000 0.56280  0.08390  0.34380  Biso   1.000  H
  H34      1.0000 0.43720  0.91610  0.34380  Biso   1.000  H
  H35      1.0000 0.81280  0.16610  0.59380  Biso   1.000  H
  H36      1.0000 0.68720  0.33390  0.59380  Biso   1.000  H
  H37      1.0000 0.56280  0.58390  0.84380  Biso   1.000  H
  H38      1.0000 0.43720  0.41610  0.84380  Biso   1.000  H
  H39      1.0000 0.81280  0.66610  0.09380  Biso   1.000  H
  H40      1.0000 0.68720  0.83390  0.09380  Biso   1.000  H
  H41      1.0000 0.06280  0.08390  0.84380  Biso   1.000  H
  H42      1.0000 0.93720  0.91610  0.84380  Biso   1.000  H
  H43      1.0000 0.31280  0.16610  0.09380  Biso   1.000  H
  H44      1.0000 0.18720  0.33390  0.09380  Biso   1.000  H
  H45      1.0000 0.06280  0.58390  0.34380  Biso   1.000  H
  H46      1.0000 0.93720  0.41610  0.34380  Biso   1.000  H
  H47      1.0000 0.31280  0.66610  0.59380  Biso   1.000  H
  H48      1.0000 0.18720  0.83390  0.59380  Biso   1.000  H
  C49      1.0000 0.11770  0.11920  0.48930  Biso   1.000  C
  C50      1.0000 0.88230  0.88080  0.48930  Biso   1.000  C
  C51      1.0000 0.36770  0.13080  0.73930  Biso   1.000  C
  C52      1.0000 0.13230  0.36920  0.73930  Biso   1.000  C
  C53      1.0000 0.11770  0.61920  0.98930  Biso   1.000  C
  C54      1.0000 0.88230  0.38080  0.98930  Biso   1.000  C
  C55      1.0000 0.36770  0.63080  0.23930  Biso   1.000  C
  C56      1.0000 0.13230  0.86920  0.23930  Biso   1.000  C
  C57      1.0000 0.61770  0.11920  0.98930  Biso   1.000  C
  C58      1.0000 0.38230  0.88080  0.98930  Biso   1.000  C
  C59      1.0000 0.86770  0.13080  0.23930  Biso   1.000  C
  C60      1.0000 0.63230  0.36920  0.23930  Biso   1.000  C
  C61      1.0000 0.61770  0.61920  0.48930  Biso   1.000  C
  C62      1.0000 0.38230  0.38080  0.48930  Biso   1.000  C
  C63      1.0000 0.86770  0.63080  0.73930  Biso   1.000  C
  C64      1.0000 0.63230  0.86920  0.73930  Biso   1.000  C
  H49      1.0000 0.11780  0.10930  0.51250  Biso   1.000  H
  H50      1.0000 0.88220  0.89070  0.51250  Biso   1.000  H
  H51      1.0000 0.36780  0.14070  0.76250  Biso   1.000  H
  H52      1.0000 0.13220  0.35930  0.76250  Biso   1.000  H
  H53      1.0000 0.11780  0.60930  0.01250  Biso   1.000  H
  H54      1.0000 0.88220  0.39070  0.01250  Biso   1.000  H
  H55      1.0000 0.36780  0.64070  0.26250  Biso   1.000  H
  H56      1.0000 0.13220  0.85930  0.26250  Biso   1.000  H
  H57      1.0000 0.61780  0.10930  0.01250  Biso   1.000  H
  H58      1.0000 0.38220  0.89070  0.01250  Biso   1.000  H
  H59      1.0000 0.86780  0.14070  0.26250  Biso   1.000  H
  H60      1.0000 0.63220  0.35930  0.26250  Biso   1.000  H
  H61      1.0000 0.61780  0.60930  0.51250  Biso   1.000  H
  H62      1.0000 0.38220  0.39070  0.51250  Biso   1.000  H
  H63      1.0000 0.86780  0.64070  0.76250  Biso   1.000  H
  H64      1.0000 0.63220  0.85930  0.76250  Biso   1.000  H
  C65      1.0000 0.13740  0.16900  0.44260  Biso   1.000  C
  C66      1.0000 0.86260  0.83100  0.44260  Biso   1.000  C
  C67      1.0000 0.38740  0.08100  0.69260  Biso   1.000  C
  C68      1.0000 0.11260  0.41900  0.69260  Biso   1.000  C
  C69      1.0000 0.13740  0.66900  0.94260  Biso   1.000  C
  C70      1.0000 0.86260  0.33100  0.94260  Biso   1.000  C
  C71      1.0000 0.38740  0.58100  0.19260  Biso   1.000  C
  C72      1.0000 0.11260  0.91900  0.19260  Biso   1.000  C
  C73      1.0000 0.63740  0.16900  0.94260  Biso   1.000  C
  C74      1.0000 0.36260  0.83100  0.94260  Biso   1.000  C
  C75      1.0000 0.88740  0.08100  0.19260  Biso   1.000  C
  C76      1.0000 0.61260  0.41900  0.19260  Biso   1.000  C
  C77      1.0000 0.63740  0.66900  0.44260  Biso   1.000  C
  C78      1.0000 0.36260  0.33100  0.44260  Biso   1.000  C
  C79      1.0000 0.88740  0.58100  0.69260  Biso   1.000  C
  C80      1.0000 0.61260  0.91900  0.69260  Biso   1.000  C
  H65      1.0000 0.15120  0.20090  0.42670  Biso   1.000  H
  H66      1.0000 0.84880  0.79910  0.42670  Biso   1.000  H
  H67      1.0000 0.40120  0.04910  0.67670  Biso   1.000  H
  H68      1.0000 0.09880  0.45090  0.67670  Biso   1.000  H
  H69      1.0000 0.15120  0.70090  0.92670  Biso   1.000  H
  H70      1.0000 0.84880  0.29910  0.92670  Biso   1.000  H
  H71      1.0000 0.40120  0.54910  0.17670  Biso   1.000  H
  H72      1.0000 0.09880  0.95090  0.17670  Biso   1.000  H
  H73      1.0000 0.65120  0.20090  0.92670  Biso   1.000  H
  H74      1.0000 0.34880  0.79910  0.92670  Biso   1.000  H
  H75      1.0000 0.90120  0.04910  0.17670  Biso   1.000  H
  H76      1.0000 0.59880  0.45090  0.17670  Biso   1.000  H
  H77      1.0000 0.65120  0.70090  0.42670  Biso   1.000  H
  H78      1.0000 0.34880  0.29910  0.42670  Biso   1.000  H
  H79      1.0000 0.90120  0.54910  0.67670  Biso   1.000  H
  H80      1.0000 0.59880  0.95090  0.67670  Biso   1.000  H
  C81      1.0000 0.26750  0.20070  0.57210  Biso   1.000  C
  C82      1.0000 0.73250  0.79930  0.57210  Biso   1.000  C
  C83      1.0000 0.51750  0.04930  0.82210  Biso   1.000  C
  C84      1.0000 0.98250  0.45070  0.82210  Biso   1.000  C
  C85      1.0000 0.26750  0.70070  0.07210  Biso   1.000  C
  C86      1.0000 0.73250  0.29930  0.07210  Biso   1.000  C
  C87      1.0000 0.51750  0.54930  0.32210  Biso   1.000  C
  C88      1.0000 0.98250  0.95070  0.32210  Biso   1.000  C
  C89      1.0000 0.76750  0.20070  0.07210  Biso   1.000  C
  C90      1.0000 0.23250  0.79930  0.07210  Biso   1.000  C
  C91      1.0000 0.01750  0.04930  0.32210  Biso   1.000  C
  C92      1.0000 0.48250  0.45070  0.32210  Biso   1.000  C
  C93      1.0000 0.76750  0.70070  0.57210  Biso   1.000  C
  C94      1.0000 0.23250  0.29930  0.57210  Biso   1.000  C
  C95      1.0000 0.01750  0.54930  0.82210  Biso   1.000  C
  C96      1.0000 0.48250  0.95070  0.82210  Biso   1.000  C
  H81      1.0000 0.27810  0.15960  0.56500  Biso   1.000  H
  H82      1.0000 0.72190  0.84040  0.56500  Biso   1.000  H
  H83      1.0000 0.52810  0.09040  0.81500  Biso   1.000  H
  H84      1.0000 0.97190  0.40960  0.81500  Biso   1.000  H
  H85      1.0000 0.27810  0.65960  0.06500  Biso   1.000  H
  H86      1.0000 0.72190  0.34040  0.06500  Biso   1.000  H
  H87      1.0000 0.52810  0.59040  0.31500  Biso   1.000  H
  H88      1.0000 0.97190  0.90960  0.31500  Biso   1.000  H
  H89      1.0000 0.77810  0.15960  0.06500  Biso   1.000  H
  H90      1.0000 0.22190  0.84040  0.06500  Biso   1.000  H
  H91      1.0000 0.02810  0.09040  0.31500  Biso   1.000  H
  H92      1.0000 0.47190  0.40960  0.31500  Biso   1.000  H
  H93      1.0000 0.77810  0.65960  0.56500  Biso   1.000  H
  H94      1.0000 0.22190  0.34040  0.56500  Biso   1.000  H
  H95      1.0000 0.02810  0.59040  0.81500  Biso   1.000  H
  H96      1.0000 0.47190  0.90960  0.81500  Biso   1.000  H
