data_image0
_cell_length_a       11.8869
_cell_length_b       11.8869
_cell_length_c       13.0432
_cell_angle_alpha    90
_cell_angle_beta     90
_cell_angle_gamma    90

_symmetry_space_group_name_H-M    "P 1"
_symmetry_int_tables_number       1

loop_
  _symmetry_equiv_pos_as_xyz
  'x, y, z'

loop_
  _atom_site_label
  _atom_site_occupancy
  _atom_site_fract_x
  _atom_site_fract_y
  _atom_site_fract_z
  _atom_site_thermal_displace_type
  _atom_site_B_iso_or_equiv
  _atom_site_type_symbol
  Cu1      1.0000 0.29368  0.20632  0.00000  Biso   1.000  Cu
  Cu2      1.0000 0.79368  0.70632  0.50000  Biso   1.000  Cu
  Cu3      1.0000 0.79368  0.29368  0.00000  Biso   1.000  Cu
  Cu4      1.0000 0.29368  0.79368  0.50000  Biso   1.000  Cu
  Cu5      1.0000 0.70632  0.79368  0.00000  Biso   1.000  Cu
  Cu6      1.0000 0.20632  0.29368  0.50000  Biso   1.000  Cu
  Cu7      1.0000 0.20632  0.70632  0.00000  Biso   1.000  Cu
  Cu8      1.0000 0.70632  0.20632  0.50000  Biso   1.000  Cu
  N1       1.0000 0.41640  0.08360  0.00000  Biso   1.000  N
  N2       1.0000 0.91640  0.58360  0.50000  Biso   1.000  N
  N3       1.0000 0.91640  0.41640  0.00000  Biso   1.000  N
  N4       1.0000 0.41640  0.91640  0.50000  Biso   1.000  N
  N5       1.0000 0.58360  0.91640  0.00000  Biso   1.000  N
  N6       1.0000 0.08360  0.41640  0.50000  Biso   1.000  N
  N7       1.0000 0.08360  0.58360  0.00000  Biso   1.000  N
  N8       1.0000 0.58360  0.08360  0.50000  Biso   1.000  N
  N9       1.0000 0.26110  0.23890  0.14350  Biso   1.000  N
  N10      1.0000 0.76110  0.73890  0.64350  Biso   1.000  N
  N11      1.0000 0.76110  0.26110  0.14350  Biso   1.000  N
  N12      1.0000 0.26110  0.76110  0.35650  Biso   1.000  N
  N13      1.0000 0.26110  0.76110  0.64350  Biso   1.000  N
  N14      1.0000 0.76110  0.26110  0.85650  Biso   1.000  N
  N15      1.0000 0.73890  0.76110  0.14350  Biso   1.000  N
  N16      1.0000 0.23890  0.26110  0.35650  Biso   1.000  N
  N17      1.0000 0.23890  0.26110  0.64350  Biso   1.000  N
  N18      1.0000 0.73890  0.76110  0.85650  Biso   1.000  N
  N19      1.0000 0.23890  0.73890  0.14350  Biso   1.000  N
  N20      1.0000 0.73890  0.23890  0.35650  Biso   1.000  N
  N21      1.0000 0.73890  0.23890  0.64350  Biso   1.000  N
  N22      1.0000 0.23890  0.73890  0.85650  Biso   1.000  N
  N23      1.0000 0.76110  0.73890  0.35650  Biso   1.000  N
  N24      1.0000 0.26110  0.23890  0.85650  Biso   1.000  N
  C1       1.0000 0.18760  0.17660  0.19770  Biso   1.000  C
  C2       1.0000 0.68760  0.67660  0.69770  Biso   1.000  C
  C3       1.0000 0.82340  0.18760  0.19770  Biso   1.000  C
  C4       1.0000 0.18760  0.82340  0.30230  Biso   1.000  C
  C5       1.0000 0.32340  0.68760  0.69770  Biso   1.000  C
  C6       1.0000 0.68760  0.32340  0.80230  Biso   1.000  C
  C7       1.0000 0.81240  0.82340  0.19770  Biso   1.000  C
  C8       1.0000 0.17660  0.18760  0.30230  Biso   1.000  C
  C9       1.0000 0.31240  0.32340  0.69770  Biso   1.000  C
  C10      1.0000 0.67660  0.68760  0.80230  Biso   1.000  C
  C11      1.0000 0.17660  0.81240  0.19770  Biso   1.000  C
  C12      1.0000 0.81240  0.17660  0.30230  Biso   1.000  C
  C13      1.0000 0.67660  0.31240  0.69770  Biso   1.000  C
  C14      1.0000 0.31240  0.67660  0.80230  Biso   1.000  C
  C15      1.0000 0.82340  0.81240  0.30230  Biso   1.000  C
  C16      1.0000 0.32340  0.31240  0.80230  Biso   1.000  C
  C17      1.0000 0.81240  0.82340  0.80230  Biso   1.000  C
  C18      1.0000 0.31240  0.32340  0.30230  Biso   1.000  C
  C19      1.0000 0.17660  0.81240  0.80230  Biso   1.000  C
  C20      1.0000 0.81240  0.17660  0.69770  Biso   1.000  C
  C21      1.0000 0.67660  0.31240  0.30230  Biso   1.000  C
  C22      1.0000 0.31240  0.67660  0.19770  Biso   1.000  C
  C23      1.0000 0.18760  0.17660  0.80230  Biso   1.000  C
  C24      1.0000 0.82340  0.81240  0.69770  Biso   1.000  C
  C25      1.0000 0.68760  0.67660  0.30230  Biso   1.000  C
  C26      1.0000 0.32340  0.31240  0.19770  Biso   1.000  C
  C27      1.0000 0.82340  0.18760  0.80230  Biso   1.000  C
  C28      1.0000 0.18760  0.82340  0.69770  Biso   1.000  C
  C29      1.0000 0.32340  0.68760  0.30230  Biso   1.000  C
  C30      1.0000 0.68760  0.32340  0.19770  Biso   1.000  C
  C31      1.0000 0.17660  0.18760  0.69770  Biso   1.000  C
  C32      1.0000 0.67660  0.68760  0.19770  Biso   1.000  C
  C33      1.0000 0.39140  0.97280  0.00000  Biso   1.000  C
  C34      1.0000 0.89140  0.47280  0.50000  Biso   1.000  C
  C35      1.0000 0.02720  0.39140  0.00000  Biso   1.000  C
  C36      1.0000 0.39140  0.02720  0.50000  Biso   1.000  C
  C37      1.0000 0.52720  0.89140  0.50000  Biso   1.000  C
  C38      1.0000 0.89140  0.52720  0.00000  Biso   1.000  C
  C39      1.0000 0.60860  0.02720  0.00000  Biso   1.000  C
  C40      1.0000 0.97280  0.39140  0.50000  Biso   1.000  C
  C41      1.0000 0.10860  0.52720  0.50000  Biso   1.000  C
  C42      1.0000 0.47280  0.89140  0.00000  Biso   1.000  C
  C43      1.0000 0.97280  0.60860  0.00000  Biso   1.000  C
  C44      1.0000 0.60860  0.97280  0.50000  Biso   1.000  C
  C45      1.0000 0.47280  0.10860  0.50000  Biso   1.000  C
  C46      1.0000 0.10860  0.47280  0.00000  Biso   1.000  C
  C47      1.0000 0.02720  0.60860  0.50000  Biso   1.000  C
  C48      1.0000 0.52720  0.10860  0.00000  Biso   1.000  C
  H1       1.0000 0.13600  0.11900  0.16100  Biso   1.000  H
  H2       1.0000 0.63600  0.61900  0.66100  Biso   1.000  H
  H3       1.0000 0.88100  0.13600  0.16100  Biso   1.000  H
  H4       1.0000 0.13600  0.88100  0.33900  Biso   1.000  H
  H5       1.0000 0.38100  0.63600  0.66100  Biso   1.000  H
  H6       1.0000 0.63600  0.38100  0.83900  Biso   1.000  H
  H7       1.0000 0.86400  0.88100  0.16100  Biso   1.000  H
  H8       1.0000 0.11900  0.13600  0.33900  Biso   1.000  H
  H9       1.0000 0.36400  0.38100  0.66100  Biso   1.000  H
  H10      1.0000 0.61900  0.63600  0.83900  Biso   1.000  H
  H11      1.0000 0.11900  0.86400  0.16100  Biso   1.000  H
  H12      1.0000 0.86400  0.11900  0.33900  Biso   1.000  H
  H13      1.0000 0.61900  0.36400  0.66100  Biso   1.000  H
  H14      1.0000 0.36400  0.61900  0.83900  Biso   1.000  H
  H15      1.0000 0.88100  0.86400  0.33900  Biso   1.000  H
  H16      1.0000 0.38100  0.36400  0.83900  Biso   1.000  H
  H17      1.0000 0.86400  0.88100  0.83900  Biso   1.000  H
  H18      1.0000 0.36400  0.38100  0.33900  Biso   1.000  H
  H19      1.0000 0.11900  0.86400  0.83900  Biso   1.000  H
  H20      1.0000 0.86400  0.11900  0.66100  Biso   1.000  H
  H21      1.0000 0.61900  0.36400  0.33900  Biso   1.000  H
  H22      1.0000 0.36400  0.61900  0.16100  Biso   1.000  H
  H23      1.0000 0.13600  0.11900  0.83900  Biso   1.000  H
  H24      1.0000 0.88100  0.86400  0.66100  Biso   1.000  H
  H25      1.0000 0.63600  0.61900  0.33900  Biso   1.000  H
  H26      1.0000 0.38100  0.36400  0.16100  Biso   1.000  H
  H27      1.0000 0.88100  0.13600  0.83900  Biso   1.000  H
  H28      1.0000 0.13600  0.88100  0.66100  Biso   1.000  H
  H29      1.0000 0.38100  0.63600  0.33900  Biso   1.000  H
  H30      1.0000 0.63600  0.38100  0.16100  Biso   1.000  H
  H31      1.0000 0.11900  0.13600  0.66100  Biso   1.000  H
  H32      1.0000 0.61900  0.63600  0.16100  Biso   1.000  H
  H33      1.0000 0.31300  0.95700  0.00000  Biso   1.000  H
  H34      1.0000 0.81300  0.45700  0.50000  Biso   1.000  H
  H35      1.0000 0.04300  0.31300  0.00000  Biso   1.000  H
  H36      1.0000 0.31300  0.04300  0.50000  Biso   1.000  H
  H37      1.0000 0.54300  0.81300  0.50000  Biso   1.000  H
  H38      1.0000 0.81300  0.54300  0.00000  Biso   1.000  H
  H39      1.0000 0.68700  0.04300  0.00000  Biso   1.000  H
  H40      1.0000 0.95700  0.31300  0.50000  Biso   1.000  H
  H41      1.0000 0.18700  0.54300  0.50000  Biso   1.000  H
  H42      1.0000 0.45700  0.81300  0.00000  Biso   1.000  H
  H43      1.0000 0.95700  0.68700  0.00000  Biso   1.000  H
  H44      1.0000 0.68700  0.95700  0.50000  Biso   1.000  H
  H45      1.0000 0.45700  0.18700  0.50000  Biso   1.000  H
  H46      1.0000 0.18700  0.45700  0.00000  Biso   1.000  H
  H47      1.0000 0.04300  0.68700  0.50000  Biso   1.000  H
  H48      1.0000 0.54300  0.18700  0.00000  Biso   1.000  H
  Si1      1.0000 0.00000  0.00000  0.00000  Biso   1.000  Si
  Si2      1.0000 0.50000  0.50000  0.50000  Biso   1.000  Si
  Si3      1.0000 0.00000  0.00000  0.50000  Biso   1.000  Si
  Si4      1.0000 0.50000  0.50000  0.00000  Biso   1.000  Si
  F1       1.0000 0.13911  0.02890  0.00000  Biso   1.000  F
  F2       1.0000 0.63911  0.52890  0.50000  Biso   1.000  F
  F3       1.0000 0.97110  0.13911  0.00000  Biso   1.000  F
  F4       1.0000 0.13911  0.97110  0.50000  Biso   1.000  F
  F5       1.0000 0.47110  0.63911  0.50000  Biso   1.000  F
  F6       1.0000 0.63911  0.47110  0.00000  Biso   1.000  F
  F7       1.0000 0.86089  0.97110  0.00000  Biso   1.000  F
  F8       1.0000 0.02890  0.13911  0.50000  Biso   1.000  F
  F9       1.0000 0.36089  0.47110  0.50000  Biso   1.000  F
  F10      1.0000 0.52890  0.63911  0.00000  Biso   1.000  F
  F11      1.0000 0.02890  0.86089  0.00000  Biso   1.000  F
  F12      1.0000 0.86089  0.02890  0.50000  Biso   1.000  F
  F13      1.0000 0.52890  0.36089  0.50000  Biso   1.000  F
  F14      1.0000 0.36089  0.52890  0.00000  Biso   1.000  F
  F15      1.0000 0.97110  0.86089  0.50000  Biso   1.000  F
  F16      1.0000 0.47110  0.36089  0.00000  Biso   1.000  F
  F17      1.0000 0.00000  0.00000  0.12860  Biso   1.000  F
  F18      1.0000 0.50000  0.50000  0.62860  Biso   1.000  F
  F19      1.0000 0.00000  0.00000  0.37140  Biso   1.000  F
  F20      1.0000 0.50000  0.50000  0.87140  Biso   1.000  F
  F21      1.0000 0.00000  0.00000  0.87140  Biso   1.000  F
  F22      1.0000 0.50000  0.50000  0.37140  Biso   1.000  F
  F23      1.0000 0.00000  0.00000  0.62860  Biso   1.000  F
  F24      1.0000 0.50000  0.50000  0.12860  Biso   1.000  F
