data_image0
_cell_length_a       6.1057
_cell_length_b       7.0142
_cell_length_c       10.382
_cell_angle_alpha    76.764
_cell_angle_beta     73.535
_cell_angle_gamma    76.323

_symmetry_space_group_name_H-M    "P 1"
_symmetry_int_tables_number       1

loop_
  _symmetry_equiv_pos_as_xyz
  'x, y, z'

loop_
  _atom_site_label
  _atom_site_occupancy
  _atom_site_fract_x
  _atom_site_fract_y
  _atom_site_fract_z
  _atom_site_thermal_displace_type
  _atom_site_B_iso_or_equiv
  _atom_site_type_symbol
  Cu1      1.0000 0.55815  0.20904  0.48097  Biso   1.000  Cu
  Cu2      1.0000 0.44185  0.79096  0.51903  Biso   1.000  Cu
  Cu3      1.0000 0.16687  0.52632  0.37665  Biso   1.000  Cu
  Cu4      1.0000 0.83313  0.47368  0.62335  Biso   1.000  Cu
  Cl1      1.0000 0.21299  0.48724  0.61854  Biso   1.000  Cl
  Cl2      1.0000 0.78701  0.51276  0.38146  Biso   1.000  Cl
  S1       1.0000 0.44317  0.27966  0.29119  Biso   1.000  S
  S2       1.0000 0.55683  0.72034  0.70881  Biso   1.000  S
  O1       1.0000 0.30010  0.07950  0.90990  Biso   1.000  O
  O2       1.0000 0.69990  0.92050  0.09010  Biso   1.000  O
  H1       1.0000 0.20280  0.10630  0.86480  Biso   1.000  H
  H2       1.0000 0.79720  0.89370  0.13520  Biso   1.000  H
  N1       1.0000 0.30090  0.91710  0.36890  Biso   1.000  N
  N2       1.0000 0.69910  0.08290  0.63110  Biso   1.000  N
  N3       1.0000 0.17670  0.82050  0.32310  Biso   1.000  N
  N4       1.0000 0.82330  0.17950  0.67690  Biso   1.000  N
  N5       1.0000 0.09370  0.93320  0.22430  Biso   1.000  N
  N6       1.0000 0.90630  0.06680  0.77570  Biso   1.000  N
  N7       1.0000 0.16650  0.10790  0.20390  Biso   1.000  N
  N8       1.0000 0.83350  0.89210  0.79610  Biso   1.000  N
  C1       1.0000 0.29680  0.09770  0.29130  Biso   1.000  C
  C2       1.0000 0.70320  0.90230  0.70870  Biso   1.000  C
  C3       1.0000 0.11670  0.26810  0.09280  Biso   1.000  C
  C4       1.0000 0.88330  0.73190  0.90720  Biso   1.000  C
  H3       1.0000 0.10790  0.39520  0.11790  Biso   1.000  H
  H4       1.0000 0.89210  0.60480  0.88210  Biso   1.000  H
  H5       1.0000 0.96680  0.26610  0.07880  Biso   1.000  H
  H6       1.0000 0.03320  0.73390  0.92120  Biso   1.000  H
  C5       1.0000 0.29980  0.24910  0.96120  Biso   1.000  C
  C6       1.0000 0.70020  0.75090  0.03880  Biso   1.000  C
  H7       1.0000 0.27150  0.36730  0.89390  Biso   1.000  H
  H8       1.0000 0.72850  0.63270  0.10610  Biso   1.000  H
  H9       1.0000 0.45140  0.24060  0.97680  Biso   1.000  H
  H10      1.0000 0.54860  0.75940  0.02320  Biso   1.000  H
