data_image0
_cell_length_a       6.5851
_cell_length_b       7.4822
_cell_length_c       25.3823
_cell_angle_alpha    90
_cell_angle_beta     90
_cell_angle_gamma    90

_symmetry_space_group_name_H-M    "P 1"
_symmetry_int_tables_number       1

loop_
  _symmetry_equiv_pos_as_xyz
  'x, y, z'

loop_
  _atom_site_label
  _atom_site_occupancy
  _atom_site_fract_x
  _atom_site_fract_y
  _atom_site_fract_z
  _atom_site_thermal_displace_type
  _atom_site_B_iso_or_equiv
  _atom_site_type_symbol
  Cu1      1.0000 0.10435  0.80683  0.46578  Biso   1.000  Cu
  Cu2      1.0000 0.39565  0.19317  0.96578  Biso   1.000  Cu
  Cu3      1.0000 0.60435  0.69317  0.53422  Biso   1.000  Cu
  Cu4      1.0000 0.89565  0.30683  0.03423  Biso   1.000  Cu
  Cu5      1.0000 0.89565  0.19317  0.53422  Biso   1.000  Cu
  Cu6      1.0000 0.60435  0.80683  0.03423  Biso   1.000  Cu
  Cu7      1.0000 0.39565  0.30683  0.46578  Biso   1.000  Cu
  Cu8      1.0000 0.10435  0.69317  0.96578  Biso   1.000  Cu
  S1       1.0000 0.21904  0.06972  0.42403  Biso   1.000  S
  S2       1.0000 0.28096  0.93028  0.92403  Biso   1.000  S
  S3       1.0000 0.71904  0.43028  0.57597  Biso   1.000  S
  S4       1.0000 0.78096  0.56972  0.07597  Biso   1.000  S
  S5       1.0000 0.78096  0.93028  0.57597  Biso   1.000  S
  S6       1.0000 0.71904  0.06972  0.07597  Biso   1.000  S
  S7       1.0000 0.28096  0.56972  0.42403  Biso   1.000  S
  S8       1.0000 0.21904  0.43028  0.92403  Biso   1.000  S
  O1       1.0000 0.01620  0.50030  0.30585  Biso   1.000  O
  O2       1.0000 0.48380  0.49970  0.80585  Biso   1.000  O
  O3       1.0000 0.51620  0.99970  0.69415  Biso   1.000  O
  O4       1.0000 0.98380  0.00030  0.19415  Biso   1.000  O
  O5       1.0000 0.98380  0.49970  0.69415  Biso   1.000  O
  O6       1.0000 0.51620  0.50030  0.19415  Biso   1.000  O
  O7       1.0000 0.48380  0.00030  0.30585  Biso   1.000  O
  O8       1.0000 0.01620  0.99970  0.80585  Biso   1.000  O
  H1       1.0000 0.91950  0.50830  0.28560  Biso   1.000  H
  H2       1.0000 0.58050  0.49170  0.78560  Biso   1.000  H
  H3       1.0000 0.41950  0.99170  0.71440  Biso   1.000  H
  H4       1.0000 0.08050  0.00830  0.21440  Biso   1.000  H
  H5       1.0000 0.08050  0.49170  0.71440  Biso   1.000  H
  H6       1.0000 0.41950  0.50830  0.21440  Biso   1.000  H
  H7       1.0000 0.58050  0.00830  0.28560  Biso   1.000  H
  H8       1.0000 0.91950  0.99170  0.78560  Biso   1.000  H
  N1       1.0000 0.85420  0.20790  0.45643  Biso   1.000  N
  N2       1.0000 0.64580  0.79210  0.95643  Biso   1.000  N
  N3       1.0000 0.35420  0.29210  0.54357  Biso   1.000  N
  N4       1.0000 0.14580  0.70790  0.04357  Biso   1.000  N
  N5       1.0000 0.14580  0.79210  0.54357  Biso   1.000  N
  N6       1.0000 0.35420  0.20790  0.04357  Biso   1.000  N
  N7       1.0000 0.64580  0.70790  0.45643  Biso   1.000  N
  N8       1.0000 0.85420  0.29210  0.95643  Biso   1.000  N
  N9       1.0000 0.68200  0.26800  0.43286  Biso   1.000  N
  N10      1.0000 0.81800  0.73200  0.93286  Biso   1.000  N
  N11      1.0000 0.18200  0.23200  0.56714  Biso   1.000  N
  N12      1.0000 0.31800  0.76800  0.06714  Biso   1.000  N
  N13      1.0000 0.31800  0.73200  0.56714  Biso   1.000  N
  N14      1.0000 0.18200  0.26800  0.06714  Biso   1.000  N
  N15      1.0000 0.81800  0.76800  0.43286  Biso   1.000  N
  N16      1.0000 0.68200  0.23200  0.93286  Biso   1.000  N
  N17      1.0000 0.69860  0.26650  0.38189  Biso   1.000  N
  N18      1.0000 0.80140  0.73350  0.88189  Biso   1.000  N
  N19      1.0000 0.19860  0.23350  0.61811  Biso   1.000  N
  N20      1.0000 0.30140  0.76650  0.11811  Biso   1.000  N
  N21      1.0000 0.30140  0.73350  0.61811  Biso   1.000  N
  N22      1.0000 0.19860  0.26650  0.11811  Biso   1.000  N
  N23      1.0000 0.80140  0.76650  0.38189  Biso   1.000  N
  N24      1.0000 0.69860  0.23350  0.88189  Biso   1.000  N
  N25      1.0000 0.88690  0.20210  0.37193  Biso   1.000  N
  N26      1.0000 0.61310  0.79790  0.87193  Biso   1.000  N
  N27      1.0000 0.38690  0.29790  0.62807  Biso   1.000  N
  N28      1.0000 0.11310  0.70210  0.12807  Biso   1.000  N
  N29      1.0000 0.11310  0.79790  0.62807  Biso   1.000  N
  N30      1.0000 0.38690  0.20210  0.12807  Biso   1.000  N
  N31      1.0000 0.61310  0.70210  0.37193  Biso   1.000  N
  N32      1.0000 0.88690  0.29790  0.87193  Biso   1.000  N
  C1       1.0000 0.98180  0.16480  0.41762  Biso   1.000  C
  C2       1.0000 0.51820  0.83520  0.91762  Biso   1.000  C
  C3       1.0000 0.48180  0.33520  0.58238  Biso   1.000  C
  C4       1.0000 0.01820  0.66480  0.08238  Biso   1.000  C
  C5       1.0000 0.01820  0.83520  0.58238  Biso   1.000  C
  C6       1.0000 0.48180  0.16480  0.08238  Biso   1.000  C
  C7       1.0000 0.51820  0.66480  0.41762  Biso   1.000  C
  C8       1.0000 0.98180  0.33520  0.91762  Biso   1.000  C
  C9       1.0000 0.95830  0.18030  0.31759  Biso   1.000  C
  C10      1.0000 0.54170  0.81970  0.81759  Biso   1.000  C
  C11      1.0000 0.45830  0.31970  0.68241  Biso   1.000  C
  C12      1.0000 0.04170  0.68030  0.18241  Biso   1.000  C
  C13      1.0000 0.04170  0.81970  0.68241  Biso   1.000  C
  C14      1.0000 0.45830  0.18030  0.18241  Biso   1.000  C
  C15      1.0000 0.54170  0.68030  0.31759  Biso   1.000  C
  C16      1.0000 0.95830  0.31970  0.81759  Biso   1.000  C
  H9       1.0000 0.84260  0.18000  0.29400  Biso   1.000  H
  H10      1.0000 0.65740  0.82000  0.79400  Biso   1.000  H
  H11      1.0000 0.34260  0.32000  0.70600  Biso   1.000  H
  H12      1.0000 0.15740  0.68000  0.20600  Biso   1.000  H
  H13      1.0000 0.15740  0.82000  0.70600  Biso   1.000  H
  H14      1.0000 0.34260  0.18000  0.20600  Biso   1.000  H
  H15      1.0000 0.65740  0.68000  0.29400  Biso   1.000  H
  H16      1.0000 0.84260  0.32000  0.79400  Biso   1.000  H
  H17      1.0000 0.02670  0.06600  0.31420  Biso   1.000  H
  H18      1.0000 0.47330  0.93400  0.81420  Biso   1.000  H
  H19      1.0000 0.52670  0.43400  0.68580  Biso   1.000  H
  H20      1.0000 0.97330  0.56600  0.18580  Biso   1.000  H
  H21      1.0000 0.97330  0.93400  0.68580  Biso   1.000  H
  H22      1.0000 0.52670  0.06600  0.18580  Biso   1.000  H
  H23      1.0000 0.47330  0.56600  0.31420  Biso   1.000  H
  H24      1.0000 0.02670  0.43400  0.81420  Biso   1.000  H
  C17      1.0000 0.10280  0.32850  0.30169  Biso   1.000  C
  C18      1.0000 0.39720  0.67150  0.80169  Biso   1.000  C
  C19      1.0000 0.60280  0.17150  0.69831  Biso   1.000  C
  C20      1.0000 0.89720  0.82850  0.19831  Biso   1.000  C
  C21      1.0000 0.89720  0.67150  0.69831  Biso   1.000  C
  C22      1.0000 0.60280  0.32850  0.19831  Biso   1.000  C
  C23      1.0000 0.39720  0.82850  0.30169  Biso   1.000  C
  C24      1.0000 0.10280  0.17150  0.80169  Biso   1.000  C
  H25      1.0000 0.22270  0.32300  0.32390  Biso   1.000  H
  H26      1.0000 0.27730  0.67700  0.82390  Biso   1.000  H
  H27      1.0000 0.72270  0.17700  0.67610  Biso   1.000  H
  H28      1.0000 0.77730  0.82300  0.17610  Biso   1.000  H
  H29      1.0000 0.77730  0.67700  0.67610  Biso   1.000  H
  H30      1.0000 0.72270  0.32300  0.17610  Biso   1.000  H
  H31      1.0000 0.27730  0.82300  0.32390  Biso   1.000  H
  H32      1.0000 0.22270  0.17700  0.82390  Biso   1.000  H
  H33      1.0000 0.14570  0.30910  0.26560  Biso   1.000  H
  H34      1.0000 0.35430  0.69090  0.76560  Biso   1.000  H
  H35      1.0000 0.64570  0.19090  0.73440  Biso   1.000  H
  H36      1.0000 0.85430  0.80910  0.23440  Biso   1.000  H
  H37      1.0000 0.85430  0.69090  0.73440  Biso   1.000  H
  H38      1.0000 0.64570  0.30910  0.23440  Biso   1.000  H
  H39      1.0000 0.35430  0.80910  0.26560  Biso   1.000  H
  H40      1.0000 0.14570  0.19090  0.76560  Biso   1.000  H
