data_image0
_cell_length_a       13.4278
_cell_length_b       13.4278
_cell_length_c       22.123
_cell_angle_alpha    90
_cell_angle_beta     90
_cell_angle_gamma    120

_symmetry_space_group_name_H-M    "P 1"
_symmetry_int_tables_number       1

loop_
  _symmetry_equiv_pos_as_xyz
  'x, y, z'

loop_
  _atom_site_label
  _atom_site_occupancy
  _atom_site_fract_x
  _atom_site_fract_y
  _atom_site_fract_z
  _atom_site_thermal_displace_type
  _atom_site_B_iso_or_equiv
  _atom_site_type_symbol
  Br1      1.0000 0.00000  0.00000  0.78978  Biso   1.000  Br
  Br2      1.0000 0.66667  0.33333  0.12311  Biso   1.000  Br
  Br3      1.0000 0.33333  0.66667  0.45645  Biso   1.000  Br
  Br4      1.0000 0.00000  0.00000  0.21022  Biso   1.000  Br
  Br5      1.0000 0.66667  0.33333  0.54355  Biso   1.000  Br
  Br6      1.0000 0.33333  0.66667  0.87689  Biso   1.000  Br
  Cu1      1.0000 0.00000  0.00000  0.93215  Biso   1.000  Cu
  Cu2      1.0000 0.66667  0.33333  0.26548  Biso   1.000  Cu
  Cu3      1.0000 0.33333  0.66667  0.59882  Biso   1.000  Cu
  Cu4      1.0000 0.00000  0.00000  0.06785  Biso   1.000  Cu
  Cu5      1.0000 0.66667  0.33333  0.40118  Biso   1.000  Cu
  Cu6      1.0000 0.33333  0.66667  0.73452  Biso   1.000  Cu
  Cu7      1.0000 0.81592  0.95118  0.84989  Biso   1.000  Cu
  Cu8      1.0000 0.04882  0.86474  0.84989  Biso   1.000  Cu
  Cu9      1.0000 0.13526  0.18408  0.84989  Biso   1.000  Cu
  Cu10     1.0000 0.48259  0.28451  0.18322  Biso   1.000  Cu
  Cu11     1.0000 0.71549  0.19807  0.18322  Biso   1.000  Cu
  Cu12     1.0000 0.80193  0.51741  0.18322  Biso   1.000  Cu
  Cu13     1.0000 0.14925  0.61785  0.51656  Biso   1.000  Cu
  Cu14     1.0000 0.38215  0.53141  0.51656  Biso   1.000  Cu
  Cu15     1.0000 0.46859  0.85075  0.51656  Biso   1.000  Cu
  Cu16     1.0000 0.18408  0.04882  0.15011  Biso   1.000  Cu
  Cu17     1.0000 0.95118  0.13526  0.15011  Biso   1.000  Cu
  Cu18     1.0000 0.86474  0.81592  0.15011  Biso   1.000  Cu
  Cu19     1.0000 0.85075  0.38215  0.48344  Biso   1.000  Cu
  Cu20     1.0000 0.61785  0.46859  0.48344  Biso   1.000  Cu
  Cu21     1.0000 0.53141  0.14925  0.48344  Biso   1.000  Cu
  Cu22     1.0000 0.51741  0.71549  0.81678  Biso   1.000  Cu
  Cu23     1.0000 0.28451  0.80193  0.81678  Biso   1.000  Cu
  Cu24     1.0000 0.19807  0.48259  0.81678  Biso   1.000  Cu
  S1       1.0000 0.93468  0.80722  0.93614  Biso   1.000  S
  S2       1.0000 0.19278  0.12746  0.93614  Biso   1.000  S
  S3       1.0000 0.87254  0.06532  0.93614  Biso   1.000  S
  S4       1.0000 0.60135  0.14055  0.26947  Biso   1.000  S
  S5       1.0000 0.85945  0.46079  0.26947  Biso   1.000  S
  S6       1.0000 0.53921  0.39865  0.26947  Biso   1.000  S
  S7       1.0000 0.26801  0.47389  0.60281  Biso   1.000  S
  S8       1.0000 0.52611  0.79413  0.60281  Biso   1.000  S
  S9       1.0000 0.20587  0.73199  0.60281  Biso   1.000  S
  S10      1.0000 0.06532  0.19278  0.06386  Biso   1.000  S
  S11      1.0000 0.80722  0.87254  0.06386  Biso   1.000  S
  S12      1.0000 0.12746  0.93468  0.06386  Biso   1.000  S
  S13      1.0000 0.73199  0.52611  0.39719  Biso   1.000  S
  S14      1.0000 0.47389  0.20587  0.39719  Biso   1.000  S
  S15      1.0000 0.79413  0.26801  0.39719  Biso   1.000  S
  S16      1.0000 0.39865  0.85945  0.73053  Biso   1.000  S
  S17      1.0000 0.14055  0.53921  0.73053  Biso   1.000  S
  S18      1.0000 0.46079  0.60135  0.73053  Biso   1.000  S
  N1       1.0000 0.74440  0.78550  0.87680  Biso   1.000  N
  N2       1.0000 0.21450  0.95890  0.87680  Biso   1.000  N
  N3       1.0000 0.04110  0.25560  0.87680  Biso   1.000  N
  N4       1.0000 0.41107  0.11883  0.21013  Biso   1.000  N
  N5       1.0000 0.88117  0.29223  0.21013  Biso   1.000  N
  N6       1.0000 0.70777  0.58893  0.21013  Biso   1.000  N
  N7       1.0000 0.07773  0.45217  0.54347  Biso   1.000  N
  N8       1.0000 0.54783  0.62557  0.54347  Biso   1.000  N
  N9       1.0000 0.37443  0.92227  0.54347  Biso   1.000  N
  N10      1.0000 0.25560  0.21450  0.12320  Biso   1.000  N
  N11      1.0000 0.78550  0.04110  0.12320  Biso   1.000  N
  N12      1.0000 0.95890  0.74440  0.12320  Biso   1.000  N
  N13      1.0000 0.92227  0.54783  0.45653  Biso   1.000  N
  N14      1.0000 0.45217  0.37443  0.45653  Biso   1.000  N
  N15      1.0000 0.62557  0.07773  0.45653  Biso   1.000  N
  N16      1.0000 0.58893  0.88117  0.78987  Biso   1.000  N
  N17      1.0000 0.11883  0.70777  0.78987  Biso   1.000  N
  N18      1.0000 0.29223  0.41107  0.78987  Biso   1.000  N
  N19      1.0000 0.70060  0.96390  0.79620  Biso   1.000  N
  N20      1.0000 0.03610  0.73670  0.79620  Biso   1.000  N
  N21      1.0000 0.26330  0.29940  0.79620  Biso   1.000  N
  N22      1.0000 0.36727  0.29723  0.12953  Biso   1.000  N
  N23      1.0000 0.70277  0.07003  0.12953  Biso   1.000  N
  N24      1.0000 0.92997  0.63273  0.12953  Biso   1.000  N
  N25      1.0000 0.03393  0.63057  0.46287  Biso   1.000  N
  N26      1.0000 0.36943  0.40337  0.46287  Biso   1.000  N
  N27      1.0000 0.59663  0.96607  0.46287  Biso   1.000  N
  N28      1.0000 0.29940  0.03610  0.20380  Biso   1.000  N
  N29      1.0000 0.96390  0.26330  0.20380  Biso   1.000  N
  N30      1.0000 0.73670  0.70060  0.20380  Biso   1.000  N
  N31      1.0000 0.96607  0.36943  0.53713  Biso   1.000  N
  N32      1.0000 0.63057  0.59663  0.53713  Biso   1.000  N
  N33      1.0000 0.40337  0.03393  0.53713  Biso   1.000  N
  N34      1.0000 0.63273  0.70277  0.87047  Biso   1.000  N
  N35      1.0000 0.29723  0.92997  0.87047  Biso   1.000  N
  N36      1.0000 0.07003  0.36727  0.87047  Biso   1.000  N
  C1       1.0000 0.79510  0.74280  0.91110  Biso   1.000  C
  C2       1.0000 0.25720  0.05230  0.91110  Biso   1.000  C
  C3       1.0000 0.94770  0.20490  0.91110  Biso   1.000  C
  C4       1.0000 0.46177  0.07613  0.24443  Biso   1.000  C
  C5       1.0000 0.92387  0.38563  0.24443  Biso   1.000  C
  C6       1.0000 0.61437  0.53823  0.24443  Biso   1.000  C
  C7       1.0000 0.12843  0.40947  0.57777  Biso   1.000  C
  C8       1.0000 0.59053  0.71897  0.57777  Biso   1.000  C
  C9       1.0000 0.28103  0.87157  0.57777  Biso   1.000  C
  C10      1.0000 0.20490  0.25720  0.08890  Biso   1.000  C
  C11      1.0000 0.74280  0.94770  0.08890  Biso   1.000  C
  C12      1.0000 0.05230  0.79510  0.08890  Biso   1.000  C
  C13      1.0000 0.87157  0.59053  0.42223  Biso   1.000  C
  C14      1.0000 0.40947  0.28103  0.42223  Biso   1.000  C
  C15      1.0000 0.71897  0.12843  0.42223  Biso   1.000  C
  C16      1.0000 0.53823  0.92387  0.75557  Biso   1.000  C
  C17      1.0000 0.07613  0.61437  0.75557  Biso   1.000  C
  C18      1.0000 0.38563  0.46177  0.75557  Biso   1.000  C
  N37      1.0000 0.72100  0.63130  0.91300  Biso   1.000  N
  N38      1.0000 0.36870  0.08970  0.91300  Biso   1.000  N
  N39      1.0000 0.91030  0.27900  0.91300  Biso   1.000  N
  N40      1.0000 0.38767  0.96463  0.24633  Biso   1.000  N
  N41      1.0000 0.03537  0.42303  0.24633  Biso   1.000  N
  N42      1.0000 0.57697  0.61233  0.24633  Biso   1.000  N
  N43      1.0000 0.05433  0.29797  0.57967  Biso   1.000  N
  N44      1.0000 0.70203  0.75637  0.57967  Biso   1.000  N
  N45      1.0000 0.24363  0.94567  0.57967  Biso   1.000  N
  N46      1.0000 0.27900  0.36870  0.08700  Biso   1.000  N
  N47      1.0000 0.63130  0.91030  0.08700  Biso   1.000  N
  N48      1.0000 0.08970  0.72100  0.08700  Biso   1.000  N
  N49      1.0000 0.94567  0.70203  0.42033  Biso   1.000  N
  N50      1.0000 0.29797  0.24363  0.42033  Biso   1.000  N
  N51      1.0000 0.75637  0.05433  0.42033  Biso   1.000  N
  N52      1.0000 0.61233  0.03537  0.75367  Biso   1.000  N
  N53      1.0000 0.96463  0.57697  0.75367  Biso   1.000  N
  N54      1.0000 0.42303  0.38767  0.75367  Biso   1.000  N
  N55      1.0000 0.61990  0.60420  0.88650  Biso   1.000  N
  N56      1.0000 0.39580  0.01570  0.88650  Biso   1.000  N
  N57      1.0000 0.98430  0.38010  0.88650  Biso   1.000  N
  N58      1.0000 0.28657  0.93753  0.21983  Biso   1.000  N
  N59      1.0000 0.06247  0.34903  0.21983  Biso   1.000  N
  N60      1.0000 0.65097  0.71343  0.21983  Biso   1.000  N
  N61      1.0000 0.95323  0.27087  0.55317  Biso   1.000  N
  N62      1.0000 0.72913  0.68237  0.55317  Biso   1.000  N
  N63      1.0000 0.31763  0.04677  0.55317  Biso   1.000  N
  N64      1.0000 0.38010  0.39580  0.11350  Biso   1.000  N
  N65      1.0000 0.60420  0.98430  0.11350  Biso   1.000  N
  N66      1.0000 0.01570  0.61990  0.11350  Biso   1.000  N
  N67      1.0000 0.04677  0.72913  0.44683  Biso   1.000  N
  N68      1.0000 0.27087  0.31763  0.44683  Biso   1.000  N
  N69      1.0000 0.68237  0.95323  0.44683  Biso   1.000  N
  N70      1.0000 0.71343  0.06247  0.78017  Biso   1.000  N
  N71      1.0000 0.93753  0.65097  0.78017  Biso   1.000  N
  N72      1.0000 0.34903  0.28657  0.78017  Biso   1.000  N
  C19      1.0000 0.71930  0.55180  0.96400  Biso   1.000  C
  C20      1.0000 0.44820  0.16750  0.96400  Biso   1.000  C
  C21      1.0000 0.83250  0.28070  0.96400  Biso   1.000  C
  C22      1.0000 0.38597  0.88513  0.29733  Biso   1.000  C
  C23      1.0000 0.11487  0.50083  0.29733  Biso   1.000  C
  C24      1.0000 0.49917  0.61403  0.29733  Biso   1.000  C
  C25      1.0000 0.05263  0.21847  0.63067  Biso   1.000  C
  C26      1.0000 0.78153  0.83417  0.63067  Biso   1.000  C
  C27      1.0000 0.16583  0.94737  0.63067  Biso   1.000  C
  C28      1.0000 0.28070  0.44820  0.03600  Biso   1.000  C
  C29      1.0000 0.55180  0.83250  0.03600  Biso   1.000  C
  C30      1.0000 0.16750  0.71930  0.03600  Biso   1.000  C
  C31      1.0000 0.94737  0.78153  0.36933  Biso   1.000  C
  C32      1.0000 0.21847  0.16583  0.36933  Biso   1.000  C
  C33      1.0000 0.83417  0.05263  0.36933  Biso   1.000  C
  C34      1.0000 0.61403  0.11487  0.70267  Biso   1.000  C
  C35      1.0000 0.88513  0.49917  0.70267  Biso   1.000  C
  C36      1.0000 0.50083  0.38597  0.70267  Biso   1.000  C
  H1       1.0000 0.73090  0.49340  0.94480  Biso   1.000  H
  H2       1.0000 0.50660  0.23750  0.94480  Biso   1.000  H
  H3       1.0000 0.76250  0.26910  0.94480  Biso   1.000  H
  H4       1.0000 0.39757  0.82673  0.27813  Biso   1.000  H
  H5       1.0000 0.17327  0.57083  0.27813  Biso   1.000  H
  H6       1.0000 0.42917  0.60243  0.27813  Biso   1.000  H
  H7       1.0000 0.06423  0.16007  0.61147  Biso   1.000  H
  H8       1.0000 0.83993  0.90417  0.61147  Biso   1.000  H
  H9       1.0000 0.09583  0.93577  0.61147  Biso   1.000  H
  H10      1.0000 0.26910  0.50660  0.05520  Biso   1.000  H
  H11      1.0000 0.49340  0.76250  0.05520  Biso   1.000  H
  H12      1.0000 0.23750  0.73090  0.05520  Biso   1.000  H
  H13      1.0000 0.93577  0.83993  0.38853  Biso   1.000  H
  H14      1.0000 0.16007  0.09583  0.38853  Biso   1.000  H
  H15      1.0000 0.90417  0.06423  0.38853  Biso   1.000  H
  H16      1.0000 0.60243  0.17327  0.72187  Biso   1.000  H
  H17      1.0000 0.82673  0.42917  0.72187  Biso   1.000  H
  H18      1.0000 0.57083  0.39757  0.72187  Biso   1.000  H
  H19      1.0000 0.78670  0.59780  0.98870  Biso   1.000  H
  H20      1.0000 0.40220  0.18890  0.98870  Biso   1.000  H
  H21      1.0000 0.81110  0.21330  0.98870  Biso   1.000  H
  H22      1.0000 0.45337  0.93113  0.32203  Biso   1.000  H
  H23      1.0000 0.06887  0.52223  0.32203  Biso   1.000  H
  H24      1.0000 0.47777  0.54663  0.32203  Biso   1.000  H
  H25      1.0000 0.12003  0.26447  0.65537  Biso   1.000  H
  H26      1.0000 0.73553  0.85557  0.65537  Biso   1.000  H
  H27      1.0000 0.14443  0.87997  0.65537  Biso   1.000  H
  H28      1.0000 0.21330  0.40220  0.01130  Biso   1.000  H
  H29      1.0000 0.59780  0.81110  0.01130  Biso   1.000  H
  H30      1.0000 0.18890  0.78670  0.01130  Biso   1.000  H
  H31      1.0000 0.87997  0.73553  0.34463  Biso   1.000  H
  H32      1.0000 0.26447  0.14443  0.34463  Biso   1.000  H
  H33      1.0000 0.85557  0.12003  0.34463  Biso   1.000  H
  H34      1.0000 0.54663  0.06887  0.67797  Biso   1.000  H
  H35      1.0000 0.93113  0.47777  0.67797  Biso   1.000  H
  H36      1.0000 0.52223  0.45337  0.67797  Biso   1.000  H
  C37      1.0000 0.62220  0.49150  0.00570  Biso   1.000  C
  C38      1.0000 0.50850  0.13070  0.00570  Biso   1.000  C
  C39      1.0000 0.86930  0.37780  0.00570  Biso   1.000  C
  C40      1.0000 0.28887  0.82483  0.33903  Biso   1.000  C
  C41      1.0000 0.17517  0.46403  0.33903  Biso   1.000  C
  C42      1.0000 0.53597  0.71113  0.33903  Biso   1.000  C
  C43      1.0000 0.95553  0.15817  0.67237  Biso   1.000  C
  C44      1.0000 0.84183  0.79737  0.67237  Biso   1.000  C
  C45      1.0000 0.20263  0.04447  0.67237  Biso   1.000  C
  C46      1.0000 0.37780  0.50850  0.99430  Biso   1.000  C
  C47      1.0000 0.49150  0.86930  0.99430  Biso   1.000  C
  C48      1.0000 0.13070  0.62220  0.99430  Biso   1.000  C
  C49      1.0000 0.04447  0.84183  0.32763  Biso   1.000  C
  C50      1.0000 0.15817  0.20263  0.32763  Biso   1.000  C
  C51      1.0000 0.79737  0.95553  0.32763  Biso   1.000  C
  C52      1.0000 0.71113  0.17517  0.66097  Biso   1.000  C
  C53      1.0000 0.82483  0.53597  0.66097  Biso   1.000  C
  C54      1.0000 0.46403  0.28887  0.66097  Biso   1.000  C
  O1       1.0000 0.60340  0.57130  0.04190  Biso   1.000  O
  O2       1.0000 0.42870  0.03210  0.04190  Biso   1.000  O
  O3       1.0000 0.96790  0.39660  0.04190  Biso   1.000  O
  O4       1.0000 0.27007  0.90463  0.37523  Biso   1.000  O
  O5       1.0000 0.09537  0.36543  0.37523  Biso   1.000  O
  O6       1.0000 0.63457  0.72993  0.37523  Biso   1.000  O
  O7       1.0000 0.93673  0.23797  0.70857  Biso   1.000  O
  O8       1.0000 0.76203  0.69877  0.70857  Biso   1.000  O
  O9       1.0000 0.30123  0.06327  0.70857  Biso   1.000  O
  O10      1.0000 0.39660  0.42870  0.95810  Biso   1.000  O
  O11      1.0000 0.57130  0.96790  0.95810  Biso   1.000  O
  O12      1.0000 0.03210  0.60340  0.95810  Biso   1.000  O
  O13      1.0000 0.06327  0.76203  0.29143  Biso   1.000  O
  O14      1.0000 0.23797  0.30123  0.29143  Biso   1.000  O
  O15      1.0000 0.69877  0.93673  0.29143  Biso   1.000  O
  O16      1.0000 0.72993  0.09537  0.62477  Biso   1.000  O
  O17      1.0000 0.90463  0.63457  0.62477  Biso   1.000  O
  O18      1.0000 0.36543  0.27007  0.62477  Biso   1.000  O
  H37      1.0000 0.55320  0.44250  0.98270  Biso   1.000  H
  H38      1.0000 0.55750  0.11070  0.98270  Biso   1.000  H
  H39      1.0000 0.88930  0.44680  0.98270  Biso   1.000  H
  H40      1.0000 0.21987  0.77583  0.31603  Biso   1.000  H
  H41      1.0000 0.22417  0.44403  0.31603  Biso   1.000  H
  H42      1.0000 0.55597  0.78013  0.31603  Biso   1.000  H
  H43      1.0000 0.88653  0.10917  0.64937  Biso   1.000  H
  H44      1.0000 0.89083  0.77737  0.64937  Biso   1.000  H
  H45      1.0000 0.22263  0.11347  0.64937  Biso   1.000  H
  H46      1.0000 0.44680  0.55750  0.01730  Biso   1.000  H
  H47      1.0000 0.44250  0.88930  0.01730  Biso   1.000  H
  H48      1.0000 0.11070  0.55320  0.01730  Biso   1.000  H
  H49      1.0000 0.11347  0.89083  0.35063  Biso   1.000  H
  H50      1.0000 0.10917  0.22263  0.35063  Biso   1.000  H
  H51      1.0000 0.77737  0.88653  0.35063  Biso   1.000  H
  H52      1.0000 0.78013  0.22417  0.68397  Biso   1.000  H
  H53      1.0000 0.77583  0.55597  0.68397  Biso   1.000  H
  H54      1.0000 0.44403  0.21987  0.68397  Biso   1.000  H
  H55      1.0000 0.63690  0.44290  0.03230  Biso   1.000  H
  H56      1.0000 0.55710  0.19400  0.03230  Biso   1.000  H
  H57      1.0000 0.80600  0.36310  0.03230  Biso   1.000  H
  H58      1.0000 0.30357  0.77623  0.36563  Biso   1.000  H
  H59      1.0000 0.22377  0.52733  0.36563  Biso   1.000  H
  H60      1.0000 0.47267  0.69643  0.36563  Biso   1.000  H
  H61      1.0000 0.97023  0.10957  0.69897  Biso   1.000  H
  H62      1.0000 0.89043  0.86067  0.69897  Biso   1.000  H
  H63      1.0000 0.13933  0.02977  0.69897  Biso   1.000  H
  H64      1.0000 0.36310  0.55710  0.96770  Biso   1.000  H
  H65      1.0000 0.44290  0.80600  0.96770  Biso   1.000  H
  H66      1.0000 0.19400  0.63690  0.96770  Biso   1.000  H
  H67      1.0000 0.02977  0.89043  0.30103  Biso   1.000  H
  H68      1.0000 0.10957  0.13933  0.30103  Biso   1.000  H
  H69      1.0000 0.86067  0.97023  0.30103  Biso   1.000  H
  H70      1.0000 0.69643  0.22377  0.63437  Biso   1.000  H
  H71      1.0000 0.77623  0.47267  0.63437  Biso   1.000  H
  H72      1.0000 0.52733  0.30357  0.63437  Biso   1.000  H
  H73      1.0000 0.54750  0.57380  0.02880  Biso   1.000  H
  H74      1.0000 0.42620  0.97370  0.02880  Biso   1.000  H
  H75      1.0000 0.02630  0.45250  0.02880  Biso   1.000  H
  H76      1.0000 0.21417  0.90713  0.36213  Biso   1.000  H
  H77      1.0000 0.09287  0.30703  0.36213  Biso   1.000  H
  H78      1.0000 0.69297  0.78583  0.36213  Biso   1.000  H
  H79      1.0000 0.88083  0.24047  0.69547  Biso   1.000  H
  H80      1.0000 0.75953  0.64037  0.69547  Biso   1.000  H
  H81      1.0000 0.35963  0.11917  0.69547  Biso   1.000  H
  H82      1.0000 0.45250  0.42620  0.97120  Biso   1.000  H
  H83      1.0000 0.57380  0.02630  0.97120  Biso   1.000  H
  H84      1.0000 0.97370  0.54750  0.97120  Biso   1.000  H
  H85      1.0000 0.11917  0.75953  0.30453  Biso   1.000  H
  H86      1.0000 0.24047  0.35963  0.30453  Biso   1.000  H
  H87      1.0000 0.64037  0.88083  0.30453  Biso   1.000  H
  H88      1.0000 0.78583  0.09287  0.63787  Biso   1.000  H
  H89      1.0000 0.90713  0.69297  0.63787  Biso   1.000  H
  H90      1.0000 0.30703  0.21417  0.63787  Biso   1.000  H
  O19      1.0000 0.76400  0.51500  0.92180  Biso   1.000  O
  O20      1.0000 0.48500  0.24900  0.92180  Biso   1.000  O
  O21      1.0000 0.75100  0.23600  0.92180  Biso   1.000  O
  O22      1.0000 0.43067  0.84833  0.25513  Biso   1.000  O
  O23      1.0000 0.15167  0.58233  0.25513  Biso   1.000  O
  O24      1.0000 0.41767  0.56933  0.25513  Biso   1.000  O
  O25      1.0000 0.09733  0.18167  0.58847  Biso   1.000  O
  O26      1.0000 0.81833  0.91567  0.58847  Biso   1.000  O
  O27      1.0000 0.08433  0.90267  0.58847  Biso   1.000  O
  O28      1.0000 0.23600  0.48500  0.07820  Biso   1.000  O
  O29      1.0000 0.51500  0.75100  0.07820  Biso   1.000  O
  O30      1.0000 0.24900  0.76400  0.07820  Biso   1.000  O
  O31      1.0000 0.90267  0.81833  0.41153  Biso   1.000  O
  O32      1.0000 0.18167  0.08433  0.41153  Biso   1.000  O
  O33      1.0000 0.91567  0.09733  0.41153  Biso   1.000  O
  O34      1.0000 0.56933  0.15167  0.74487  Biso   1.000  O
  O35      1.0000 0.84833  0.41767  0.74487  Biso   1.000  O
  O36      1.0000 0.58233  0.43067  0.74487  Biso   1.000  O
  H91      1.0000 0.82770  0.52390  0.91360  Biso   1.000  H
  H92      1.0000 0.47610  0.30380  0.91360  Biso   1.000  H
  H93      1.0000 0.69620  0.17230  0.91360  Biso   1.000  H
  H94      1.0000 0.49437  0.85723  0.24693  Biso   1.000  H
  H95      1.0000 0.14277  0.63713  0.24693  Biso   1.000  H
  H96      1.0000 0.36287  0.50563  0.24693  Biso   1.000  H
  H97      1.0000 0.16103  0.19057  0.58027  Biso   1.000  H
  H98      1.0000 0.80943  0.97047  0.58027  Biso   1.000  H
  H99      1.0000 0.02953  0.83897  0.58027  Biso   1.000  H
  H100     1.0000 0.17230  0.47610  0.08640  Biso   1.000  H
  H101     1.0000 0.52390  0.69620  0.08640  Biso   1.000  H
  H102     1.0000 0.30380  0.82770  0.08640  Biso   1.000  H
  H103     1.0000 0.83897  0.80943  0.41973  Biso   1.000  H
  H104     1.0000 0.19057  0.02953  0.41973  Biso   1.000  H
  H105     1.0000 0.97047  0.16103  0.41973  Biso   1.000  H
  H106     1.0000 0.50563  0.14277  0.75307  Biso   1.000  H
  H107     1.0000 0.85723  0.36287  0.75307  Biso   1.000  H
  H108     1.0000 0.63713  0.49437  0.75307  Biso   1.000  H
  N73      1.0000 0.60400  0.62500  0.91510  Biso   1.000  N
  N74      1.0000 0.37500  0.97900  0.91510  Biso   1.000  N
  N75      1.0000 0.02100  0.39600  0.91510  Biso   1.000  N
  N76      1.0000 0.27067  0.95833  0.24843  Biso   1.000  N
  N77      1.0000 0.04167  0.31233  0.24843  Biso   1.000  N
  N78      1.0000 0.68767  0.72933  0.24843  Biso   1.000  N
  N79      1.0000 0.93733  0.29167  0.58177  Biso   1.000  N
  N80      1.0000 0.70833  0.64567  0.58177  Biso   1.000  N
  N81      1.0000 0.35433  0.06267  0.58177  Biso   1.000  N
  N82      1.0000 0.39600  0.37500  0.08490  Biso   1.000  N
  N83      1.0000 0.62500  0.02100  0.08490  Biso   1.000  N
  N84      1.0000 0.97900  0.60400  0.08490  Biso   1.000  N
  N85      1.0000 0.06267  0.70833  0.41823  Biso   1.000  N
  N86      1.0000 0.29167  0.35433  0.41823  Biso   1.000  N
  N87      1.0000 0.64567  0.93733  0.41823  Biso   1.000  N
  N88      1.0000 0.72933  0.04167  0.75157  Biso   1.000  N
  N89      1.0000 0.95833  0.68767  0.75157  Biso   1.000  N
  N90      1.0000 0.31233  0.27067  0.75157  Biso   1.000  N
  N91      1.0000 0.70600  0.64900  0.94060  Biso   1.000  N
  N92      1.0000 0.35100  0.05700  0.94060  Biso   1.000  N
  N93      1.0000 0.94300  0.29400  0.94060  Biso   1.000  N
  N94      1.0000 0.37267  0.98233  0.27393  Biso   1.000  N
  N95      1.0000 0.01767  0.39033  0.27393  Biso   1.000  N
  N96      1.0000 0.60967  0.62733  0.27393  Biso   1.000  N
  N97      1.0000 0.03933  0.31567  0.60727  Biso   1.000  N
  N98      1.0000 0.68433  0.72367  0.60727  Biso   1.000  N
  N99      1.0000 0.27633  0.96067  0.60727  Biso   1.000  N
  N100     1.0000 0.29400  0.35100  0.05940  Biso   1.000  N
  N101     1.0000 0.64900  0.94300  0.05940  Biso   1.000  N
  N102     1.0000 0.05700  0.70600  0.05940  Biso   1.000  N
  N103     1.0000 0.96067  0.68433  0.39273  Biso   1.000  N
  N104     1.0000 0.31567  0.27633  0.39273  Biso   1.000  N
  N105     1.0000 0.72367  0.03933  0.39273  Biso   1.000  N
  N106     1.0000 0.62733  0.01767  0.72607  Biso   1.000  N
  N107     1.0000 0.98233  0.60967  0.72607  Biso   1.000  N
  N108     1.0000 0.39033  0.37267  0.72607  Biso   1.000  N
  C55      1.0000 0.70630  0.58040  0.01280  Biso   1.000  C
  C56      1.0000 0.41960  0.12590  0.01280  Biso   1.000  C
  C57      1.0000 0.87410  0.29370  0.01280  Biso   1.000  C
  C58      1.0000 0.37297  0.91373  0.34613  Biso   1.000  C
  C59      1.0000 0.08627  0.45923  0.34613  Biso   1.000  C
  C60      1.0000 0.54077  0.62703  0.34613  Biso   1.000  C
  C61      1.0000 0.03963  0.24707  0.67947  Biso   1.000  C
  C62      1.0000 0.75293  0.79257  0.67947  Biso   1.000  C
  C63      1.0000 0.20743  0.96037  0.67947  Biso   1.000  C
  C64      1.0000 0.29370  0.41960  0.98720  Biso   1.000  C
  C65      1.0000 0.58040  0.87410  0.98720  Biso   1.000  C
  C66      1.0000 0.12590  0.70630  0.98720  Biso   1.000  C
  C67      1.0000 0.96037  0.75293  0.32053  Biso   1.000  C
  C68      1.0000 0.24707  0.20743  0.32053  Biso   1.000  C
  C69      1.0000 0.79257  0.03963  0.32053  Biso   1.000  C
  C70      1.0000 0.62703  0.08627  0.65387  Biso   1.000  C
  C71      1.0000 0.91373  0.54077  0.65387  Biso   1.000  C
  C72      1.0000 0.45923  0.37297  0.65387  Biso   1.000  C
  H109     1.0000 0.75620  0.63470  0.04300  Biso   1.000  H
  H110     1.0000 0.36530  0.12150  0.04300  Biso   1.000  H
  H111     1.0000 0.87850  0.24380  0.04300  Biso   1.000  H
  H112     1.0000 0.42287  0.96803  0.37633  Biso   1.000  H
  H113     1.0000 0.03197  0.45483  0.37633  Biso   1.000  H
  H114     1.0000 0.54517  0.57713  0.37633  Biso   1.000  H
  H115     1.0000 0.08953  0.30137  0.70967  Biso   1.000  H
  H116     1.0000 0.69863  0.78817  0.70967  Biso   1.000  H
  H117     1.0000 0.21183  0.91047  0.70967  Biso   1.000  H
  H118     1.0000 0.24380  0.36530  0.95700  Biso   1.000  H
  H119     1.0000 0.63470  0.87850  0.95700  Biso   1.000  H
  H120     1.0000 0.12150  0.75620  0.95700  Biso   1.000  H
  H121     1.0000 0.91047  0.69863  0.29033  Biso   1.000  H
  H122     1.0000 0.30137  0.21183  0.29033  Biso   1.000  H
  H123     1.0000 0.78817  0.08953  0.29033  Biso   1.000  H
  H124     1.0000 0.57713  0.03197  0.62367  Biso   1.000  H
  H125     1.0000 0.96803  0.54517  0.62367  Biso   1.000  H
  H126     1.0000 0.45483  0.42287  0.62367  Biso   1.000  H
  H127     1.0000 0.62980  0.53170  0.02910  Biso   1.000  H
  H128     1.0000 0.46830  0.09810  0.02910  Biso   1.000  H
  H129     1.0000 0.90190  0.37020  0.02910  Biso   1.000  H
  H130     1.0000 0.29647  0.86503  0.36243  Biso   1.000  H
  H131     1.0000 0.13497  0.43143  0.36243  Biso   1.000  H
  H132     1.0000 0.56857  0.70353  0.36243  Biso   1.000  H
  H133     1.0000 0.96313  0.19837  0.69577  Biso   1.000  H
  H134     1.0000 0.80163  0.76477  0.69577  Biso   1.000  H
  H135     1.0000 0.23523  0.03687  0.69577  Biso   1.000  H
  H136     1.0000 0.37020  0.46830  0.97090  Biso   1.000  H
  H137     1.0000 0.53170  0.90190  0.97090  Biso   1.000  H
  H138     1.0000 0.09810  0.62980  0.97090  Biso   1.000  H
  H139     1.0000 0.03687  0.80163  0.30423  Biso   1.000  H
  H140     1.0000 0.19837  0.23523  0.30423  Biso   1.000  H
  H141     1.0000 0.76477  0.96313  0.30423  Biso   1.000  H
  H142     1.0000 0.70353  0.13497  0.63757  Biso   1.000  H
  H143     1.0000 0.86503  0.56857  0.63757  Biso   1.000  H
  H144     1.0000 0.43143  0.29647  0.63757  Biso   1.000  H
  C73      1.0000 0.75300  0.51820  0.98600  Biso   1.000  C
  C74      1.0000 0.48180  0.23480  0.98600  Biso   1.000  C
  C75      1.0000 0.76520  0.24700  0.98600  Biso   1.000  C
  C76      1.0000 0.41967  0.85153  0.31933  Biso   1.000  C
  C77      1.0000 0.14847  0.56813  0.31933  Biso   1.000  C
  C78      1.0000 0.43187  0.58033  0.31933  Biso   1.000  C
  C79      1.0000 0.08633  0.18487  0.65267  Biso   1.000  C
  C80      1.0000 0.81513  0.90147  0.65267  Biso   1.000  C
  C81      1.0000 0.09853  0.91367  0.65267  Biso   1.000  C
  C82      1.0000 0.24700  0.48180  0.01400  Biso   1.000  C
  C83      1.0000 0.51820  0.76520  0.01400  Biso   1.000  C
  C84      1.0000 0.23480  0.75300  0.01400  Biso   1.000  C
  C85      1.0000 0.91367  0.81513  0.34733  Biso   1.000  C
  C86      1.0000 0.18487  0.09853  0.34733  Biso   1.000  C
  C87      1.0000 0.90147  0.08633  0.34733  Biso   1.000  C
  C88      1.0000 0.58033  0.14847  0.68067  Biso   1.000  C
  C89      1.0000 0.85153  0.43187  0.68067  Biso   1.000  C
  C90      1.0000 0.56813  0.41967  0.68067  Biso   1.000  C
  H145     1.0000 0.70650  0.43920  0.99930  Biso   1.000  H
  H146     1.0000 0.56080  0.26730  0.99930  Biso   1.000  H
  H147     1.0000 0.73270  0.29350  0.99930  Biso   1.000  H
  H148     1.0000 0.37317  0.77253  0.33263  Biso   1.000  H
  H149     1.0000 0.22747  0.60063  0.33263  Biso   1.000  H
  H150     1.0000 0.39937  0.62683  0.33263  Biso   1.000  H
  H151     1.0000 0.03983  0.10587  0.66597  Biso   1.000  H
  H152     1.0000 0.89413  0.93397  0.66597  Biso   1.000  H
  H153     1.0000 0.06603  0.96017  0.66597  Biso   1.000  H
  H154     1.0000 0.29350  0.56080  0.00070  Biso   1.000  H
  H155     1.0000 0.43920  0.73270  0.00070  Biso   1.000  H
  H156     1.0000 0.26730  0.70650  0.00070  Biso   1.000  H
  H157     1.0000 0.96017  0.89413  0.33403  Biso   1.000  H
  H158     1.0000 0.10587  0.06603  0.33403  Biso   1.000  H
  H159     1.0000 0.93397  0.03983  0.33403  Biso   1.000  H
  H160     1.0000 0.62683  0.22747  0.66737  Biso   1.000  H
  H161     1.0000 0.77253  0.39937  0.66737  Biso   1.000  H
  H162     1.0000 0.60063  0.37317  0.66737  Biso   1.000  H
  H163     1.0000 0.82880  0.54700  0.00310  Biso   1.000  H
  H164     1.0000 0.45300  0.28180  0.00310  Biso   1.000  H
  H165     1.0000 0.71820  0.17120  0.00310  Biso   1.000  H
  H166     1.0000 0.49547  0.88033  0.33643  Biso   1.000  H
  H167     1.0000 0.11967  0.61513  0.33643  Biso   1.000  H
  H168     1.0000 0.38487  0.50453  0.33643  Biso   1.000  H
  H169     1.0000 0.16213  0.21367  0.66977  Biso   1.000  H
  H170     1.0000 0.78633  0.94847  0.66977  Biso   1.000  H
  H171     1.0000 0.05153  0.83787  0.66977  Biso   1.000  H
  H172     1.0000 0.17120  0.45300  0.99690  Biso   1.000  H
  H173     1.0000 0.54700  0.71820  0.99690  Biso   1.000  H
  H174     1.0000 0.28180  0.82880  0.99690  Biso   1.000  H
  H175     1.0000 0.83787  0.78633  0.33023  Biso   1.000  H
  H176     1.0000 0.21367  0.05153  0.33023  Biso   1.000  H
  H177     1.0000 0.94847  0.16213  0.33023  Biso   1.000  H
  H178     1.0000 0.50453  0.11967  0.66357  Biso   1.000  H
  H179     1.0000 0.88033  0.38487  0.66357  Biso   1.000  H
  H180     1.0000 0.61513  0.49547  0.66357  Biso   1.000  H
