data_image0
_cell_length_a       13.8124
_cell_length_b       13.8124
_cell_length_c       20.9844
_cell_angle_alpha    90
_cell_angle_beta     90
_cell_angle_gamma    120

_symmetry_space_group_name_H-M    "P 1"
_symmetry_int_tables_number       1

loop_
  _symmetry_equiv_pos_as_xyz
  'x, y, z'

loop_
  _atom_site_label
  _atom_site_occupancy
  _atom_site_fract_x
  _atom_site_fract_y
  _atom_site_fract_z
  _atom_site_thermal_displace_type
  _atom_site_B_iso_or_equiv
  _atom_site_type_symbol
  I1       1.0000 0.00000  0.00000  0.22816  Biso   1.000  I
  I2       1.0000 0.66667  0.33333  0.56149  Biso   1.000  I
  I3       1.0000 0.33333  0.66667  0.89483  Biso   1.000  I
  I4       1.0000 0.00000  0.00000  0.77184  Biso   1.000  I
  I5       1.0000 0.66667  0.33333  0.10517  Biso   1.000  I
  I6       1.0000 0.33333  0.66667  0.43851  Biso   1.000  I
  Cu1      1.0000 0.00000  0.00000  0.07411  Biso   1.000  Cu
  Cu2      1.0000 0.66667  0.33333  0.40744  Biso   1.000  Cu
  Cu3      1.0000 0.33333  0.66667  0.74078  Biso   1.000  Cu
  Cu4      1.0000 0.00000  0.00000  0.92589  Biso   1.000  Cu
  Cu5      1.0000 0.66667  0.33333  0.25922  Biso   1.000  Cu
  Cu6      1.0000 0.33333  0.66667  0.59256  Biso   1.000  Cu
  Cu7      1.0000 0.94796  0.13305  0.15792  Biso   1.000  Cu
  Cu8      1.0000 0.86695  0.81491  0.15792  Biso   1.000  Cu
  Cu9      1.0000 0.18509  0.05204  0.15792  Biso   1.000  Cu
  Cu10     1.0000 0.61463  0.46638  0.49125  Biso   1.000  Cu
  Cu11     1.0000 0.53362  0.14824  0.49125  Biso   1.000  Cu
  Cu12     1.0000 0.85176  0.38537  0.49125  Biso   1.000  Cu
  Cu13     1.0000 0.28129  0.79972  0.82459  Biso   1.000  Cu
  Cu14     1.0000 0.20028  0.48158  0.82459  Biso   1.000  Cu
  Cu15     1.0000 0.51842  0.71871  0.82459  Biso   1.000  Cu
  Cu16     1.0000 0.05204  0.86695  0.84208  Biso   1.000  Cu
  Cu17     1.0000 0.13305  0.18509  0.84208  Biso   1.000  Cu
  Cu18     1.0000 0.81491  0.94796  0.84208  Biso   1.000  Cu
  Cu19     1.0000 0.71871  0.20028  0.17541  Biso   1.000  Cu
  Cu20     1.0000 0.79972  0.51842  0.17541  Biso   1.000  Cu
  Cu21     1.0000 0.48158  0.28129  0.17541  Biso   1.000  Cu
  Cu22     1.0000 0.38537  0.53362  0.50875  Biso   1.000  Cu
  Cu23     1.0000 0.46638  0.85176  0.50875  Biso   1.000  Cu
  Cu24     1.0000 0.14824  0.61463  0.50875  Biso   1.000  Cu
  S1       1.0000 0.12566  0.94044  0.06633  Biso   1.000  S
  S2       1.0000 0.05956  0.18522  0.06633  Biso   1.000  S
  S3       1.0000 0.81478  0.87434  0.06633  Biso   1.000  S
  S4       1.0000 0.79233  0.27377  0.39966  Biso   1.000  S
  S5       1.0000 0.72623  0.51855  0.39966  Biso   1.000  S
  S6       1.0000 0.48145  0.20767  0.39966  Biso   1.000  S
  S7       1.0000 0.45899  0.60711  0.73300  Biso   1.000  S
  S8       1.0000 0.39289  0.85189  0.73300  Biso   1.000  S
  S9       1.0000 0.14811  0.54101  0.73300  Biso   1.000  S
  S10      1.0000 0.87434  0.05956  0.93367  Biso   1.000  S
  S11      1.0000 0.94044  0.81478  0.93367  Biso   1.000  S
  S12      1.0000 0.18522  0.12566  0.93367  Biso   1.000  S
  S13      1.0000 0.54101  0.39289  0.26700  Biso   1.000  S
  S14      1.0000 0.60711  0.14811  0.26700  Biso   1.000  S
  S15      1.0000 0.85189  0.45899  0.26700  Biso   1.000  S
  S16      1.0000 0.20767  0.72623  0.60034  Biso   1.000  S
  S17      1.0000 0.27377  0.48145  0.60034  Biso   1.000  S
  S18      1.0000 0.51855  0.79233  0.60034  Biso   1.000  S
  O1       1.0000 0.27910  0.74520  0.11130  Biso   1.000  O
  O2       1.0000 0.25480  0.53390  0.11130  Biso   1.000  O
  O3       1.0000 0.46610  0.72090  0.11130  Biso   1.000  O
  O4       1.0000 0.94577  0.07853  0.44463  Biso   1.000  O
  O5       1.0000 0.92147  0.86723  0.44463  Biso   1.000  O
  O6       1.0000 0.13277  0.05423  0.44463  Biso   1.000  O
  O7       1.0000 0.61243  0.41187  0.77797  Biso   1.000  O
  O8       1.0000 0.58813  0.20057  0.77797  Biso   1.000  O
  O9       1.0000 0.79943  0.38757  0.77797  Biso   1.000  O
  O10      1.0000 0.72090  0.25480  0.88870  Biso   1.000  O
  O11      1.0000 0.74520  0.46610  0.88870  Biso   1.000  O
  O12      1.0000 0.53390  0.27910  0.88870  Biso   1.000  O
  O13      1.0000 0.38757  0.58813  0.22203  Biso   1.000  O
  O14      1.0000 0.41187  0.79943  0.22203  Biso   1.000  O
  O15      1.0000 0.20057  0.61243  0.22203  Biso   1.000  O
  O16      1.0000 0.05423  0.92147  0.55537  Biso   1.000  O
  O17      1.0000 0.07853  0.13277  0.55537  Biso   1.000  O
  O18      1.0000 0.86723  0.94577  0.55537  Biso   1.000  O
  H1       1.0000 0.22010  0.71830  0.13110  Biso   1.000  H
  H2       1.0000 0.28170  0.50180  0.13110  Biso   1.000  H
  H3       1.0000 0.49820  0.77990  0.13110  Biso   1.000  H
  H4       1.0000 0.88677  0.05163  0.46443  Biso   1.000  H
  H5       1.0000 0.94837  0.83513  0.46443  Biso   1.000  H
  H6       1.0000 0.16487  0.11323  0.46443  Biso   1.000  H
  H7       1.0000 0.55343  0.38497  0.79777  Biso   1.000  H
  H8       1.0000 0.61503  0.16847  0.79777  Biso   1.000  H
  H9       1.0000 0.83153  0.44657  0.79777  Biso   1.000  H
  H10      1.0000 0.77990  0.28170  0.86890  Biso   1.000  H
  H11      1.0000 0.71830  0.49820  0.86890  Biso   1.000  H
  H12      1.0000 0.50180  0.22010  0.86890  Biso   1.000  H
  H13      1.0000 0.44657  0.61503  0.20223  Biso   1.000  H
  H14      1.0000 0.38497  0.83153  0.20223  Biso   1.000  H
  H15      1.0000 0.16847  0.55343  0.20223  Biso   1.000  H
  H16      1.0000 0.11323  0.94837  0.53557  Biso   1.000  H
  H17      1.0000 0.05163  0.16487  0.53557  Biso   1.000  H
  H18      1.0000 0.83513  0.88677  0.53557  Biso   1.000  H
  N1       1.0000 0.95870  0.74860  0.12420  Biso   1.000  N
  N2       1.0000 0.25140  0.21010  0.12420  Biso   1.000  N
  N3       1.0000 0.78990  0.04130  0.12420  Biso   1.000  N
  N4       1.0000 0.62537  0.08193  0.45753  Biso   1.000  N
  N5       1.0000 0.91807  0.54343  0.45753  Biso   1.000  N
  N6       1.0000 0.45657  0.37463  0.45753  Biso   1.000  N
  N7       1.0000 0.29203  0.41527  0.79087  Biso   1.000  N
  N8       1.0000 0.58473  0.87677  0.79087  Biso   1.000  N
  N9       1.0000 0.12323  0.70797  0.79087  Biso   1.000  N
  N10      1.0000 0.04130  0.25140  0.87580  Biso   1.000  N
  N11      1.0000 0.74860  0.78990  0.87580  Biso   1.000  N
  N12      1.0000 0.21010  0.95870  0.87580  Biso   1.000  N
  N13      1.0000 0.70797  0.58473  0.20913  Biso   1.000  N
  N14      1.0000 0.41527  0.12323  0.20913  Biso   1.000  N
  N15      1.0000 0.87677  0.29203  0.20913  Biso   1.000  N
  N16      1.0000 0.37463  0.91807  0.54247  Biso   1.000  N
  N17      1.0000 0.08193  0.45657  0.54247  Biso   1.000  N
  N18      1.0000 0.54343  0.62537  0.54247  Biso   1.000  N
  N19      1.0000 0.93150  0.63890  0.12550  Biso   1.000  N
  N20      1.0000 0.36110  0.29260  0.12550  Biso   1.000  N
  N21      1.0000 0.70740  0.06850  0.12550  Biso   1.000  N
  N22      1.0000 0.59817  0.97223  0.45883  Biso   1.000  N
  N23      1.0000 0.02777  0.62593  0.45883  Biso   1.000  N
  N24      1.0000 0.37407  0.40183  0.45883  Biso   1.000  N
  N25      1.0000 0.26483  0.30557  0.79217  Biso   1.000  N
  N26      1.0000 0.69443  0.95927  0.79217  Biso   1.000  N
  N27      1.0000 0.04073  0.73517  0.79217  Biso   1.000  N
  N28      1.0000 0.06850  0.36110  0.87450  Biso   1.000  N
  N29      1.0000 0.63890  0.70740  0.87450  Biso   1.000  N
  N30      1.0000 0.29260  0.93150  0.87450  Biso   1.000  N
  N31      1.0000 0.73517  0.69443  0.20783  Biso   1.000  N
  N32      1.0000 0.30557  0.04073  0.20783  Biso   1.000  N
  N33      1.0000 0.95927  0.26483  0.20783  Biso   1.000  N
  N34      1.0000 0.40183  0.02777  0.54117  Biso   1.000  N
  N35      1.0000 0.97223  0.37407  0.54117  Biso   1.000  N
  N36      1.0000 0.62593  0.59817  0.54117  Biso   1.000  N
  N37      1.0000 0.00100  0.62360  0.09220  Biso   1.000  N
  N38      1.0000 0.37640  0.37740  0.09220  Biso   1.000  N
  N39      1.0000 0.62260  0.99900  0.09220  Biso   1.000  N
  N40      1.0000 0.66767  0.95693  0.42553  Biso   1.000  N
  N41      1.0000 0.04307  0.71073  0.42553  Biso   1.000  N
  N42      1.0000 0.28927  0.33233  0.42553  Biso   1.000  N
  N43      1.0000 0.33433  0.29027  0.75887  Biso   1.000  N
  N44      1.0000 0.70973  0.04407  0.75887  Biso   1.000  N
  N45      1.0000 0.95593  0.66567  0.75887  Biso   1.000  N
  N46      1.0000 0.99900  0.37640  0.90780  Biso   1.000  N
  N47      1.0000 0.62360  0.62260  0.90780  Biso   1.000  N
  N48      1.0000 0.37740  0.00100  0.90780  Biso   1.000  N
  N49      1.0000 0.66567  0.70973  0.24113  Biso   1.000  N
  N50      1.0000 0.29027  0.95593  0.24113  Biso   1.000  N
  N51      1.0000 0.04407  0.33433  0.24113  Biso   1.000  N
  N52      1.0000 0.33233  0.04307  0.57447  Biso   1.000  N
  N53      1.0000 0.95693  0.28927  0.57447  Biso   1.000  N
  N54      1.0000 0.71073  0.66767  0.57447  Biso   1.000  N
  N55      1.0000 0.07640  0.72490  0.06890  Biso   1.000  N
  N56      1.0000 0.27510  0.35150  0.06890  Biso   1.000  N
  N57      1.0000 0.64850  0.92360  0.06890  Biso   1.000  N
  N58      1.0000 0.74307  0.05823  0.40223  Biso   1.000  N
  N59      1.0000 0.94177  0.68483  0.40223  Biso   1.000  N
  N60      1.0000 0.31517  0.25693  0.40223  Biso   1.000  N
  N61      1.0000 0.40973  0.39157  0.73557  Biso   1.000  N
  N62      1.0000 0.60843  0.01817  0.73557  Biso   1.000  N
  N63      1.0000 0.98183  0.59027  0.73557  Biso   1.000  N
  N64      1.0000 0.92360  0.27510  0.93110  Biso   1.000  N
  N65      1.0000 0.72490  0.64850  0.93110  Biso   1.000  N
  N66      1.0000 0.35150  0.07640  0.93110  Biso   1.000  N
  N67      1.0000 0.59027  0.60843  0.26443  Biso   1.000  N
  N68      1.0000 0.39157  0.98183  0.26443  Biso   1.000  N
  N69      1.0000 0.01817  0.40973  0.26443  Biso   1.000  N
  N70      1.0000 0.25693  0.94177  0.59777  Biso   1.000  N
  N71      1.0000 0.05823  0.31517  0.59777  Biso   1.000  N
  N72      1.0000 0.68483  0.74307  0.59777  Biso   1.000  N
  C1       1.0000 0.05190  0.80200  0.08900  Biso   1.000  C
  C2       1.0000 0.19800  0.24990  0.08900  Biso   1.000  C
  C3       1.0000 0.75010  0.94810  0.08900  Biso   1.000  C
  C4       1.0000 0.71857  0.13533  0.42233  Biso   1.000  C
  C5       1.0000 0.86467  0.58323  0.42233  Biso   1.000  C
  C6       1.0000 0.41677  0.28143  0.42233  Biso   1.000  C
  C7       1.0000 0.38523  0.46867  0.75567  Biso   1.000  C
  C8       1.0000 0.53133  0.91657  0.75567  Biso   1.000  C
  C9       1.0000 0.08343  0.61477  0.75567  Biso   1.000  C
  C10      1.0000 0.94810  0.19800  0.91100  Biso   1.000  C
  C11      1.0000 0.80200  0.75010  0.91100  Biso   1.000  C
  C12      1.0000 0.24990  0.05190  0.91100  Biso   1.000  C
  C13      1.0000 0.61477  0.53133  0.24433  Biso   1.000  C
  C14      1.0000 0.46867  0.08343  0.24433  Biso   1.000  C
  C15      1.0000 0.91657  0.38523  0.24433  Biso   1.000  C
  C16      1.0000 0.28143  0.86467  0.57767  Biso   1.000  C
  C17      1.0000 0.13533  0.41677  0.57767  Biso   1.000  C
  C18      1.0000 0.58323  0.71857  0.57767  Biso   1.000  C
  C19      1.0000 0.16550  0.73740  0.02400  Biso   1.000  C
  C20      1.0000 0.26260  0.42810  0.02400  Biso   1.000  C
  C21      1.0000 0.57190  0.83450  0.02400  Biso   1.000  C
  C22      1.0000 0.83217  0.07073  0.35733  Biso   1.000  C
  C23      1.0000 0.92927  0.76143  0.35733  Biso   1.000  C
  C24      1.0000 0.23857  0.16783  0.35733  Biso   1.000  C
  C25      1.0000 0.49883  0.40407  0.69067  Biso   1.000  C
  C26      1.0000 0.59593  0.09477  0.69067  Biso   1.000  C
  C27      1.0000 0.90523  0.50117  0.69067  Biso   1.000  C
  C28      1.0000 0.83450  0.26260  0.97600  Biso   1.000  C
  C29      1.0000 0.73740  0.57190  0.97600  Biso   1.000  C
  C30      1.0000 0.42810  0.16550  0.97600  Biso   1.000  C
  C31      1.0000 0.50117  0.59593  0.30933  Biso   1.000  C
  C32      1.0000 0.40407  0.90523  0.30933  Biso   1.000  C
  C33      1.0000 0.09477  0.49883  0.30933  Biso   1.000  C
  C34      1.0000 0.16783  0.92927  0.64267  Biso   1.000  C
  C35      1.0000 0.07073  0.23857  0.64267  Biso   1.000  C
  C36      1.0000 0.76143  0.83217  0.64267  Biso   1.000  C
  H19      1.0000 0.16430  0.77570  0.98550  Biso   1.000  H
  H20      1.0000 0.22430  0.38860  0.98550  Biso   1.000  H
  H21      1.0000 0.61140  0.83570  0.98550  Biso   1.000  H
  H22      1.0000 0.83097  0.10903  0.31883  Biso   1.000  H
  H23      1.0000 0.89097  0.72193  0.31883  Biso   1.000  H
  H24      1.0000 0.27807  0.16903  0.31883  Biso   1.000  H
  H25      1.0000 0.49763  0.44237  0.65217  Biso   1.000  H
  H26      1.0000 0.55763  0.05527  0.65217  Biso   1.000  H
  H27      1.0000 0.94473  0.50237  0.65217  Biso   1.000  H
  H28      1.0000 0.83570  0.22430  0.01450  Biso   1.000  H
  H29      1.0000 0.77570  0.61140  0.01450  Biso   1.000  H
  H30      1.0000 0.38860  0.16430  0.01450  Biso   1.000  H
  H31      1.0000 0.50237  0.55763  0.34783  Biso   1.000  H
  H32      1.0000 0.44237  0.94473  0.34783  Biso   1.000  H
  H33      1.0000 0.05527  0.49763  0.34783  Biso   1.000  H
  H34      1.0000 0.16903  0.89097  0.68117  Biso   1.000  H
  H35      1.0000 0.10903  0.27807  0.68117  Biso   1.000  H
  H36      1.0000 0.72193  0.83097  0.68117  Biso   1.000  H
  H37      1.0000 0.15480  0.66470  0.01230  Biso   1.000  H
  H38      1.0000 0.33530  0.49010  0.01230  Biso   1.000  H
  H39      1.0000 0.50990  0.84520  0.01230  Biso   1.000  H
  H40      1.0000 0.82147  0.99803  0.34563  Biso   1.000  H
  H41      1.0000 0.00197  0.82343  0.34563  Biso   1.000  H
  H42      1.0000 0.17657  0.17853  0.34563  Biso   1.000  H
  H43      1.0000 0.48813  0.33137  0.67897  Biso   1.000  H
  H44      1.0000 0.66863  0.15677  0.67897  Biso   1.000  H
  H45      1.0000 0.84323  0.51187  0.67897  Biso   1.000  H
  H46      1.0000 0.84520  0.33530  0.98770  Biso   1.000  H
  H47      1.0000 0.66470  0.50990  0.98770  Biso   1.000  H
  H48      1.0000 0.49010  0.15480  0.98770  Biso   1.000  H
  H49      1.0000 0.51187  0.66863  0.32103  Biso   1.000  H
  H50      1.0000 0.33137  0.84323  0.32103  Biso   1.000  H
  H51      1.0000 0.15677  0.48813  0.32103  Biso   1.000  H
  H52      1.0000 0.17853  0.00197  0.65437  Biso   1.000  H
  H53      1.0000 0.99803  0.17657  0.65437  Biso   1.000  H
  H54      1.0000 0.82343  0.82147  0.65437  Biso   1.000  H
  C37      1.0000 0.27380  0.80460  0.05870  Biso   1.000  C
  C38      1.0000 0.19540  0.46920  0.05870  Biso   1.000  C
  C39      1.0000 0.53080  0.72620  0.05870  Biso   1.000  C
  C40      1.0000 0.94047  0.13793  0.39203  Biso   1.000  C
  C41      1.0000 0.86207  0.80253  0.39203  Biso   1.000  C
  C42      1.0000 0.19747  0.05953  0.39203  Biso   1.000  C
  C43      1.0000 0.60713  0.47127  0.72537  Biso   1.000  C
  C44      1.0000 0.52873  0.13587  0.72537  Biso   1.000  C
  C45      1.0000 0.86413  0.39287  0.72537  Biso   1.000  C
  C46      1.0000 0.72620  0.19540  0.94130  Biso   1.000  C
  C47      1.0000 0.80460  0.53080  0.94130  Biso   1.000  C
  C48      1.0000 0.46920  0.27380  0.94130  Biso   1.000  C
  C49      1.0000 0.39287  0.52873  0.27463  Biso   1.000  C
  C50      1.0000 0.47127  0.86413  0.27463  Biso   1.000  C
  C51      1.0000 0.13587  0.60713  0.27463  Biso   1.000  C
  C52      1.0000 0.05953  0.86207  0.60797  Biso   1.000  C
  C53      1.0000 0.13793  0.19747  0.60797  Biso   1.000  C
  C54      1.0000 0.80253  0.94047  0.60797  Biso   1.000  C
  H55      1.0000 0.33560  0.82180  0.03010  Biso   1.000  H
  H56      1.0000 0.17820  0.51380  0.03010  Biso   1.000  H
  H57      1.0000 0.48620  0.66440  0.03010  Biso   1.000  H
  H58      1.0000 0.00227  0.15513  0.36343  Biso   1.000  H
  H59      1.0000 0.84487  0.84713  0.36343  Biso   1.000  H
  H60      1.0000 0.15287  0.99773  0.36343  Biso   1.000  H
  H61      1.0000 0.66893  0.48847  0.69677  Biso   1.000  H
  H62      1.0000 0.51153  0.18047  0.69677  Biso   1.000  H
  H63      1.0000 0.81953  0.33107  0.69677  Biso   1.000  H
  H64      1.0000 0.66440  0.17820  0.96990  Biso   1.000  H
  H65      1.0000 0.82180  0.48620  0.96990  Biso   1.000  H
  H66      1.0000 0.51380  0.33560  0.96990  Biso   1.000  H
  H67      1.0000 0.33107  0.51153  0.30323  Biso   1.000  H
  H68      1.0000 0.48847  0.81953  0.30323  Biso   1.000  H
  H69      1.0000 0.18047  0.66893  0.30323  Biso   1.000  H
  H70      1.0000 0.99773  0.84487  0.63657  Biso   1.000  H
  H71      1.0000 0.15513  0.15287  0.63657  Biso   1.000  H
  H72      1.0000 0.84713  0.00227  0.63657  Biso   1.000  H
  H73      1.0000 0.28050  0.87450  0.07290  Biso   1.000  H
  H74      1.0000 0.12550  0.40600  0.07290  Biso   1.000  H
  H75      1.0000 0.59400  0.71950  0.07290  Biso   1.000  H
  H76      1.0000 0.94717  0.20783  0.40623  Biso   1.000  H
  H77      1.0000 0.79217  0.73933  0.40623  Biso   1.000  H
  H78      1.0000 0.26067  0.05283  0.40623  Biso   1.000  H
  H79      1.0000 0.61383  0.54117  0.73957  Biso   1.000  H
  H80      1.0000 0.45883  0.07267  0.73957  Biso   1.000  H
  H81      1.0000 0.92733  0.38617  0.73957  Biso   1.000  H
  H82      1.0000 0.71950  0.12550  0.92710  Biso   1.000  H
  H83      1.0000 0.87450  0.59400  0.92710  Biso   1.000  H
  H84      1.0000 0.40600  0.28050  0.92710  Biso   1.000  H
  H85      1.0000 0.38617  0.45883  0.26043  Biso   1.000  H
  H86      1.0000 0.54117  0.92733  0.26043  Biso   1.000  H
  H87      1.0000 0.07267  0.61383  0.26043  Biso   1.000  H
  H88      1.0000 0.05283  0.79217  0.59377  Biso   1.000  H
  H89      1.0000 0.20783  0.26067  0.59377  Biso   1.000  H
  H90      1.0000 0.73933  0.94717  0.59377  Biso   1.000  H
