data_image0
_cell_length_a       5.6662
_cell_length_b       10.1801
_cell_length_c       24.2927
_cell_angle_alpha    90
_cell_angle_beta     90
_cell_angle_gamma    90

_symmetry_space_group_name_H-M    "P 1"
_symmetry_int_tables_number       1

loop_
  _symmetry_equiv_pos_as_xyz
  'x, y, z'

loop_
  _atom_site_label
  _atom_site_occupancy
  _atom_site_fract_x
  _atom_site_fract_y
  _atom_site_fract_z
  _atom_site_thermal_displace_type
  _atom_site_B_iso_or_equiv
  _atom_site_type_symbol
  Cu1      1.0000 0.39478  0.51765  0.08977  Biso   1.000  Cu
  Cu2      1.0000 0.10522  0.48235  0.58977  Biso   1.000  Cu
  Cu3      1.0000 0.60522  0.01765  0.41023  Biso   1.000  Cu
  Cu4      1.0000 0.89478  0.98235  0.91023  Biso   1.000  Cu
  S1       1.0000 0.23929  0.53924  0.17876  Biso   1.000  S
  S2       1.0000 0.26071  0.46076  0.67876  Biso   1.000  S
  S3       1.0000 0.76071  0.03924  0.32124  Biso   1.000  S
  S4       1.0000 0.73929  0.96076  0.82124  Biso   1.000  S
  S5       1.0000 0.16398  0.63461  0.02734  Biso   1.000  S
  S6       1.0000 0.33602  0.36539  0.52734  Biso   1.000  S
  S7       1.0000 0.83602  0.13461  0.47266  Biso   1.000  S
  S8       1.0000 0.66398  0.86539  0.97266  Biso   1.000  S
  N1       1.0000 0.98520  0.98460  0.18942  Biso   1.000  N
  N2       1.0000 0.51480  0.01540  0.68942  Biso   1.000  N
  N3       1.0000 0.01480  0.48460  0.31058  Biso   1.000  N
  N4       1.0000 0.48520  0.51540  0.81058  Biso   1.000  N
  H1       1.0000 0.10100  0.01900  0.20880  Biso   1.000  H
  H2       1.0000 0.39900  0.98100  0.70880  Biso   1.000  H
  H3       1.0000 0.89900  0.51900  0.29120  Biso   1.000  H
  H4       1.0000 0.60100  0.48100  0.79120  Biso   1.000  H
  N5       1.0000 0.35660  0.31040  0.08004  Biso   1.000  N
  N6       1.0000 0.14340  0.68960  0.58004  Biso   1.000  N
  N7       1.0000 0.64340  0.81040  0.41996  Biso   1.000  N
  N8       1.0000 0.85660  0.18960  0.91996  Biso   1.000  N
  N9       1.0000 0.63290  0.55270  0.24980  Biso   1.000  N
  N10      1.0000 0.86710  0.44730  0.74980  Biso   1.000  N
  N11      1.0000 0.36710  0.05270  0.25020  Biso   1.000  N
  N12      1.0000 0.13290  0.94730  0.75020  Biso   1.000  N
  N13      1.0000 0.71980  0.56170  0.07025  Biso   1.000  N
  N14      1.0000 0.78020  0.43830  0.57025  Biso   1.000  N
  N15      1.0000 0.28020  0.06170  0.42975  Biso   1.000  N
  N16      1.0000 0.21980  0.93830  0.92975  Biso   1.000  N
  C1       1.0000 0.97700  0.85380  0.18806  Biso   1.000  C
  C2       1.0000 0.52300  0.14620  0.68806  Biso   1.000  C
  C3       1.0000 0.02300  0.35380  0.31194  Biso   1.000  C
  C4       1.0000 0.47700  0.64620  0.81194  Biso   1.000  C
  H5       1.0000 0.08850  0.80510  0.20730  Biso   1.000  H
  H6       1.0000 0.41150  0.19490  0.70730  Biso   1.000  H
  H7       1.0000 0.91150  0.30510  0.29270  Biso   1.000  H
  H8       1.0000 0.58850  0.69490  0.79270  Biso   1.000  H
  C5       1.0000 0.80380  0.79030  0.15816  Biso   1.000  C
  C6       1.0000 0.69620  0.20970  0.65816  Biso   1.000  C
  C7       1.0000 0.19620  0.29030  0.34184  Biso   1.000  C
  C8       1.0000 0.30380  0.70970  0.84184  Biso   1.000  C
  H9       1.0000 0.79780  0.69900  0.15750  Biso   1.000  H
  H10      1.0000 0.70220  0.30100  0.65750  Biso   1.000  H
  H11      1.0000 0.20220  0.19900  0.34250  Biso   1.000  H
  H12      1.0000 0.29780  0.80100  0.84250  Biso   1.000  H
  C9       1.0000 0.63870  0.86360  0.12916  Biso   1.000  C
  C10      1.0000 0.86130  0.13640  0.62916  Biso   1.000  C
  C11      1.0000 0.36130  0.36360  0.37084  Biso   1.000  C
  C12      1.0000 0.13870  0.63640  0.87084  Biso   1.000  C
  H13      1.0000 0.52280  0.82150  0.10860  Biso   1.000  H
  H14      1.0000 0.97720  0.17850  0.60860  Biso   1.000  H
  H15      1.0000 0.47720  0.32150  0.39140  Biso   1.000  H
  H16      1.0000 0.02280  0.67850  0.89140  Biso   1.000  H
  C13      1.0000 0.64670  0.00230  0.13094  Biso   1.000  C
  C14      1.0000 0.85330  0.99770  0.63094  Biso   1.000  C
  C15      1.0000 0.35330  0.50230  0.36906  Biso   1.000  C
  C16      1.0000 0.14670  0.49770  0.86906  Biso   1.000  C
  C17      1.0000 0.82610  0.06190  0.16231  Biso   1.000  C
  C18      1.0000 0.67390  0.93810  0.66231  Biso   1.000  C
  C19      1.0000 0.17390  0.56190  0.33769  Biso   1.000  C
  C20      1.0000 0.32610  0.43810  0.83769  Biso   1.000  C
  C21      1.0000 0.84930  0.20130  0.16641  Biso   1.000  C
  C22      1.0000 0.65070  0.79870  0.66641  Biso   1.000  C
  C23      1.0000 0.15070  0.70130  0.33359  Biso   1.000  C
  C24      1.0000 0.34930  0.29870  0.83359  Biso   1.000  C
  H17      1.0000 0.96940  0.23830  0.18740  Biso   1.000  H
  H18      1.0000 0.53060  0.76170  0.68740  Biso   1.000  H
  H19      1.0000 0.03060  0.73830  0.31260  Biso   1.000  H
  H20      1.0000 0.46940  0.26170  0.81260  Biso   1.000  H
  C25      1.0000 0.50520  0.22440  0.10681  Biso   1.000  C
  C26      1.0000 0.99480  0.77560  0.60681  Biso   1.000  C
  C27      1.0000 0.49480  0.72440  0.39319  Biso   1.000  C
  C28      1.0000 0.00520  0.27560  0.89319  Biso   1.000  C
  C29      1.0000 0.47920  0.08660  0.10222  Biso   1.000  C
  C30      1.0000 0.02080  0.91340  0.60222  Biso   1.000  C
  C31      1.0000 0.52080  0.58660  0.39778  Biso   1.000  C
  C32      1.0000 0.97920  0.41340  0.89778  Biso   1.000  C
  C33      1.0000 0.69320  0.27890  0.13918  Biso   1.000  C
  C34      1.0000 0.80680  0.72110  0.63918  Biso   1.000  C
  C35      1.0000 0.30680  0.77890  0.36082  Biso   1.000  C
  C36      1.0000 0.19320  0.22110  0.86082  Biso   1.000  C
  H21      1.0000 0.70850  0.36960  0.14160  Biso   1.000  H
  H22      1.0000 0.79150  0.63040  0.64160  Biso   1.000  H
  H23      1.0000 0.29150  0.86960  0.35840  Biso   1.000  H
  H24      1.0000 0.20850  0.13040  0.85840  Biso   1.000  H
  C37      1.0000 0.29370  0.03720  0.06969  Biso   1.000  C
  C38      1.0000 0.20630  0.96280  0.56969  Biso   1.000  C
  C39      1.0000 0.70630  0.53720  0.43031  Biso   1.000  C
  C40      1.0000 0.79370  0.46280  0.93031  Biso   1.000  C
  H25      1.0000 0.27200  0.94710  0.06580  Biso   1.000  H
  H26      1.0000 0.22800  0.05290  0.56580  Biso   1.000  H
  H27      1.0000 0.72800  0.44710  0.43420  Biso   1.000  H
  H28      1.0000 0.77200  0.55290  0.93420  Biso   1.000  H
  C41      1.0000 0.14570  0.12390  0.04383  Biso   1.000  C
  C42      1.0000 0.35430  0.87610  0.54383  Biso   1.000  C
  C43      1.0000 0.85430  0.62390  0.45617  Biso   1.000  C
  C44      1.0000 0.64570  0.37610  0.95617  Biso   1.000  C
  H29      1.0000 0.02100  0.09330  0.02250  Biso   1.000  H
  H30      1.0000 0.47900  0.90670  0.52250  Biso   1.000  H
  H31      1.0000 0.97900  0.59330  0.47750  Biso   1.000  H
  H32      1.0000 0.52100  0.40670  0.97750  Biso   1.000  H
  C45      1.0000 0.18410  0.25900  0.04991  Biso   1.000  C
  C46      1.0000 0.31590  0.74100  0.54991  Biso   1.000  C
  C47      1.0000 0.81590  0.75900  0.45009  Biso   1.000  C
  C48      1.0000 0.68410  0.24100  0.95009  Biso   1.000  C
  H33      1.0000 0.08270  0.31630  0.03170  Biso   1.000  H
  H34      1.0000 0.41730  0.68370  0.53170  Biso   1.000  H
  H35      1.0000 0.91730  0.81630  0.46830  Biso   1.000  H
  H36      1.0000 0.58270  0.18370  0.96830  Biso   1.000  H
  C49      1.0000 0.90300  0.59130  0.05257  Biso   1.000  C
  C50      1.0000 0.59700  0.40870  0.55257  Biso   1.000  C
  C51      1.0000 0.09700  0.09130  0.44743  Biso   1.000  C
  C52      1.0000 0.40300  0.90870  0.94743  Biso   1.000  C
  C53      1.0000 0.47180  0.54650  0.22029  Biso   1.000  C
  C54      1.0000 0.02820  0.45350  0.72029  Biso   1.000  C
  C55      1.0000 0.52820  0.04650  0.27971  Biso   1.000  C
  C56      1.0000 0.97180  0.95350  0.77971  Biso   1.000  C
