data_image0
_cell_length_a       4.1288
_cell_length_b       26.758
_cell_length_c       9.862
_cell_angle_alpha    90
_cell_angle_beta     95.177
_cell_angle_gamma    90

_symmetry_space_group_name_H-M    "P 1"
_symmetry_int_tables_number       1

loop_
  _symmetry_equiv_pos_as_xyz
  'x, y, z'

loop_
  _atom_site_label
  _atom_site_occupancy
  _atom_site_fract_x
  _atom_site_fract_y
  _atom_site_fract_z
  _atom_site_thermal_displace_type
  _atom_site_B_iso_or_equiv
  _atom_site_type_symbol
  I1       1.0000 0.22700  0.44467  0.86611  Biso   1.000  I
  I2       1.0000 0.77300  0.94467  0.63389  Biso   1.000  I
  I3       1.0000 0.77300  0.55533  0.13389  Biso   1.000  I
  I4       1.0000 0.22700  0.05533  0.36611  Biso   1.000  I
  Cu1      1.0000 0.25992  0.49418  0.10460  Biso   1.000  Cu
  Cu2      1.0000 0.74008  0.99418  0.39540  Biso   1.000  Cu
  Cu3      1.0000 0.74008  0.50582  0.89540  Biso   1.000  Cu
  Cu4      1.0000 0.25992  0.00582  0.60460  Biso   1.000  Cu
  C1       1.0000 0.22350  0.39460  0.23340  Biso   1.000  C
  C2       1.0000 0.77650  0.89460  0.26660  Biso   1.000  C
  C3       1.0000 0.77650  0.60540  0.76660  Biso   1.000  C
  C4       1.0000 0.22350  0.10540  0.73340  Biso   1.000  C
  H1       1.0000 0.08200  0.38820  0.15650  Biso   1.000  H
  H2       1.0000 0.91800  0.88820  0.34350  Biso   1.000  H
  H3       1.0000 0.91800  0.61180  0.84350  Biso   1.000  H
  H4       1.0000 0.08200  0.11180  0.65650  Biso   1.000  H
  N1       1.0000 0.33250  0.44099  0.25350  Biso   1.000  N
  N2       1.0000 0.66750  0.94099  0.24650  Biso   1.000  N
  N3       1.0000 0.66750  0.55901  0.74650  Biso   1.000  N
  N4       1.0000 0.33250  0.05901  0.75350  Biso   1.000  N
  C5       1.0000 0.51830  0.36382  0.43660  Biso   1.000  C
  C6       1.0000 0.48170  0.86382  0.06340  Biso   1.000  C
  C7       1.0000 0.48170  0.63618  0.56340  Biso   1.000  C
  C8       1.0000 0.51830  0.13618  0.93660  Biso   1.000  C
  C9       1.0000 0.30920  0.35530  0.32070  Biso   1.000  C
  C10      1.0000 0.69080  0.85530  0.17930  Biso   1.000  C
  C11      1.0000 0.69080  0.64470  0.67930  Biso   1.000  C
  C12      1.0000 0.30920  0.14470  0.82070  Biso   1.000  C
  H5       1.0000 0.22720  0.32350  0.30180  Biso   1.000  H
  H6       1.0000 0.77280  0.82350  0.19820  Biso   1.000  H
  H7       1.0000 0.77280  0.67650  0.69820  Biso   1.000  H
  H8       1.0000 0.22720  0.17650  0.80180  Biso   1.000  H
  C13      1.0000 0.61860  0.41250  0.46100  Biso   1.000  C
  C14      1.0000 0.38140  0.91250  0.03900  Biso   1.000  C
  C15      1.0000 0.38140  0.58750  0.53900  Biso   1.000  C
  C16      1.0000 0.61860  0.08750  0.96100  Biso   1.000  C
  H9       1.0000 0.74800  0.42030  0.54030  Biso   1.000  H
  H10      1.0000 0.25200  0.92030  0.95970  Biso   1.000  H
  H11      1.0000 0.25200  0.57970  0.45970  Biso   1.000  H
  H12      1.0000 0.74800  0.07970  0.04030  Biso   1.000  H
  C17      1.0000 0.52800  0.44946  0.36870  Biso   1.000  C
  C18      1.0000 0.47200  0.94946  0.13130  Biso   1.000  C
  C19      1.0000 0.47200  0.55054  0.63130  Biso   1.000  C
  C20      1.0000 0.52800  0.05054  0.86870  Biso   1.000  C
  H13      1.0000 0.60450  0.48170  0.38620  Biso   1.000  H
  H14      1.0000 0.39550  0.98170  0.11380  Biso   1.000  H
  H15      1.0000 0.39550  0.51830  0.61380  Biso   1.000  H
  H16      1.0000 0.60450  0.01830  0.88620  Biso   1.000  H
  N5       1.0000 0.55260  0.27540  0.47830  Biso   1.000  N
  N6       1.0000 0.44740  0.77540  0.02170  Biso   1.000  N
  N7       1.0000 0.44740  0.72460  0.52170  Biso   1.000  N
  N8       1.0000 0.55260  0.22460  0.97830  Biso   1.000  N
  C21      1.0000 0.83510  0.32720  0.64200  Biso   1.000  C
  C22      1.0000 0.16490  0.82720  0.85800  Biso   1.000  C
  C23      1.0000 0.16490  0.67280  0.35800  Biso   1.000  C
  C24      1.0000 0.83510  0.17280  0.14200  Biso   1.000  C
  H17      1.0000 0.89200  0.35890  0.67540  Biso   1.000  H
  H18      1.0000 0.10800  0.85890  0.82460  Biso   1.000  H
  H19      1.0000 0.10800  0.64110  0.32460  Biso   1.000  H
  H20      1.0000 0.89200  0.14110  0.17540  Biso   1.000  H
  C25      1.0000 0.63650  0.32136  0.52310  Biso   1.000  C
  C26      1.0000 0.36350  0.82136  0.97690  Biso   1.000  C
  C27      1.0000 0.36350  0.67864  0.47690  Biso   1.000  C
  C28      1.0000 0.63650  0.17864  0.02310  Biso   1.000  C
  S1       1.0000 0.56860  0.17843  0.49407  Biso   1.000  S
  S2       1.0000 0.43140  0.67843  0.00593  Biso   1.000  S
  S3       1.0000 0.43140  0.82157  0.50593  Biso   1.000  S
  S4       1.0000 0.56860  0.32157  0.99407  Biso   1.000  S
  N9       1.0000 0.87260  0.23850  0.66500  Biso   1.000  N
  N10      1.0000 0.12740  0.73850  0.83500  Biso   1.000  N
  N11      1.0000 0.12740  0.76150  0.33500  Biso   1.000  N
  N12      1.0000 0.87260  0.26150  0.16500  Biso   1.000  N
  C29      1.0000 0.67650  0.23770  0.55300  Biso   1.000  C
  C30      1.0000 0.32350  0.73770  0.94700  Biso   1.000  C
  C31      1.0000 0.32350  0.76230  0.44700  Biso   1.000  C
  C32      1.0000 0.67650  0.26230  0.05300  Biso   1.000  C
  C33      1.0000 0.94720  0.28450  0.71030  Biso   1.000  C
  C34      1.0000 0.05280  0.78450  0.78970  Biso   1.000  C
  C35      1.0000 0.05280  0.71550  0.28970  Biso   1.000  C
  C36      1.0000 0.94720  0.21550  0.21030  Biso   1.000  C
  H21      1.0000 0.08000  0.28790  0.79100  Biso   1.000  H
  H22      1.0000 0.92000  0.78790  0.70900  Biso   1.000  H
  H23      1.0000 0.92000  0.71210  0.20900  Biso   1.000  H
  H24      1.0000 0.08000  0.21210  0.29100  Biso   1.000  H
  H25      1.0000 0.55220  0.17830  0.40810  Biso   1.000  H
  H26      1.0000 0.44780  0.67830  0.09190  Biso   1.000  H
  H27      1.0000 0.44780  0.82170  0.59190  Biso   1.000  H
  H28      1.0000 0.55220  0.32170  0.90810  Biso   1.000  H
