data_image0
_cell_length_a       9.073
_cell_length_b       9.073
_cell_length_c       7.607
_cell_angle_alpha    90
_cell_angle_beta     90
_cell_angle_gamma    120

_symmetry_space_group_name_H-M    "P 1"
_symmetry_int_tables_number       1

loop_
  _symmetry_equiv_pos_as_xyz
  'x, y, z'

loop_
  _atom_site_label
  _atom_site_occupancy
  _atom_site_fract_x
  _atom_site_fract_y
  _atom_site_fract_z
  _atom_site_thermal_displace_type
  _atom_site_B_iso_or_equiv
  _atom_site_type_symbol
  Cd1      1.0000 0.33330  0.66670  0.25000  Biso   1.000  Cd
  Cd2      1.0000 0.66660  0.33330  0.75000  Biso   1.000  Cd
  Cu1      1.0000 0.00000  0.00000  0.25000  Biso   1.000  Cu
  Cu2      1.0000 0.00000  0.00000  0.75000  Biso   1.000  Cu
  N1       1.0000 0.19540  0.39080  0.25000  Biso   1.000  N
  N2       1.0000 0.80460  0.19540  0.75000  Biso   1.000  N
  N3       1.0000 0.60920  0.80460  0.25000  Biso   1.000  N
  N4       1.0000 0.39080  0.19540  0.75000  Biso   1.000  N
  N5       1.0000 0.19540  0.80460  0.25000  Biso   1.000  N
  N6       1.0000 0.80460  0.60920  0.75000  Biso   1.000  N
  C1       1.0000 0.12320  0.24640  0.25000  Biso   1.000  C
  C2       1.0000 0.87680  0.12320  0.75000  Biso   1.000  C
  C3       1.0000 0.75360  0.87680  0.25000  Biso   1.000  C
  C4       1.0000 0.24640  0.12320  0.75000  Biso   1.000  C
  C5       1.0000 0.12320  0.87680  0.25000  Biso   1.000  C
  C6       1.0000 0.87680  0.75360  0.75000  Biso   1.000  C
  O1       1.0000 0.33330  0.66670  0.56970  Biso   1.000  O
  O2       1.0000 0.66660  0.33330  0.06970  Biso   1.000  O
  O3       1.0000 0.66670  0.33330  0.43030  Biso   1.000  O
  O4       1.0000 0.33330  0.66660  0.93030  Biso   1.000  O
  C7       1.0000 0.25550  0.51100  0.66200  Biso   1.000  C
  C8       1.0000 0.74450  0.25550  0.16200  Biso   1.000  C
  C9       1.0000 0.48900  0.74450  0.66200  Biso   1.000  C
  C10      1.0000 0.51100  0.25550  0.33800  Biso   1.000  C
  C11      1.0000 0.25550  0.74450  0.83800  Biso   1.000  C
  C12      1.0000 0.25550  0.74450  0.66200  Biso   1.000  C
  C13      1.0000 0.51100  0.25550  0.16200  Biso   1.000  C
  C14      1.0000 0.25550  0.51100  0.83800  Biso   1.000  C
  C15      1.0000 0.74450  0.25550  0.33800  Biso   1.000  C
  C16      1.0000 0.74450  0.48900  0.16200  Biso   1.000  C
  C17      1.0000 0.48900  0.74450  0.83800  Biso   1.000  C
  C18      1.0000 0.74450  0.48900  0.33800  Biso   1.000  C
  C19      1.0000 0.19200  0.59580  0.65700  Biso   1.000  C
  C20      1.0000 0.59620  0.19200  0.15700  Biso   1.000  C
  C21      1.0000 0.40420  0.59620  0.65700  Biso   1.000  C
  C22      1.0000 0.59580  0.19200  0.34300  Biso   1.000  C
  C23      1.0000 0.19200  0.59620  0.84300  Biso   1.000  C
  C24      1.0000 0.40380  0.80800  0.65700  Biso   1.000  C
  C25      1.0000 0.59580  0.40380  0.15700  Biso   1.000  C
  C26      1.0000 0.40380  0.59580  0.84300  Biso   1.000  C
  C27      1.0000 0.80800  0.40380  0.34300  Biso   1.000  C
  C28      1.0000 0.80800  0.40420  0.15700  Biso   1.000  C
  C29      1.0000 0.40420  0.80800  0.84300  Biso   1.000  C
  C30      1.0000 0.59620  0.40420  0.34300  Biso   1.000  C
  H1       1.0000 0.33610  0.47080  0.69780  Biso   1.000  H
  H2       1.0000 0.86530  0.33610  0.19780  Biso   1.000  H
  H3       1.0000 0.52920  0.86530  0.69780  Biso   1.000  H
  H4       1.0000 0.47080  0.33610  0.30220  Biso   1.000  H
  H5       1.0000 0.33610  0.86530  0.80220  Biso   1.000  H
  H6       1.0000 0.13470  0.66390  0.69780  Biso   1.000  H
  H7       1.0000 0.47080  0.13470  0.19780  Biso   1.000  H
  H8       1.0000 0.13470  0.47080  0.80220  Biso   1.000  H
  H9       1.0000 0.66390  0.13470  0.30220  Biso   1.000  H
  H10      1.0000 0.66390  0.52920  0.19780  Biso   1.000  H
  H11      1.0000 0.52920  0.66390  0.80220  Biso   1.000  H
  H12      1.0000 0.86530  0.52920  0.30220  Biso   1.000  H
  H13      1.0000 0.66390  0.52920  0.30220  Biso   1.000  H
  H14      1.0000 0.13470  0.66390  0.80220  Biso   1.000  H
  H15      1.0000 0.47080  0.13470  0.30220  Biso   1.000  H
  H16      1.0000 0.52920  0.66390  0.69780  Biso   1.000  H
  H17      1.0000 0.66390  0.13470  0.19780  Biso   1.000  H
  H18      1.0000 0.86530  0.33610  0.30220  Biso   1.000  H
  H19      1.0000 0.52920  0.86530  0.80220  Biso   1.000  H
  H20      1.0000 0.86530  0.52920  0.19780  Biso   1.000  H
  H21      1.0000 0.33610  0.86530  0.69780  Biso   1.000  H
  H22      1.0000 0.33610  0.47080  0.80220  Biso   1.000  H
  H23      1.0000 0.47080  0.33610  0.19780  Biso   1.000  H
  H24      1.0000 0.13470  0.47080  0.69780  Biso   1.000  H
  H25      1.0000 0.15700  0.41570  0.59840  Biso   1.000  H
  H26      1.0000 0.74130  0.15700  0.09840  Biso   1.000  H
  H27      1.0000 0.58430  0.74130  0.59840  Biso   1.000  H
  H28      1.0000 0.41570  0.15700  0.40160  Biso   1.000  H
  H29      1.0000 0.15700  0.74130  0.90160  Biso   1.000  H
  H30      1.0000 0.25870  0.84300  0.59840  Biso   1.000  H
  H31      1.0000 0.41570  0.25870  0.09840  Biso   1.000  H
  H32      1.0000 0.25870  0.41570  0.90160  Biso   1.000  H
  H33      1.0000 0.84300  0.25870  0.40160  Biso   1.000  H
  H34      1.0000 0.84300  0.58430  0.09840  Biso   1.000  H
  H35      1.0000 0.58430  0.84300  0.90160  Biso   1.000  H
  H36      1.0000 0.74130  0.58430  0.40160  Biso   1.000  H
  H37      1.0000 0.84300  0.58430  0.40160  Biso   1.000  H
  H38      1.0000 0.25870  0.84300  0.90160  Biso   1.000  H
  H39      1.0000 0.41570  0.25870  0.40160  Biso   1.000  H
  H40      1.0000 0.58430  0.84300  0.59840  Biso   1.000  H
  H41      1.0000 0.84300  0.25870  0.09840  Biso   1.000  H
  H42      1.0000 0.74130  0.15700  0.40160  Biso   1.000  H
  H43      1.0000 0.58430  0.74130  0.90160  Biso   1.000  H
  H44      1.0000 0.74130  0.58430  0.09840  Biso   1.000  H
  H45      1.0000 0.15700  0.74130  0.59840  Biso   1.000  H
  H46      1.0000 0.15700  0.41570  0.90160  Biso   1.000  H
  H47      1.0000 0.41570  0.15700  0.09840  Biso   1.000  H
  H48      1.0000 0.25870  0.41570  0.59840  Biso   1.000  H
  H49      1.0000 0.09530  0.50470  0.91220  Biso   1.000  H
  H50      1.0000 0.59060  0.09530  0.41220  Biso   1.000  H
  H51      1.0000 0.49530  0.59060  0.91220  Biso   1.000  H
  H52      1.0000 0.50470  0.09530  0.08780  Biso   1.000  H
  H53      1.0000 0.09530  0.59060  0.58780  Biso   1.000  H
  H54      1.0000 0.40940  0.90470  0.91220  Biso   1.000  H
  H55      1.0000 0.50470  0.40940  0.41220  Biso   1.000  H
  H56      1.0000 0.40940  0.50470  0.58780  Biso   1.000  H
  H57      1.0000 0.90470  0.40940  0.08780  Biso   1.000  H
  H58      1.0000 0.90470  0.49530  0.41220  Biso   1.000  H
  H59      1.0000 0.49530  0.90470  0.58780  Biso   1.000  H
  H60      1.0000 0.59060  0.49530  0.08780  Biso   1.000  H
  H61      1.0000 0.90470  0.49530  0.08780  Biso   1.000  H
  H62      1.0000 0.40940  0.90470  0.58780  Biso   1.000  H
  H63      1.0000 0.50470  0.40940  0.08780  Biso   1.000  H
  H64      1.0000 0.49530  0.90470  0.91220  Biso   1.000  H
  H65      1.0000 0.90470  0.40940  0.41220  Biso   1.000  H
  H66      1.0000 0.59060  0.09530  0.08780  Biso   1.000  H
  H67      1.0000 0.49530  0.59060  0.58780  Biso   1.000  H
  H68      1.0000 0.59060  0.49530  0.41220  Biso   1.000  H
  H69      1.0000 0.09530  0.59060  0.91220  Biso   1.000  H
  H70      1.0000 0.09530  0.50470  0.58780  Biso   1.000  H
  H71      1.0000 0.50470  0.09530  0.41220  Biso   1.000  H
  H72      1.0000 0.40940  0.50470  0.91220  Biso   1.000  H
  H73      1.0000 0.15850  0.68020  0.80250  Biso   1.000  H
  H74      1.0000 0.47830  0.15850  0.30250  Biso   1.000  H
  H75      1.0000 0.31980  0.47830  0.80250  Biso   1.000  H
  H76      1.0000 0.68020  0.15850  0.19750  Biso   1.000  H
  H77      1.0000 0.15850  0.47830  0.69750  Biso   1.000  H
  H78      1.0000 0.52170  0.84150  0.80250  Biso   1.000  H
  H79      1.0000 0.68020  0.52170  0.30250  Biso   1.000  H
  H80      1.0000 0.52170  0.68020  0.69750  Biso   1.000  H
  H81      1.0000 0.84150  0.52170  0.19750  Biso   1.000  H
  H82      1.0000 0.84150  0.31980  0.30250  Biso   1.000  H
  H83      1.0000 0.31980  0.84150  0.69750  Biso   1.000  H
  H84      1.0000 0.47830  0.31980  0.19750  Biso   1.000  H
  H85      1.0000 0.84150  0.31980  0.19750  Biso   1.000  H
  H86      1.0000 0.52170  0.84150  0.69750  Biso   1.000  H
  H87      1.0000 0.68020  0.52170  0.19750  Biso   1.000  H
  H88      1.0000 0.31980  0.84150  0.80250  Biso   1.000  H
  H89      1.0000 0.84150  0.52170  0.30250  Biso   1.000  H
  H90      1.0000 0.47830  0.15850  0.19750  Biso   1.000  H
  H91      1.0000 0.31980  0.47830  0.69750  Biso   1.000  H
  H92      1.0000 0.47830  0.31980  0.30250  Biso   1.000  H
  H93      1.0000 0.15850  0.47830  0.80250  Biso   1.000  H
  H94      1.0000 0.15850  0.68020  0.69750  Biso   1.000  H
  H95      1.0000 0.68020  0.15850  0.30250  Biso   1.000  H
  H96      1.0000 0.52170  0.68020  0.80250  Biso   1.000  H
