data_image0
_cell_length_a       9.8505
_cell_length_b       12.8482
_cell_length_c       13.5837
_cell_angle_alpha    90
_cell_angle_beta     103.152
_cell_angle_gamma    90

_symmetry_space_group_name_H-M    "P 1"
_symmetry_int_tables_number       1

loop_
  _symmetry_equiv_pos_as_xyz
  'x, y, z'

loop_
  _atom_site_label
  _atom_site_occupancy
  _atom_site_fract_x
  _atom_site_fract_y
  _atom_site_fract_z
  _atom_site_thermal_displace_type
  _atom_site_B_iso_or_equiv
  _atom_site_type_symbol
  Cu1      1.0000 0.78423  0.19359  0.58403  Biso   1.000  Cu
  Cu2      1.0000 0.71577  0.69359  0.91597  Biso   1.000  Cu
  Cu3      1.0000 0.21577  0.80641  0.41597  Biso   1.000  Cu
  Cu4      1.0000 0.28423  0.30641  0.08403  Biso   1.000  Cu
  Cu5      1.0000 0.88771  0.98359  0.55221  Biso   1.000  Cu
  Cu6      1.0000 0.61229  0.48359  0.94779  Biso   1.000  Cu
  Cu7      1.0000 0.11229  0.01641  0.44779  Biso   1.000  Cu
  Cu8      1.0000 0.38771  0.51641  0.05221  Biso   1.000  Cu
  I1       1.0000 0.88785  0.13798  0.42063  Biso   1.000  I
  I2       1.0000 0.61215  0.63798  0.07937  Biso   1.000  I
  I3       1.0000 0.11215  0.86202  0.57937  Biso   1.000  I
  I4       1.0000 0.38785  0.36202  0.92063  Biso   1.000  I
  I5       1.0000 0.89744  0.06902  0.73465  Biso   1.000  I
  I6       1.0000 0.60256  0.56902  0.76535  Biso   1.000  I
  I7       1.0000 0.10256  0.93098  0.26535  Biso   1.000  I
  I8       1.0000 0.39744  0.43098  0.23465  Biso   1.000  I
  N1       1.0000 0.86490  0.34040  0.61330  Biso   1.000  N
  N2       1.0000 0.63510  0.84040  0.88670  Biso   1.000  N
  N3       1.0000 0.13510  0.65960  0.38670  Biso   1.000  N
  N4       1.0000 0.36490  0.15960  0.11330  Biso   1.000  N
  C1       1.0000 0.81040  0.42650  0.56190  Biso   1.000  C
  C2       1.0000 0.68960  0.92650  0.93810  Biso   1.000  C
  C3       1.0000 0.18960  0.57350  0.43810  Biso   1.000  C
  C4       1.0000 0.31040  0.07350  0.06190  Biso   1.000  C
  C5       1.0000 0.87860  0.52280  0.58190  Biso   1.000  C
  C6       1.0000 0.62140  0.02280  0.91810  Biso   1.000  C
  C7       1.0000 0.12140  0.47720  0.41810  Biso   1.000  C
  C8       1.0000 0.37860  0.97720  0.08190  Biso   1.000  C
  N5       1.0000 0.00130  0.53150  0.64740  Biso   1.000  N
  N6       1.0000 0.49870  0.03150  0.85260  Biso   1.000  N
  N7       1.0000 0.99870  0.46850  0.35260  Biso   1.000  N
  N8       1.0000 0.50130  0.96850  0.14740  Biso   1.000  N
  C9       1.0000 0.05390  0.44400  0.69700  Biso   1.000  C
  C10      1.0000 0.44610  0.94400  0.80300  Biso   1.000  C
  C11      1.0000 0.94610  0.55600  0.30300  Biso   1.000  C
  C12      1.0000 0.55390  0.05600  0.19700  Biso   1.000  C
  H1       1.0000 0.14030  0.44750  0.74380  Biso   1.000  H
  H2       1.0000 0.35970  0.94750  0.75620  Biso   1.000  H
  H3       1.0000 0.85970  0.55250  0.25620  Biso   1.000  H
  H4       1.0000 0.64030  0.05250  0.24380  Biso   1.000  H
  C13      1.0000 0.98630  0.35140  0.68140  Biso   1.000  C
  C14      1.0000 0.51370  0.85140  0.81860  Biso   1.000  C
  C15      1.0000 0.01370  0.64860  0.31860  Biso   1.000  C
  C16      1.0000 0.48630  0.14860  0.18140  Biso   1.000  C
  H5       1.0000 0.02560  0.29320  0.71940  Biso   1.000  H
  H6       1.0000 0.47440  0.79320  0.78060  Biso   1.000  H
  H7       1.0000 0.97440  0.70680  0.28060  Biso   1.000  H
  H8       1.0000 0.52560  0.20680  0.21940  Biso   1.000  H
  C17      1.0000 0.67740  0.41640  0.48440  Biso   1.000  C
  C18      1.0000 0.82260  0.91640  0.01560  Biso   1.000  C
  C19      1.0000 0.32260  0.58360  0.51560  Biso   1.000  C
  C20      1.0000 0.17740  0.08360  0.98440  Biso   1.000  C
  H9       1.0000 0.69460  0.42820  0.41780  Biso   1.000  H
  H10      1.0000 0.80540  0.92820  0.08220  Biso   1.000  H
  H11      1.0000 0.30540  0.57180  0.58220  Biso   1.000  H
  H12      1.0000 0.19460  0.07180  0.91780  Biso   1.000  H
  H13      1.0000 0.61100  0.46740  0.49750  Biso   1.000  H
  H14      1.0000 0.88900  0.96740  0.00250  Biso   1.000  H
  H15      1.0000 0.38900  0.53260  0.50250  Biso   1.000  H
  H16      1.0000 0.11100  0.03260  0.99750  Biso   1.000  H
  H17      1.0000 0.63980  0.34700  0.48740  Biso   1.000  H
  H18      1.0000 0.86020  0.84700  0.01260  Biso   1.000  H
  H19      1.0000 0.36020  0.65300  0.51260  Biso   1.000  H
  H20      1.0000 0.13980  0.15300  0.98740  Biso   1.000  H
  C21      1.0000 0.81720  0.62080  0.53070  Biso   1.000  C
  C22      1.0000 0.68280  0.12080  0.96930  Biso   1.000  C
  C23      1.0000 0.18280  0.37920  0.46930  Biso   1.000  C
  C24      1.0000 0.31720  0.87920  0.03070  Biso   1.000  C
  H21      1.0000 0.88410  0.67700  0.54790  Biso   1.000  H
  H22      1.0000 0.61590  0.17700  0.95210  Biso   1.000  H
  H23      1.0000 0.11590  0.32300  0.45210  Biso   1.000  H
  H24      1.0000 0.38410  0.82300  0.04790  Biso   1.000  H
  H25      1.0000 0.73320  0.63830  0.55300  Biso   1.000  H
  H26      1.0000 0.76680  0.13830  0.94700  Biso   1.000  H
  H27      1.0000 0.26680  0.36170  0.44700  Biso   1.000  H
  H28      1.0000 0.23320  0.86170  0.05300  Biso   1.000  H
  H29      1.0000 0.79440  0.61050  0.45810  Biso   1.000  H
  H30      1.0000 0.70560  0.11050  0.04190  Biso   1.000  H
  H31      1.0000 0.20560  0.38950  0.54190  Biso   1.000  H
  H32      1.0000 0.29440  0.88950  0.95810  Biso   1.000  H
  N9       1.0000 0.57190  0.16990  0.54060  Biso   1.000  N
  N10      1.0000 0.92810  0.66990  0.95940  Biso   1.000  N
  N11      1.0000 0.42810  0.83010  0.45940  Biso   1.000  N
  N12      1.0000 0.07190  0.33010  0.04060  Biso   1.000  N
  C25      1.0000 0.48560  0.18530  0.60340  Biso   1.000  C
  C26      1.0000 0.01440  0.68530  0.89660  Biso   1.000  C
  C27      1.0000 0.51440  0.81470  0.39660  Biso   1.000  C
  C28      1.0000 0.98560  0.31470  0.10340  Biso   1.000  C
  C29      1.0000 0.34780  0.14730  0.57680  Biso   1.000  C
  C30      1.0000 0.15220  0.64730  0.92320  Biso   1.000  C
  C31      1.0000 0.65220  0.85270  0.42320  Biso   1.000  C
  C32      1.0000 0.84780  0.35270  0.07680  Biso   1.000  C
  N13      1.0000 0.29800  0.09950  0.48760  Biso   1.000  N
  N14      1.0000 0.20200  0.59950  0.01240  Biso   1.000  N
  N15      1.0000 0.70200  0.90050  0.51240  Biso   1.000  N
  N16      1.0000 0.79800  0.40050  0.98760  Biso   1.000  N
  C33      1.0000 0.38250  0.09280  0.42370  Biso   1.000  C
  C34      1.0000 0.11750  0.59280  0.07630  Biso   1.000  C
  C35      1.0000 0.61750  0.90720  0.57630  Biso   1.000  C
  C36      1.0000 0.88250  0.40720  0.92370  Biso   1.000  C
  H33      1.0000 0.34820  0.06460  0.35900  Biso   1.000  H
  H34      1.0000 0.15180  0.56460  0.14100  Biso   1.000  H
  H35      1.0000 0.65180  0.93540  0.64100  Biso   1.000  H
  H36      1.0000 0.84820  0.43540  0.85900  Biso   1.000  H
  C37      1.0000 0.51850  0.12620  0.45030  Biso   1.000  C
  C38      1.0000 0.98150  0.62620  0.04970  Biso   1.000  C
  C39      1.0000 0.48150  0.87380  0.54970  Biso   1.000  C
  C40      1.0000 0.01850  0.37380  0.95030  Biso   1.000  C
  H37      1.0000 0.57570  0.11830  0.40410  Biso   1.000  H
  H38      1.0000 0.92430  0.61830  0.09590  Biso   1.000  H
  H39      1.0000 0.42430  0.88170  0.59590  Biso   1.000  H
  H40      1.0000 0.07570  0.38170  0.90410  Biso   1.000  H
  C41      1.0000 0.54110  0.24290  0.70100  Biso   1.000  C
  C42      1.0000 0.95890  0.74290  0.79900  Biso   1.000  C
  C43      1.0000 0.45890  0.75710  0.29900  Biso   1.000  C
  C44      1.0000 0.04110  0.25710  0.20100  Biso   1.000  C
  H41      1.0000 0.48250  0.30280  0.70460  Biso   1.000  H
  H42      1.0000 0.01750  0.80280  0.79540  Biso   1.000  H
  H43      1.0000 0.51750  0.69720  0.29540  Biso   1.000  H
  H44      1.0000 0.98250  0.19720  0.20460  Biso   1.000  H
  H45      1.0000 0.63560  0.26590  0.70360  Biso   1.000  H
  H46      1.0000 0.86440  0.76590  0.79640  Biso   1.000  H
  H47      1.0000 0.36440  0.73410  0.29640  Biso   1.000  H
  H48      1.0000 0.13560  0.23410  0.20360  Biso   1.000  H
  H49      1.0000 0.54080  0.19700  0.75770  Biso   1.000  H
  H50      1.0000 0.95920  0.69700  0.74230  Biso   1.000  H
  H51      1.0000 0.45920  0.80300  0.24230  Biso   1.000  H
  H52      1.0000 0.04080  0.30300  0.25770  Biso   1.000  H
  C45      1.0000 0.25150  0.16040  0.64810  Biso   1.000  C
  C46      1.0000 0.24850  0.66040  0.85190  Biso   1.000  C
  C47      1.0000 0.74850  0.83960  0.35190  Biso   1.000  C
  C48      1.0000 0.75150  0.33960  0.14810  Biso   1.000  C
  H53      1.0000 0.28320  0.11670  0.70710  Biso   1.000  H
  H54      1.0000 0.21680  0.61670  0.79290  Biso   1.000  H
  H55      1.0000 0.71680  0.88330  0.29290  Biso   1.000  H
  H56      1.0000 0.78320  0.38330  0.20710  Biso   1.000  H
  H57      1.0000 0.15760  0.14020  0.61400  Biso   1.000  H
  H58      1.0000 0.34240  0.64020  0.88600  Biso   1.000  H
  H59      1.0000 0.84240  0.85980  0.38600  Biso   1.000  H
  H60      1.0000 0.65760  0.35980  0.11400  Biso   1.000  H
  H61      1.0000 0.25170  0.23260  0.66900  Biso   1.000  H
  H62      1.0000 0.24830  0.73260  0.83100  Biso   1.000  H
  H63      1.0000 0.74830  0.76740  0.33100  Biso   1.000  H
  H64      1.0000 0.75170  0.26740  0.16900  Biso   1.000  H
