data_image0
_cell_length_a       14.2001
_cell_length_b       11.2746
_cell_length_c       14.3556
_cell_angle_alpha    90
_cell_angle_beta     101.345
_cell_angle_gamma    90

_symmetry_space_group_name_H-M    "P 1"
_symmetry_int_tables_number       1

loop_
  _symmetry_equiv_pos_as_xyz
  'x, y, z'

loop_
  _atom_site_label
  _atom_site_occupancy
  _atom_site_fract_x
  _atom_site_fract_y
  _atom_site_fract_z
  _atom_site_thermal_displace_type
  _atom_site_B_iso_or_equiv
  _atom_site_type_symbol
  Cu1      1.0000 0.07446  0.92475  0.54349  Biso   1.000  Cu
  Cu2      1.0000 0.92554  0.42475  0.95651  Biso   1.000  Cu
  Cu3      1.0000 0.92554  0.07525  0.45651  Biso   1.000  Cu
  Cu4      1.0000 0.07446  0.57525  0.04349  Biso   1.000  Cu
  I1       1.0000 0.90705  0.92531  0.59590  Biso   1.000  I
  I2       1.0000 0.09295  0.42531  0.90410  Biso   1.000  I
  I3       1.0000 0.09295  0.07469  0.40410  Biso   1.000  I
  I4       1.0000 0.90705  0.57469  0.09590  Biso   1.000  I
  Cu5      1.0000 0.45407  0.93004  0.92472  Biso   1.000  Cu
  Cu6      1.0000 0.54593  0.43004  0.57528  Biso   1.000  Cu
  Cu7      1.0000 0.54593  0.06996  0.07528  Biso   1.000  Cu
  Cu8      1.0000 0.45407  0.56996  0.42472  Biso   1.000  Cu
  I5       1.0000 0.59630  0.07883  0.90838  Biso   1.000  I
  I6       1.0000 0.40370  0.57883  0.59162  Biso   1.000  I
  I7       1.0000 0.40370  0.92117  0.09162  Biso   1.000  I
  I8       1.0000 0.59630  0.42117  0.40838  Biso   1.000  I
  N1       1.0000 0.19330  0.95390  0.65180  Biso   1.000  N
  N2       1.0000 0.80670  0.45390  0.84820  Biso   1.000  N
  N3       1.0000 0.80670  0.04610  0.34820  Biso   1.000  N
  N4       1.0000 0.19330  0.54610  0.15180  Biso   1.000  N
  C1       1.0000 0.20470  0.04320  0.71460  Biso   1.000  C
  C2       1.0000 0.79530  0.54320  0.78540  Biso   1.000  C
  C3       1.0000 0.79530  0.95680  0.28540  Biso   1.000  C
  C4       1.0000 0.20470  0.45680  0.21460  Biso   1.000  C
  C5       1.0000 0.28350  0.04500  0.79190  Biso   1.000  C
  C6       1.0000 0.71650  0.54500  0.70810  Biso   1.000  C
  C7       1.0000 0.71650  0.95500  0.20810  Biso   1.000  C
  C8       1.0000 0.28350  0.45500  0.29190  Biso   1.000  C
  N5       1.0000 0.34760  0.95610  0.80450  Biso   1.000  N
  N6       1.0000 0.65240  0.45610  0.69550  Biso   1.000  N
  N7       1.0000 0.65240  0.04390  0.19550  Biso   1.000  N
  N8       1.0000 0.34760  0.54390  0.30450  Biso   1.000  N
  C9       1.0000 0.33800  0.87090  0.73800  Biso   1.000  C
  C10      1.0000 0.66200  0.37090  0.76200  Biso   1.000  C
  C11      1.0000 0.66200  0.12910  0.26200  Biso   1.000  C
  C12      1.0000 0.33800  0.62910  0.23800  Biso   1.000  C
  H1       1.0000 0.38410  0.81030  0.74320  Biso   1.000  H
  H2       1.0000 0.61590  0.31030  0.75680  Biso   1.000  H
  H3       1.0000 0.61590  0.18970  0.25680  Biso   1.000  H
  H4       1.0000 0.38410  0.68970  0.24320  Biso   1.000  H
  C13      1.0000 0.26170  0.87110  0.66240  Biso   1.000  C
  C14      1.0000 0.73830  0.37110  0.83760  Biso   1.000  C
  C15      1.0000 0.73830  0.12890  0.33760  Biso   1.000  C
  C16      1.0000 0.26170  0.62890  0.16240  Biso   1.000  C
  H5       1.0000 0.25760  0.81070  0.61660  Biso   1.000  H
  H6       1.0000 0.74240  0.31070  0.88340  Biso   1.000  H
  H7       1.0000 0.74240  0.18930  0.38340  Biso   1.000  H
  H8       1.0000 0.25760  0.68930  0.11660  Biso   1.000  H
  C17      1.0000 0.13160  0.13890  0.70160  Biso   1.000  C
  C18      1.0000 0.86840  0.63890  0.79840  Biso   1.000  C
  C19      1.0000 0.86840  0.86110  0.29840  Biso   1.000  C
  C20      1.0000 0.13160  0.36110  0.20160  Biso   1.000  C
  H9       1.0000 0.16350  0.21540  0.71020  Biso   1.000  H
  H10      1.0000 0.83650  0.71540  0.78980  Biso   1.000  H
  H11      1.0000 0.83650  0.78460  0.28980  Biso   1.000  H
  H12      1.0000 0.16350  0.28460  0.21020  Biso   1.000  H
  H13      1.0000 0.09090  0.12980  0.74800  Biso   1.000  H
  H14      1.0000 0.90910  0.62980  0.75200  Biso   1.000  H
  H15      1.0000 0.90910  0.87020  0.25200  Biso   1.000  H
  H16      1.0000 0.09090  0.37020  0.24800  Biso   1.000  H
  H17      1.0000 0.09270  0.13420  0.63810  Biso   1.000  H
  H18      1.0000 0.90730  0.63420  0.86190  Biso   1.000  H
  H19      1.0000 0.90730  0.86580  0.36190  Biso   1.000  H
  H20      1.0000 0.09270  0.36580  0.13810  Biso   1.000  H
  C21      1.0000 0.29870  0.14290  0.86260  Biso   1.000  C
  C22      1.0000 0.70130  0.64290  0.63740  Biso   1.000  C
  C23      1.0000 0.70130  0.85710  0.13740  Biso   1.000  C
  C24      1.0000 0.29870  0.35710  0.36260  Biso   1.000  C
  H21      1.0000 0.25520  0.13330  0.90640  Biso   1.000  H
  H22      1.0000 0.74480  0.63330  0.59360  Biso   1.000  H
  H23      1.0000 0.74480  0.86670  0.09360  Biso   1.000  H
  H24      1.0000 0.25520  0.36670  0.40640  Biso   1.000  H
  H25      1.0000 0.28640  0.21840  0.83000  Biso   1.000  H
  H26      1.0000 0.71360  0.71840  0.67000  Biso   1.000  H
  H27      1.0000 0.71360  0.78160  0.17000  Biso   1.000  H
  H28      1.0000 0.28640  0.28160  0.33000  Biso   1.000  H
  H29      1.0000 0.36450  0.14100  0.89770  Biso   1.000  H
  H30      1.0000 0.63550  0.64100  0.60230  Biso   1.000  H
  H31      1.0000 0.63550  0.85900  0.10230  Biso   1.000  H
  H32      1.0000 0.36450  0.35900  0.39770  Biso   1.000  H
  N9       1.0000 0.09540  0.74840  0.49560  Biso   1.000  N
  N10      1.0000 0.90460  0.24840  0.00440  Biso   1.000  N
  N11      1.0000 0.90460  0.25160  0.50440  Biso   1.000  N
  N12      1.0000 0.09540  0.75160  0.99560  Biso   1.000  N
  C25      1.0000 0.10390  0.64890  0.54660  Biso   1.000  C
  C26      1.0000 0.89610  0.14890  0.95340  Biso   1.000  C
  C27      1.0000 0.89610  0.35110  0.45340  Biso   1.000  C
  C28      1.0000 0.10390  0.85110  0.04660  Biso   1.000  C
  C29      1.0000 0.11750  0.53790  0.50550  Biso   1.000  C
  C30      1.0000 0.88250  0.03790  0.99450  Biso   1.000  C
  C31      1.0000 0.88250  0.46210  0.49450  Biso   1.000  C
  C32      1.0000 0.11750  0.96210  0.00550  Biso   1.000  C
  N13      1.0000 0.11500  0.52780  0.41190  Biso   1.000  N
  N14      1.0000 0.88500  0.02780  0.08810  Biso   1.000  N
  N15      1.0000 0.88500  0.47220  0.58810  Biso   1.000  N
  N16      1.0000 0.11500  0.97220  0.91190  Biso   1.000  N
  C33      1.0000 0.10330  0.62850  0.36150  Biso   1.000  C
  C34      1.0000 0.89670  0.12850  0.13850  Biso   1.000  C
  C35      1.0000 0.89670  0.37150  0.63850  Biso   1.000  C
  C36      1.0000 0.10330  0.87150  0.86150  Biso   1.000  C
  H33      1.0000 0.10020  0.62430  0.29560  Biso   1.000  H
  H34      1.0000 0.89980  0.12430  0.20440  Biso   1.000  H
  H35      1.0000 0.89980  0.37570  0.70440  Biso   1.000  H
  H36      1.0000 0.10020  0.87570  0.79560  Biso   1.000  H
  C37      1.0000 0.09590  0.73730  0.40170  Biso   1.000  C
  C38      1.0000 0.90410  0.23730  0.09830  Biso   1.000  C
  C39      1.0000 0.90410  0.26270  0.59830  Biso   1.000  C
  C40      1.0000 0.09590  0.76270  0.90170  Biso   1.000  C
  H37      1.0000 0.09100  0.80560  0.36340  Biso   1.000  H
  H38      1.0000 0.90900  0.30560  0.13660  Biso   1.000  H
  H39      1.0000 0.90900  0.19440  0.63660  Biso   1.000  H
  H40      1.0000 0.09100  0.69440  0.86340  Biso   1.000  H
  C41      1.0000 0.09840  0.65610  0.65000  Biso   1.000  C
  C42      1.0000 0.90160  0.15610  0.85000  Biso   1.000  C
  C43      1.0000 0.90160  0.34390  0.35000  Biso   1.000  C
  C44      1.0000 0.09840  0.84390  0.15000  Biso   1.000  C
  H41      1.0000 0.16150  0.64200  0.68860  Biso   1.000  H
  H42      1.0000 0.83850  0.14200  0.81140  Biso   1.000  H
  H43      1.0000 0.83850  0.35800  0.31140  Biso   1.000  H
  H44      1.0000 0.16150  0.85800  0.18860  Biso   1.000  H
  H45      1.0000 0.05380  0.59680  0.66420  Biso   1.000  H
  H46      1.0000 0.94620  0.09680  0.83580  Biso   1.000  H
  H47      1.0000 0.94620  0.40320  0.33580  Biso   1.000  H
  H48      1.0000 0.05380  0.90320  0.16420  Biso   1.000  H
  H49      1.0000 0.07620  0.73440  0.66380  Biso   1.000  H
  H50      1.0000 0.92380  0.23440  0.83620  Biso   1.000  H
  H51      1.0000 0.92380  0.26560  0.33620  Biso   1.000  H
  H52      1.0000 0.07620  0.76560  0.16380  Biso   1.000  H
  C45      1.0000 0.13450  0.42590  0.56260  Biso   1.000  C
  C46      1.0000 0.86550  0.92590  0.93740  Biso   1.000  C
  C47      1.0000 0.86550  0.57410  0.43740  Biso   1.000  C
  C48      1.0000 0.13450  0.07410  0.06260  Biso   1.000  C
  H53      1.0000 0.12550  0.35810  0.52020  Biso   1.000  H
  H54      1.0000 0.87450  0.85810  0.97980  Biso   1.000  H
  H55      1.0000 0.87450  0.64190  0.47980  Biso   1.000  H
  H56      1.0000 0.12550  0.14190  0.02020  Biso   1.000  H
  H57      1.0000 0.08950  0.42150  0.60530  Biso   1.000  H
  H58      1.0000 0.91050  0.92150  0.89470  Biso   1.000  H
  H59      1.0000 0.91050  0.57850  0.39470  Biso   1.000  H
  H60      1.0000 0.08950  0.07850  0.10530  Biso   1.000  H
  H61      1.0000 0.19970  0.42570  0.59930  Biso   1.000  H
  H62      1.0000 0.80030  0.92570  0.90070  Biso   1.000  H
  H63      1.0000 0.80030  0.57430  0.40070  Biso   1.000  H
  H64      1.0000 0.19970  0.07430  0.09930  Biso   1.000  H
  N17      1.0000 0.50140  0.75360  0.90720  Biso   1.000  N
  N18      1.0000 0.49860  0.25360  0.59280  Biso   1.000  N
  N19      1.0000 0.49860  0.24640  0.09280  Biso   1.000  N
  N20      1.0000 0.50140  0.74640  0.40720  Biso   1.000  N
  C49      1.0000 0.44940  0.65430  0.89680  Biso   1.000  C
  C50      1.0000 0.55060  0.15430  0.60320  Biso   1.000  C
  C51      1.0000 0.55060  0.34570  0.10320  Biso   1.000  C
  C52      1.0000 0.44940  0.84570  0.39680  Biso   1.000  C
  C53      1.0000 0.49320  0.54320  0.88820  Biso   1.000  C
  C54      1.0000 0.50680  0.04320  0.61180  Biso   1.000  C
  C55      1.0000 0.50680  0.45680  0.11180  Biso   1.000  C
  C56      1.0000 0.49320  0.95680  0.38820  Biso   1.000  C
  N21      1.0000 0.58870  0.53400  0.90300  Biso   1.000  N
  N22      1.0000 0.41130  0.03400  0.59700  Biso   1.000  N
  N23      1.0000 0.41130  0.46600  0.09700  Biso   1.000  N
  N24      1.0000 0.58870  0.96600  0.40300  Biso   1.000  N
  C57      1.0000 0.63970  0.63290  0.91750  Biso   1.000  C
  C58      1.0000 0.36030  0.13290  0.58250  Biso   1.000  C
  C59      1.0000 0.36030  0.36710  0.08250  Biso   1.000  C
  C60      1.0000 0.63970  0.86710  0.41750  Biso   1.000  C
  H65      1.0000 0.70710  0.62780  0.92950  Biso   1.000  H
  H66      1.0000 0.29290  0.12780  0.57050  Biso   1.000  H
  H67      1.0000 0.29290  0.37220  0.07050  Biso   1.000  H
  H68      1.0000 0.70710  0.87220  0.42950  Biso   1.000  H
  C61      1.0000 0.59730  0.74320  0.91550  Biso   1.000  C
  C62      1.0000 0.40270  0.24320  0.58450  Biso   1.000  C
  C63      1.0000 0.40270  0.25680  0.08450  Biso   1.000  C
  C64      1.0000 0.59730  0.75680  0.41550  Biso   1.000  C
  H69      1.0000 0.63570  0.81180  0.92000  Biso   1.000  H
  H70      1.0000 0.36430  0.31180  0.58000  Biso   1.000  H
  H71      1.0000 0.36430  0.18820  0.08000  Biso   1.000  H
  H72      1.0000 0.63570  0.68820  0.42000  Biso   1.000  H
  C65      1.0000 0.34410  0.66220  0.89520  Biso   1.000  C
  C66      1.0000 0.65590  0.16220  0.60480  Biso   1.000  C
  C67      1.0000 0.65590  0.33780  0.10480  Biso   1.000  C
  C68      1.0000 0.34410  0.83780  0.39520  Biso   1.000  C
  H73      1.0000 0.32790  0.74260  0.91030  Biso   1.000  H
  H74      1.0000 0.67210  0.24260  0.58970  Biso   1.000  H
  H75      1.0000 0.67210  0.25740  0.08970  Biso   1.000  H
  H76      1.0000 0.32790  0.75740  0.41030  Biso   1.000  H
  H77      1.0000 0.32720  0.60800  0.94180  Biso   1.000  H
  H78      1.0000 0.67280  0.10800  0.55820  Biso   1.000  H
  H79      1.0000 0.67280  0.39200  0.05820  Biso   1.000  H
  H80      1.0000 0.32720  0.89200  0.44180  Biso   1.000  H
  H81      1.0000 0.30870  0.64120  0.83250  Biso   1.000  H
  H82      1.0000 0.69130  0.14120  0.66750  Biso   1.000  H
  H83      1.0000 0.69130  0.35880  0.16750  Biso   1.000  H
  H84      1.0000 0.30870  0.85880  0.33250  Biso   1.000  H
  C69      1.0000 0.43670  0.43300  0.86330  Biso   1.000  C
  C70      1.0000 0.56330  0.93300  0.63670  Biso   1.000  C
  C71      1.0000 0.56330  0.56700  0.13670  Biso   1.000  C
  C72      1.0000 0.43670  0.06700  0.36330  Biso   1.000  C
  H85      1.0000 0.41400  0.42960  0.79510  Biso   1.000  H
  H86      1.0000 0.58600  0.92960  0.70490  Biso   1.000  H
  H87      1.0000 0.58600  0.57040  0.20490  Biso   1.000  H
  H88      1.0000 0.41400  0.07040  0.29510  Biso   1.000  H
  H89      1.0000 0.38210  0.43290  0.89480  Biso   1.000  H
  H90      1.0000 0.61790  0.93290  0.60520  Biso   1.000  H
  H91      1.0000 0.61790  0.56710  0.10520  Biso   1.000  H
  H92      1.0000 0.38210  0.06710  0.39480  Biso   1.000  H
  H93      1.0000 0.47690  0.36470  0.88390  Biso   1.000  H
  H94      1.0000 0.52310  0.86470  0.61610  Biso   1.000  H
  H95      1.0000 0.52310  0.63530  0.11610  Biso   1.000  H
  H96      1.0000 0.47690  0.13530  0.38390  Biso   1.000  H
