data_image0
_cell_length_a       4.321
_cell_length_b       17.974
_cell_length_c       13.1672
_cell_angle_alpha    90
_cell_angle_beta     92.63
_cell_angle_gamma    90

_symmetry_space_group_name_H-M    "P 1"
_symmetry_int_tables_number       1

loop_
  _symmetry_equiv_pos_as_xyz
  'x, y, z'

loop_
  _atom_site_label
  _atom_site_occupancy
  _atom_site_fract_x
  _atom_site_fract_y
  _atom_site_fract_z
  _atom_site_thermal_displace_type
  _atom_site_B_iso_or_equiv
  _atom_site_type_symbol
  Cu1      1.0000 0.12580  0.44290  0.70781  Biso   1.000  Cu
  Cu2      1.0000 0.37420  0.94290  0.79219  Biso   1.000  Cu
  Cu3      1.0000 0.87420  0.55710  0.29219  Biso   1.000  Cu
  Cu4      1.0000 0.62580  0.05710  0.20781  Biso   1.000  Cu
  Cu5      1.0000 0.49080  0.32473  0.76654  Biso   1.000  Cu
  Cu6      1.0000 0.00920  0.82473  0.73346  Biso   1.000  Cu
  Cu7      1.0000 0.50920  0.67527  0.23346  Biso   1.000  Cu
  Cu8      1.0000 0.99080  0.17527  0.26654  Biso   1.000  Cu
  I1       1.0000 0.01450  0.36366  0.87544  Biso   1.000  I
  I2       1.0000 0.48550  0.86366  0.62456  Biso   1.000  I
  I3       1.0000 0.98550  0.63634  0.12456  Biso   1.000  I
  I4       1.0000 0.51450  0.13634  0.37544  Biso   1.000  I
  I5       1.0000 0.59272  0.40279  0.59915  Biso   1.000  I
  I6       1.0000 0.90728  0.90279  0.90085  Biso   1.000  I
  I7       1.0000 0.40728  0.59721  0.40085  Biso   1.000  I
  I8       1.0000 0.09272  0.09721  0.09915  Biso   1.000  I
  N1       1.0000 0.10950  0.55660  0.72350  Biso   1.000  N
  N2       1.0000 0.39050  0.05660  0.77650  Biso   1.000  N
  N3       1.0000 0.89050  0.44340  0.27650  Biso   1.000  N
  N4       1.0000 0.60950  0.94340  0.22350  Biso   1.000  N
  C1       1.0000 0.26060  0.59440  0.79830  Biso   1.000  C
  C2       1.0000 0.23940  0.09440  0.70170  Biso   1.000  C
  C3       1.0000 0.73940  0.40560  0.20170  Biso   1.000  C
  C4       1.0000 0.76060  0.90560  0.29830  Biso   1.000  C
  C5       1.0000 0.22800  0.67310  0.80480  Biso   1.000  C
  C6       1.0000 0.27200  0.17310  0.69520  Biso   1.000  C
  C7       1.0000 0.77200  0.32690  0.19520  Biso   1.000  C
  C8       1.0000 0.72800  0.82690  0.30480  Biso   1.000  C
  N5       1.0000 0.04620  0.71060  0.73700  Biso   1.000  N
  N6       1.0000 0.45380  0.21060  0.76300  Biso   1.000  N
  N7       1.0000 0.95380  0.28940  0.26300  Biso   1.000  N
  N8       1.0000 0.54620  0.78940  0.23700  Biso   1.000  N
  C9       1.0000 0.90360  0.67070  0.66220  Biso   1.000  C
  C10      1.0000 0.59640  0.17070  0.83780  Biso   1.000  C
  C11      1.0000 0.09640  0.32930  0.33780  Biso   1.000  C
  C12      1.0000 0.40360  0.82930  0.16220  Biso   1.000  C
  H1       1.0000 0.77850  0.69540  0.61370  Biso   1.000  H
  H2       1.0000 0.72150  0.19540  0.88630  Biso   1.000  H
  H3       1.0000 0.22150  0.30460  0.38630  Biso   1.000  H
  H4       1.0000 0.27850  0.80460  0.11370  Biso   1.000  H
  C13      1.0000 0.93620  0.59510  0.65500  Biso   1.000  C
  C14      1.0000 0.56380  0.09510  0.84500  Biso   1.000  C
  C15      1.0000 0.06380  0.40490  0.34500  Biso   1.000  C
  C16      1.0000 0.43620  0.90490  0.15500  Biso   1.000  C
  H5       1.0000 0.83550  0.56990  0.60130  Biso   1.000  H
  H6       1.0000 0.66450  0.06990  0.89870  Biso   1.000  H
  H7       1.0000 0.16450  0.43010  0.39870  Biso   1.000  H
  H8       1.0000 0.33550  0.93010  0.10130  Biso   1.000  H
  C17      1.0000 0.45530  0.55230  0.87550  Biso   1.000  C
  C18      1.0000 0.04470  0.05230  0.62450  Biso   1.000  C
  C19      1.0000 0.54470  0.44770  0.12450  Biso   1.000  C
  C20      1.0000 0.95530  0.94770  0.37550  Biso   1.000  C
  H9       1.0000 0.34910  0.54930  0.93790  Biso   1.000  H
  H10      1.0000 0.15090  0.04930  0.56210  Biso   1.000  H
  H11      1.0000 0.65090  0.45070  0.06210  Biso   1.000  H
  H12      1.0000 0.84910  0.95070  0.43790  Biso   1.000  H
  H13      1.0000 0.64940  0.57750  0.88760  Biso   1.000  H
  H14      1.0000 0.85060  0.07750  0.61240  Biso   1.000  H
  H15      1.0000 0.35060  0.42250  0.11240  Biso   1.000  H
  H16      1.0000 0.14940  0.92250  0.38760  Biso   1.000  H
  H17      1.0000 0.49230  0.50300  0.85070  Biso   1.000  H
  H18      1.0000 0.00770  0.00300  0.64930  Biso   1.000  H
  H19      1.0000 0.50770  0.49700  0.14930  Biso   1.000  H
  H20      1.0000 0.99230  0.99700  0.35070  Biso   1.000  H
  C21      1.0000 0.38890  0.71670  0.88750  Biso   1.000  C
  C22      1.0000 0.11110  0.21670  0.61250  Biso   1.000  C
  C23      1.0000 0.61110  0.28330  0.11250  Biso   1.000  C
  C24      1.0000 0.88890  0.78330  0.38750  Biso   1.000  C
  H21      1.0000 0.55300  0.74530  0.86000  Biso   1.000  H
  H22      1.0000 0.94700  0.24530  0.64000  Biso   1.000  H
  H23      1.0000 0.44700  0.25470  0.14000  Biso   1.000  H
  H24      1.0000 0.05300  0.75470  0.36000  Biso   1.000  H
  H25      1.0000 0.47390  0.68330  0.93850  Biso   1.000  H
  H26      1.0000 0.02610  0.18330  0.56150  Biso   1.000  H
  H27      1.0000 0.52610  0.31670  0.06150  Biso   1.000  H
  H28      1.0000 0.97390  0.81670  0.43850  Biso   1.000  H
  H29      1.0000 0.24380  0.74960  0.91750  Biso   1.000  H
  H30      1.0000 0.25620  0.24960  0.58250  Biso   1.000  H
  H31      1.0000 0.75620  0.25040  0.08250  Biso   1.000  H
  H32      1.0000 0.74380  0.75040  0.41750  Biso   1.000  H
