data_image0
_cell_length_a       7.6158
_cell_length_b       13.4743
_cell_length_c       18.232
_cell_angle_alpha    73.661
_cell_angle_beta     85.305
_cell_angle_gamma    75.06

_symmetry_space_group_name_H-M    "P 1"
_symmetry_int_tables_number       1

loop_
  _symmetry_equiv_pos_as_xyz
  'x, y, z'

loop_
  _atom_site_label
  _atom_site_occupancy
  _atom_site_fract_x
  _atom_site_fract_y
  _atom_site_fract_z
  _atom_site_thermal_displace_type
  _atom_site_B_iso_or_equiv
  _atom_site_type_symbol
  Cu1      1.0000 0.55441  0.54353  0.15692  Biso   1.000  Cu
  Cu2      1.0000 0.44559  0.45647  0.84308  Biso   1.000  Cu
  Cu3      1.0000 0.90924  0.01346  0.33792  Biso   1.000  Cu
  Cu4      1.0000 0.09076  0.98654  0.66208  Biso   1.000  Cu
  C1       1.0000 0.88230  0.78160  0.35790  Biso   1.000  C
  C2       1.0000 0.11770  0.21840  0.64210  Biso   1.000  C
  H1       1.0000 0.84510  0.78000  0.40800  Biso   1.000  H
  H2       1.0000 0.15490  0.22000  0.59200  Biso   1.000  H
  C3       1.0000 0.88690  0.69330  0.33200  Biso   1.000  C
  C4       1.0000 0.11310  0.30670  0.66800  Biso   1.000  C
  H3       1.0000 0.85440  0.63430  0.36500  Biso   1.000  H
  H4       1.0000 0.14560  0.36570  0.63500  Biso   1.000  H
  C5       1.0000 0.98390  0.77590  0.21810  Biso   1.000  C
  C6       1.0000 0.01610  0.22410  0.78190  Biso   1.000  C
  H5       1.0000 0.02140  0.77560  0.16830  Biso   1.000  H
  H6       1.0000 0.97860  0.22440  0.83170  Biso   1.000  H
  C7       1.0000 0.98210  0.86730  0.24130  Biso   1.000  C
  C8       1.0000 0.01790  0.13270  0.75870  Biso   1.000  C
  C9       1.0000 0.02940  0.96450  0.19090  Biso   1.000  C
  C10      1.0000 0.97060  0.03550  0.80910  Biso   1.000  C
  C11      1.0000 0.58480  0.77450  0.10440  Biso   1.000  C
  C12      1.0000 0.41520  0.22550  0.89560  Biso   1.000  C
  H7       1.0000 0.62190  0.76070  0.05760  Biso   1.000  H
  H8       1.0000 0.37810  0.23930  0.94240  Biso   1.000  H
  C13      1.0000 0.58270  0.87460  0.11350  Biso   1.000  C
  C14      1.0000 0.41730  0.12540  0.88650  Biso   1.000  C
  H9       1.0000 0.62360  0.92440  0.07410  Biso   1.000  H
  H10      1.0000 0.37640  0.07560  0.92590  Biso   1.000  H
  C15      1.0000 0.47000  0.82160  0.23240  Biso   1.000  C
  C16      1.0000 0.53000  0.17840  0.76760  Biso   1.000  C
  H11      1.0000 0.42720  0.83540  0.27870  Biso   1.000  H
  H12      1.0000 0.57280  0.16460  0.72130  Biso   1.000  H
  C17      1.0000 0.47560  0.72330  0.22370  Biso   1.000  C
  C18      1.0000 0.52440  0.27670  0.77630  Biso   1.000  C
  C19      1.0000 0.42390  0.63620  0.28780  Biso   1.000  C
  C20      1.0000 0.57610  0.36380  0.71220  Biso   1.000  C
  C21      1.0000 0.60590  0.20480  0.32660  Biso   1.000  C
  C22      1.0000 0.39410  0.79520  0.67340  Biso   1.000  C
  H13      1.0000 0.68380  0.22870  0.35040  Biso   1.000  H
  H14      1.0000 0.31620  0.77130  0.64960  Biso   1.000  H
  C23      1.0000 0.43900  0.27340  0.30200  Biso   1.000  C
  C24      1.0000 0.56100  0.72660  0.69800  Biso   1.000  C
  H15      1.0000 0.40860  0.34150  0.30910  Biso   1.000  H
  H16      1.0000 0.59140  0.65850  0.69090  Biso   1.000  H
  C25      1.0000 0.31970  0.24140  0.26750  Biso   1.000  C
  C26      1.0000 0.68030  0.75860  0.73250  Biso   1.000  C
  C27      1.0000 0.37260  0.13660  0.25940  Biso   1.000  C
  C28      1.0000 0.62740  0.86340  0.74060  Biso   1.000  C
  H17      1.0000 0.29500  0.10940  0.23810  Biso   1.000  H
  H18      1.0000 0.70500  0.89060  0.76190  Biso   1.000  H
  C29      1.0000 0.54130  0.07670  0.28380  Biso   1.000  C
  C30      1.0000 0.45870  0.92330  0.71620  Biso   1.000  C
  H19      1.0000 0.57630  0.00900  0.27600  Biso   1.000  H
  H20      1.0000 0.42370  0.99100  0.72400  Biso   1.000  H
  C31      1.0000 0.84810  0.34560  0.18340  Biso   1.000  C
  C32      1.0000 0.15190  0.65440  0.81660  Biso   1.000  C
  H21      1.0000 0.76880  0.31870  0.16280  Biso   1.000  H
  H22      1.0000 0.23120  0.68130  0.83720  Biso   1.000  H
  C33      1.0000 0.01450  0.27820  0.21040  Biso   1.000  C
  C34      1.0000 0.98550  0.72180  0.78960  Biso   1.000  C
  H23      1.0000 0.04200  0.20780  0.20800  Biso   1.000  H
  H24      1.0000 0.95800  0.79220  0.79200  Biso   1.000  H
  C35      1.0000 0.13960  0.31300  0.24070  Biso   1.000  C
  C36      1.0000 0.86040  0.68700  0.75930  Biso   1.000  C
  C37      1.0000 0.08550  0.41810  0.24410  Biso   1.000  C
  C38      1.0000 0.91450  0.58190  0.75590  Biso   1.000  C
  H25      1.0000 0.16140  0.44650  0.26530  Biso   1.000  H
  H26      1.0000 0.83860  0.55350  0.73470  Biso   1.000  H
  C39      1.0000 0.91910  0.47990  0.21580  Biso   1.000  C
  C40      1.0000 0.08090  0.52010  0.78420  Biso   1.000  C
  H27      1.0000 0.88890  0.55060  0.21760  Biso   1.000  H
  H28      1.0000 0.11110  0.44940  0.78240  Biso   1.000  H
  C41      1.0000 0.23320  0.60940  0.06330  Biso   1.000  C
  C42      1.0000 0.76680  0.39060  0.93670  Biso   1.000  C
  H29      1.0000 0.23650  0.67570  0.06810  Biso   1.000  H
  H30      1.0000 0.76350  0.32430  0.93190  Biso   1.000  H
  C43      1.0000 0.08800  0.60450  0.02600  Biso   1.000  C
  C44      1.0000 0.91200  0.39550  0.97400  Biso   1.000  C
  H31      1.0000 0.99700  0.66550  0.00660  Biso   1.000  H
  H32      1.0000 0.00300  0.33450  0.99340  Biso   1.000  H
  C45      1.0000 0.07980  0.50590  0.01780  Biso   1.000  C
  C46      1.0000 0.92020  0.49410  0.98220  Biso   1.000  C
  C47      1.0000 0.22180  0.41950  0.04770  Biso   1.000  C
  C48      1.0000 0.77820  0.58050  0.95230  Biso   1.000  C
  H33      1.0000 0.22130  0.35190  0.04460  Biso   1.000  H
  H34      1.0000 0.77870  0.64810  0.95540  Biso   1.000  H
  C49      1.0000 0.36350  0.43420  0.08210  Biso   1.000  C
  C50      1.0000 0.63650  0.56580  0.91790  Biso   1.000  C
  H35      1.0000 0.46080  0.37550  0.09870  Biso   1.000  H
  H36      1.0000 0.53920  0.62450  0.90130  Biso   1.000  H
  C51      1.0000 0.23930  0.91950  0.42650  Biso   1.000  C
  C52      1.0000 0.76070  0.08050  0.57350  Biso   1.000  C
  H37      1.0000 0.22730  0.85840  0.41520  Biso   1.000  H
  H38      1.0000 0.77270  0.14160  0.58480  Biso   1.000  H
  C53      1.0000 0.39260  0.91150  0.46450  Biso   1.000  C
  C54      1.0000 0.60740  0.08850  0.53550  Biso   1.000  C
  H39      1.0000 0.47980  0.84710  0.47820  Biso   1.000  H
  H40      1.0000 0.52020  0.15290  0.52180  Biso   1.000  H
  C55      1.0000 0.41560  0.00050  0.48200  Biso   1.000  C
  C56      1.0000 0.58440  0.99950  0.51800  Biso   1.000  C
  C57      1.0000 0.27580  0.09340  0.46060  Biso   1.000  C
  C58      1.0000 0.72420  0.90660  0.53940  Biso   1.000  C
  H41      1.0000 0.28480  0.15580  0.47080  Biso   1.000  H
  H42      1.0000 0.71520  0.84420  0.52920  Biso   1.000  H
  C59      1.0000 0.12730  0.09210  0.42510  Biso   1.000  C
  C60      1.0000 0.87270  0.90790  0.57490  Biso   1.000  C
  H43      1.0000 0.03380  0.15390  0.41430  Biso   1.000  H
  H44      1.0000 0.96620  0.84610  0.58570  Biso   1.000  H
  N1       1.0000 0.92920  0.86870  0.31390  Biso   1.000  N
  N2       1.0000 0.07080  0.13130  0.68610  Biso   1.000  N
  N3       1.0000 0.93690  0.69210  0.26110  Biso   1.000  N
  N4       1.0000 0.06310  0.30790  0.73890  Biso   1.000  N
  N5       1.0000 0.53680  0.69970  0.15890  Biso   1.000  N
  N6       1.0000 0.46320  0.30030  0.84110  Biso   1.000  N
  N7       1.0000 0.52190  0.89870  0.17880  Biso   1.000  N
  N8       1.0000 0.47810  0.10130  0.82120  Biso   1.000  N
  N9       1.0000 0.66120  0.10560  0.31780  Biso   1.000  N
  N10      1.0000 0.33880  0.89440  0.68220  Biso   1.000  N
  N11      1.0000 0.79680  0.44740  0.18590  Biso   1.000  N
  N12      1.0000 0.20320  0.55260  0.81410  Biso   1.000  N
  N13      1.0000 0.37160  0.52590  0.09340  Biso   1.000  N
  N14      1.0000 0.62840  0.47410  0.90660  Biso   1.000  N
  N15      1.0000 0.10500  0.00820  0.40420  Biso   1.000  N
  N16      1.0000 0.89500  0.99180  0.59580  Biso   1.000  N
  O1       1.0000 0.02000  0.04010  0.21880  Biso   1.000  O
  O2       1.0000 0.98000  0.95990  0.78120  Biso   1.000  O
  O3       1.0000 0.07850  0.96430  0.12350  Biso   1.000  O
  O4       1.0000 0.92150  0.03570  0.87650  Biso   1.000  O
  O5       1.0000 0.44230  0.54740  0.27580  Biso   1.000  O
  O6       1.0000 0.55770  0.45260  0.72420  Biso   1.000  O
  O7       1.0000 0.36210  0.66220  0.34710  Biso   1.000  O
  O8       1.0000 0.63790  0.33780  0.65290  Biso   1.000  O
  O9       1.0000 0.89090  0.13280  0.99090  Biso   1.000  O
  O10      1.0000 0.10910  0.86720  0.00910  Biso   1.000  O
  H45      1.0000 0.90160  0.10280  0.95510  Biso   1.000  H
  H46      1.0000 0.09840  0.89720  0.04490  Biso   1.000  H
  H47      1.0000 0.90480  0.08850  0.03490  Biso   1.000  H
  H48      1.0000 0.09520  0.91150  0.96510  Biso   1.000  H
  O11      1.0000 0.74180  0.85630  0.93250  Biso   1.000  O
  O12      1.0000 0.25820  0.14370  0.06750  Biso   1.000  O
  H49      1.0000 0.63820  0.84880  0.92450  Biso   1.000  H
  H50      1.0000 0.36180  0.15120  0.07550  Biso   1.000  H
  H51      1.0000 0.72600  0.92190  0.90860  Biso   1.000  H
  H52      1.0000 0.27400  0.07810  0.09140  Biso   1.000  H
  O13      1.0000 0.97050  0.64540  0.54660  Biso   1.000  O
  O14      1.0000 0.02950  0.35460  0.45340  Biso   1.000  O
  H53      1.0000 0.91730  0.59360  0.54840  Biso   1.000  H
  H54      1.0000 0.08270  0.40640  0.45160  Biso   1.000  H
  H55      1.0000 0.07220  0.65220  0.55770  Biso   1.000  H
  H56      1.0000 0.92780  0.34780  0.44230  Biso   1.000  H
  O15      1.0000 0.30400  0.60630  0.61020  Biso   1.000  O
  O16      1.0000 0.69600  0.39370  0.38980  Biso   1.000  O
  H57      1.0000 0.36660  0.61720  0.64230  Biso   1.000  H
  H58      1.0000 0.63340  0.38280  0.35770  Biso   1.000  H
  H59      1.0000 0.37020  0.62170  0.57090  Biso   1.000  H
  H60      1.0000 0.62980  0.37830  0.42910  Biso   1.000  H
  O17      1.0000 0.53000  0.65590  0.48000  Biso   1.000  O
  O18      1.0000 0.47000  0.34410  0.52000  Biso   1.000  O
  H61      1.0000 0.61260  0.60270  0.50250  Biso   1.000  H
  H62      1.0000 0.38740  0.39730  0.49750  Biso   1.000  H
  H63      1.0000 0.47960  0.71110  0.44560  Biso   1.000  H
  H64      1.0000 0.52040  0.28890  0.55440  Biso   1.000  H
  O19      1.0000 0.20350  0.51870  0.44780  Biso   1.000  O
  O20      1.0000 0.79650  0.48130  0.55220  Biso   1.000  O
  H65      1.0000 0.25370  0.56360  0.41670  Biso   1.000  H
  H66      1.0000 0.74630  0.43640  0.58330  Biso   1.000  H
  H67      1.0000 0.10810  0.50880  0.47340  Biso   1.000  H
  H68      1.0000 0.89190  0.49120  0.52660  Biso   1.000  H
  O21      1.0000 0.63010  0.17070  0.09660  Biso   1.000  O
  O22      1.0000 0.36990  0.82930  0.90340  Biso   1.000  O
  H69      1.0000 0.52590  0.16360  0.08890  Biso   1.000  H
  H70      1.0000 0.47410  0.83640  0.91110  Biso   1.000  H
  H71      1.0000 0.71180  0.15890  0.06330  Biso   1.000  H
  H72      1.0000 0.28820  0.84110  0.93670  Biso   1.000  H
