data_image0
_cell_length_a       14.384
_cell_length_b       14.384
_cell_length_c       15.215
_cell_angle_alpha    90
_cell_angle_beta     90
_cell_angle_gamma    120

_symmetry_space_group_name_H-M    "P 1"
_symmetry_int_tables_number       1

loop_
  _symmetry_equiv_pos_as_xyz
  'x, y, z'

loop_
  _atom_site_label
  _atom_site_occupancy
  _atom_site_fract_x
  _atom_site_fract_y
  _atom_site_fract_z
  _atom_site_thermal_displace_type
  _atom_site_B_iso_or_equiv
  _atom_site_type_symbol
  C1       1.0000 0.08280  0.91320  0.11450  Biso   1.000  C
  C2       1.0000 0.91720  0.08680  0.61450  Biso   1.000  C
  C3       1.0000 0.08680  0.16960  0.11450  Biso   1.000  C
  C4       1.0000 0.83040  0.91720  0.11450  Biso   1.000  C
  C5       1.0000 0.16960  0.08280  0.61450  Biso   1.000  C
  C6       1.0000 0.91320  0.83040  0.61450  Biso   1.000  C
  H1       1.0000 0.05350  0.93320  0.16190  Biso   1.000  H
  H2       1.0000 0.94650  0.06680  0.66190  Biso   1.000  H
  H3       1.0000 0.06680  0.12030  0.16190  Biso   1.000  H
  H4       1.0000 0.87970  0.94650  0.16190  Biso   1.000  H
  H5       1.0000 0.12030  0.05350  0.66190  Biso   1.000  H
  H6       1.0000 0.93320  0.87970  0.66190  Biso   1.000  H
  C7       1.0000 0.06360  0.78470  0.01450  Biso   1.000  C
  C8       1.0000 0.93640  0.21530  0.51450  Biso   1.000  C
  C9       1.0000 0.21530  0.27890  0.01450  Biso   1.000  C
  C10      1.0000 0.72110  0.93640  0.01450  Biso   1.000  C
  C11      1.0000 0.27890  0.06360  0.51450  Biso   1.000  C
  C12      1.0000 0.78470  0.72110  0.51450  Biso   1.000  C
  H7       1.0000 0.02300  0.71580  0.98840  Biso   1.000  H
  H8       1.0000 0.97700  0.28420  0.48840  Biso   1.000  H
  H9       1.0000 0.28420  0.30720  0.98840  Biso   1.000  H
  H10      1.0000 0.69280  0.97700  0.98840  Biso   1.000  H
  H11      1.0000 0.30720  0.02300  0.48840  Biso   1.000  H
  H12      1.0000 0.71580  0.69280  0.48840  Biso   1.000  H
  C13      1.0000 0.16830  0.85600  0.98500  Biso   1.000  C
  C14      1.0000 0.83170  0.14400  0.48500  Biso   1.000  C
  C15      1.0000 0.14400  0.31230  0.98500  Biso   1.000  C
  C16      1.0000 0.68770  0.83170  0.98500  Biso   1.000  C
  C17      1.0000 0.31230  0.16830  0.48500  Biso   1.000  C
  C18      1.0000 0.85600  0.68770  0.48500  Biso   1.000  C
  H13      1.0000 0.20080  0.83520  0.94060  Biso   1.000  H
  H14      1.0000 0.79920  0.16480  0.44060  Biso   1.000  H
  H15      1.0000 0.16480  0.36560  0.94060  Biso   1.000  H
  H16      1.0000 0.63440  0.79920  0.94060  Biso   1.000  H
  H17      1.0000 0.36560  0.20080  0.44060  Biso   1.000  H
  H18      1.0000 0.83520  0.63440  0.44060  Biso   1.000  H
  C19      1.0000 0.22190  0.95540  0.02170  Biso   1.000  C
  C20      1.0000 0.77810  0.04460  0.52170  Biso   1.000  C
  C21      1.0000 0.04460  0.26650  0.02170  Biso   1.000  C
  C22      1.0000 0.73350  0.77810  0.02170  Biso   1.000  C
  C23      1.0000 0.26650  0.22190  0.52170  Biso   1.000  C
  C24      1.0000 0.95540  0.73350  0.52170  Biso   1.000  C
  C25      1.0000 0.33060  0.04000  0.99160  Biso   1.000  C
  C26      1.0000 0.66940  0.96000  0.49160  Biso   1.000  C
  C27      1.0000 0.96000  0.29060  0.99160  Biso   1.000  C
  C28      1.0000 0.70940  0.66940  0.99160  Biso   1.000  C
  C29      1.0000 0.29060  0.33060  0.49160  Biso   1.000  C
  C30      1.0000 0.04000  0.70940  0.49160  Biso   1.000  C
  C31      1.0000 0.39050  0.02270  0.92990  Biso   1.000  C
  C32      1.0000 0.60950  0.97730  0.42990  Biso   1.000  C
  C33      1.0000 0.97730  0.36780  0.92990  Biso   1.000  C
  C34      1.0000 0.63220  0.60950  0.92990  Biso   1.000  C
  C35      1.0000 0.36780  0.39050  0.42990  Biso   1.000  C
  C36      1.0000 0.02270  0.63220  0.42990  Biso   1.000  C
  H19      1.0000 0.36540  0.95400  0.90430  Biso   1.000  H
  H20      1.0000 0.63460  0.04600  0.40430  Biso   1.000  H
  H21      1.0000 0.04600  0.41140  0.90430  Biso   1.000  H
  H22      1.0000 0.58860  0.63460  0.90430  Biso   1.000  H
  H23      1.0000 0.41140  0.36540  0.40430  Biso   1.000  H
  H24      1.0000 0.95400  0.58860  0.40430  Biso   1.000  H
  C37      1.0000 0.48920  0.11010  0.90670  Biso   1.000  C
  C38      1.0000 0.51080  0.88990  0.40670  Biso   1.000  C
  C39      1.0000 0.88990  0.37910  0.90670  Biso   1.000  C
  C40      1.0000 0.62090  0.51080  0.90670  Biso   1.000  C
  C41      1.0000 0.37910  0.48920  0.40670  Biso   1.000  C
  C42      1.0000 0.11010  0.62090  0.40670  Biso   1.000  C
  H25      1.0000 0.53140  0.10060  0.86350  Biso   1.000  H
  H26      1.0000 0.46860  0.89940  0.36350  Biso   1.000  H
  H27      1.0000 0.89940  0.43080  0.86350  Biso   1.000  H
  H28      1.0000 0.56920  0.46860  0.86350  Biso   1.000  H
  H29      1.0000 0.43080  0.53140  0.36350  Biso   1.000  H
  H30      1.0000 0.10060  0.56920  0.36350  Biso   1.000  H
  C43      1.0000 0.46490  0.21730  0.00190  Biso   1.000  C
  C44      1.0000 0.53510  0.78270  0.50190  Biso   1.000  C
  C45      1.0000 0.78270  0.24760  0.00190  Biso   1.000  C
  C46      1.0000 0.75240  0.53510  0.00190  Biso   1.000  C
  C47      1.0000 0.24760  0.46490  0.50190  Biso   1.000  C
  C48      1.0000 0.21730  0.75240  0.50190  Biso   1.000  C
  H31      1.0000 0.49040  0.28620  0.02710  Biso   1.000  H
  H32      1.0000 0.50960  0.71380  0.52710  Biso   1.000  H
  H33      1.0000 0.71380  0.20420  0.02710  Biso   1.000  H
  H34      1.0000 0.79580  0.50960  0.02710  Biso   1.000  H
  H35      1.0000 0.20420  0.49040  0.52710  Biso   1.000  H
  H36      1.0000 0.28620  0.79580  0.52710  Biso   1.000  H
  C49      1.0000 0.36930  0.17920  0.23890  Biso   1.000  C
  C50      1.0000 0.63070  0.82080  0.73890  Biso   1.000  C
  C51      1.0000 0.82080  0.19010  0.23890  Biso   1.000  C
  C52      1.0000 0.80990  0.63070  0.23890  Biso   1.000  C
  C53      1.0000 0.19010  0.36930  0.73890  Biso   1.000  C
  C54      1.0000 0.17920  0.80990  0.73890  Biso   1.000  C
  H37      1.0000 0.36890  0.11610  0.26540  Biso   1.000  H
  H38      1.0000 0.63110  0.88390  0.76540  Biso   1.000  H
  H39      1.0000 0.88390  0.25280  0.26540  Biso   1.000  H
  H40      1.0000 0.74720  0.63110  0.26540  Biso   1.000  H
  H41      1.0000 0.25280  0.36890  0.76540  Biso   1.000  H
  H42      1.0000 0.11610  0.74720  0.76540  Biso   1.000  H
  H43      1.0000 0.44090  0.24490  0.23960  Biso   1.000  H
  H44      1.0000 0.55910  0.75510  0.73960  Biso   1.000  H
  H45      1.0000 0.75510  0.19600  0.23960  Biso   1.000  H
  H46      1.0000 0.80400  0.55910  0.23960  Biso   1.000  H
  H47      1.0000 0.19600  0.44090  0.73960  Biso   1.000  H
  H48      1.0000 0.24490  0.80400  0.73960  Biso   1.000  H
  C55      1.0000 0.28730  0.19180  0.25770  Biso   1.000  C
  C56      1.0000 0.71270  0.80820  0.75770  Biso   1.000  C
  C57      1.0000 0.80820  0.09550  0.25770  Biso   1.000  C
  C58      1.0000 0.90450  0.71270  0.25770  Biso   1.000  C
  C59      1.0000 0.09550  0.28730  0.75770  Biso   1.000  C
  C60      1.0000 0.19180  0.90450  0.75770  Biso   1.000  C
  H49      1.0000 0.30370  0.26590  0.27070  Biso   1.000  H
  H50      1.0000 0.69630  0.73410  0.77070  Biso   1.000  H
  H51      1.0000 0.73410  0.03780  0.27070  Biso   1.000  H
  H52      1.0000 0.96220  0.69630  0.27070  Biso   1.000  H
  H53      1.0000 0.03780  0.30370  0.77070  Biso   1.000  H
  H54      1.0000 0.26590  0.96220  0.77070  Biso   1.000  H
  H55      1.0000 0.23160  0.13700  0.29650  Biso   1.000  H
  H56      1.0000 0.76840  0.86300  0.79650  Biso   1.000  H
  H57      1.0000 0.86300  0.09460  0.29650  Biso   1.000  H
  H58      1.0000 0.90540  0.76840  0.29650  Biso   1.000  H
  H59      1.0000 0.09460  0.23160  0.79650  Biso   1.000  H
  H60      1.0000 0.13700  0.90540  0.79650  Biso   1.000  H
  C61      1.0000 0.66670  0.33330  0.69730  Biso   1.000  C
  C62      1.0000 0.33330  0.66670  0.19730  Biso   1.000  C
  H61      1.0000 0.73640  0.39010  0.67440  Biso   1.000  H
  H62      1.0000 0.26360  0.60990  0.17440  Biso   1.000  H
  H63      1.0000 0.60990  0.34630  0.67440  Biso   1.000  H
  H64      1.0000 0.65370  0.26360  0.67440  Biso   1.000  H
  H65      1.0000 0.34630  0.73640  0.17440  Biso   1.000  H
  H66      1.0000 0.39010  0.65370  0.17440  Biso   1.000  H
  N1       1.0000 0.18000  0.98340  0.08800  Biso   1.000  N
  N2       1.0000 0.82000  0.01660  0.58800  Biso   1.000  N
  N3       1.0000 0.01660  0.19660  0.08800  Biso   1.000  N
  N4       1.0000 0.80340  0.82000  0.08800  Biso   1.000  N
  N5       1.0000 0.19660  0.18000  0.58800  Biso   1.000  N
  N6       1.0000 0.98340  0.80340  0.58800  Biso   1.000  N
  N7       1.0000 0.02130  0.81440  0.07930  Biso   1.000  N
  N8       1.0000 0.97870  0.18560  0.57930  Biso   1.000  N
  N9       1.0000 0.18560  0.20690  0.07930  Biso   1.000  N
  N10      1.0000 0.79310  0.97870  0.07930  Biso   1.000  N
  N11      1.0000 0.20690  0.02130  0.57930  Biso   1.000  N
  N12      1.0000 0.81440  0.79310  0.57930  Biso   1.000  N
  N13      1.0000 0.52700  0.20740  0.94330  Biso   1.000  N
  N14      1.0000 0.47300  0.79260  0.44330  Biso   1.000  N
  N15      1.0000 0.79260  0.31960  0.94330  Biso   1.000  N
  N16      1.0000 0.68040  0.47300  0.94330  Biso   1.000  N
  N17      1.0000 0.31960  0.52700  0.44330  Biso   1.000  N
  N18      1.0000 0.20740  0.68040  0.44330  Biso   1.000  N
  N19      1.0000 0.36930  0.13860  0.02890  Biso   1.000  N
  N20      1.0000 0.63070  0.86140  0.52890  Biso   1.000  N
  N21      1.0000 0.86140  0.23070  0.02890  Biso   1.000  N
  N22      1.0000 0.76930  0.63070  0.02890  Biso   1.000  N
  N23      1.0000 0.23070  0.36930  0.52890  Biso   1.000  N
  N24      1.0000 0.13860  0.76930  0.52890  Biso   1.000  N
  O1       1.0000 0.66670  0.33330  0.77200  Biso   1.000  O
  O2       1.0000 0.33330  0.66670  0.27200  Biso   1.000  O
  Cu1      1.0000 0.28031  0.15187  0.12741  Biso   1.000  Cu
  Cu2      1.0000 0.71969  0.84813  0.62741  Biso   1.000  Cu
  Cu3      1.0000 0.84813  0.12844  0.12741  Biso   1.000  Cu
  Cu4      1.0000 0.87156  0.71969  0.12741  Biso   1.000  Cu
  Cu5      1.0000 0.12844  0.28031  0.62741  Biso   1.000  Cu
  Cu6      1.0000 0.15187  0.87156  0.62741  Biso   1.000  Cu
  Cu7      1.0000 0.66670  0.33330  0.90044  Biso   1.000  Cu
  Cu8      1.0000 0.33330  0.66670  0.40044  Biso   1.000  Cu
  B1       1.0000 0.00000  0.00000  0.37280  Biso   1.000  B
  B2       1.0000 0.00000  0.00000  0.87280  Biso   1.000  B
  F1       1.0000 0.00000  0.00000  0.28400  Biso   1.000  F
  F2       1.0000 0.00000  0.00000  0.78400  Biso   1.000  F
  F3       1.0000 0.04580  0.94090  0.40460  Biso   1.000  F
  F4       1.0000 0.95420  0.05910  0.90460  Biso   1.000  F
  F5       1.0000 0.05910  0.10490  0.40460  Biso   1.000  F
  F6       1.0000 0.89510  0.95420  0.40460  Biso   1.000  F
  F7       1.0000 0.10490  0.04580  0.90460  Biso   1.000  F
  F8       1.0000 0.94090  0.89510  0.90460  Biso   1.000  F
  B3       1.0000 0.52020  0.50940  0.65100  Biso   1.000  B
  B4       1.0000 0.47980  0.49060  0.15100  Biso   1.000  B
  B5       1.0000 0.49060  0.01080  0.65100  Biso   1.000  B
  B6       1.0000 0.98920  0.47980  0.65100  Biso   1.000  B
  B7       1.0000 0.01080  0.52020  0.15100  Biso   1.000  B
  B8       1.0000 0.50940  0.98920  0.15100  Biso   1.000  B
  F9       1.0000 0.44390  0.40420  0.64930  Biso   1.000  F
  F10      1.0000 0.55610  0.59580  0.14930  Biso   1.000  F
  F11      1.0000 0.59580  0.03970  0.64930  Biso   1.000  F
  F12      1.0000 0.96030  0.55610  0.64930  Biso   1.000  F
  F13      1.0000 0.03970  0.44390  0.14930  Biso   1.000  F
  F14      1.0000 0.40420  0.96030  0.14930  Biso   1.000  F
  F15      1.0000 0.51560  0.54530  0.73950  Biso   1.000  F
  F16      1.0000 0.48440  0.45470  0.23950  Biso   1.000  F
  F17      1.0000 0.45470  0.97030  0.73950  Biso   1.000  F
  F18      1.0000 0.02970  0.48440  0.73950  Biso   1.000  F
  F19      1.0000 0.97030  0.51560  0.23950  Biso   1.000  F
  F20      1.0000 0.54530  0.02970  0.23950  Biso   1.000  F
  F21      1.0000 0.62680  0.54490  0.63700  Biso   1.000  F
  F22      1.0000 0.37320  0.45510  0.13700  Biso   1.000  F
  F23      1.0000 0.45510  0.08190  0.63700  Biso   1.000  F
  F24      1.0000 0.91810  0.37320  0.63700  Biso   1.000  F
  F25      1.0000 0.08190  0.62680  0.13700  Biso   1.000  F
  F26      1.0000 0.54490  0.91810  0.13700  Biso   1.000  F
  F27      1.0000 0.52140  0.57530  0.58650  Biso   1.000  F
  F28      1.0000 0.47860  0.42470  0.08650  Biso   1.000  F
  F29      1.0000 0.42470  0.94610  0.58650  Biso   1.000  F
  F30      1.0000 0.05390  0.47860  0.58650  Biso   1.000  F
  F31      1.0000 0.94610  0.52140  0.08650  Biso   1.000  F
  F32      1.0000 0.57530  0.05390  0.08650  Biso   1.000  F
  F33      1.0000 0.46970  0.40040  0.62570  Biso   1.000  F
  F34      1.0000 0.53030  0.59960  0.12570  Biso   1.000  F
  F35      1.0000 0.59960  0.06930  0.62570  Biso   1.000  F
  F36      1.0000 0.93070  0.53030  0.62570  Biso   1.000  F
  F37      1.0000 0.06930  0.46970  0.12570  Biso   1.000  F
  F38      1.0000 0.40040  0.93070  0.12570  Biso   1.000  F
  F39      1.0000 0.47800  0.51410  0.74140  Biso   1.000  F
  F40      1.0000 0.52200  0.48590  0.24140  Biso   1.000  F
  F41      1.0000 0.48590  0.96390  0.74140  Biso   1.000  F
  F42      1.0000 0.03610  0.52200  0.74140  Biso   1.000  F
  F43      1.0000 0.96390  0.47800  0.24140  Biso   1.000  F
  F44      1.0000 0.51410  0.03610  0.24140  Biso   1.000  F
  F45      1.0000 0.62540  0.54570  0.67960  Biso   1.000  F
  F46      1.0000 0.37460  0.45430  0.17960  Biso   1.000  F
  F47      1.0000 0.45430  0.07970  0.67960  Biso   1.000  F
  F48      1.0000 0.92030  0.37460  0.67960  Biso   1.000  F
  F49      1.0000 0.07970  0.62540  0.17960  Biso   1.000  F
  F50      1.0000 0.54570  0.92030  0.17960  Biso   1.000  F
  F51      1.0000 0.46270  0.55830  0.60660  Biso   1.000  F
  F52      1.0000 0.53730  0.44170  0.10660  Biso   1.000  F
  F53      1.0000 0.44170  0.90440  0.60660  Biso   1.000  F
  F54      1.0000 0.09560  0.53730  0.60660  Biso   1.000  F
  F55      1.0000 0.90440  0.46270  0.10660  Biso   1.000  F
  F56      1.0000 0.55830  0.09560  0.10660  Biso   1.000  F
  O3       1.0000 0.66670  0.33330  0.18100  Biso   1.000  O
  O4       1.0000 0.33330  0.66670  0.68100  Biso   1.000  O
  O5       1.0000 0.31250  0.75240  0.90660  Biso   1.000  O
  O6       1.0000 0.68750  0.24760  0.40660  Biso   1.000  O
  O7       1.0000 0.24760  0.56010  0.90660  Biso   1.000  O
  O8       1.0000 0.43990  0.68750  0.90660  Biso   1.000  O
  O9       1.0000 0.56010  0.31250  0.40660  Biso   1.000  O
  O10      1.0000 0.75240  0.43990  0.40660  Biso   1.000  O
  O11      1.0000 0.68140  0.06820  0.83430  Biso   1.000  O
  O12      1.0000 0.31860  0.93180  0.33430  Biso   1.000  O
  O13      1.0000 0.93180  0.61320  0.83430  Biso   1.000  O
  O14      1.0000 0.38680  0.31860  0.83430  Biso   1.000  O
  O15      1.0000 0.61320  0.68140  0.33430  Biso   1.000  O
  O16      1.0000 0.06820  0.38680  0.33430  Biso   1.000  O
  C63      1.0000 0.77960  0.12260  0.79700  Biso   1.000  C
  C64      1.0000 0.22040  0.87740  0.29700  Biso   1.000  C
  C65      1.0000 0.87740  0.65700  0.79700  Biso   1.000  C
  C66      1.0000 0.34300  0.22040  0.79700  Biso   1.000  C
  C67      1.0000 0.65700  0.77960  0.29700  Biso   1.000  C
  C68      1.0000 0.12260  0.34300  0.29700  Biso   1.000  C
  H67      1.0000 0.78850  0.18810  0.76930  Biso   1.000  H
  H68      1.0000 0.21150  0.81190  0.26930  Biso   1.000  H
  H69      1.0000 0.81190  0.60040  0.76930  Biso   1.000  H
  H70      1.0000 0.39960  0.21150  0.76930  Biso   1.000  H
  H71      1.0000 0.60040  0.78850  0.26930  Biso   1.000  H
  H72      1.0000 0.18810  0.39960  0.26930  Biso   1.000  H
  H73      1.0000 0.78690  0.07750  0.75240  Biso   1.000  H
  H74      1.0000 0.21310  0.92250  0.25240  Biso   1.000  H
  H75      1.0000 0.92250  0.70940  0.75240  Biso   1.000  H
  H76      1.0000 0.29060  0.21310  0.75240  Biso   1.000  H
  H77      1.0000 0.70940  0.78690  0.25240  Biso   1.000  H
  H78      1.0000 0.07750  0.29060  0.25240  Biso   1.000  H
  H79      1.0000 0.83480  0.14190  0.84220  Biso   1.000  H
  H80      1.0000 0.16520  0.85810  0.34220  Biso   1.000  H
  H81      1.0000 0.85810  0.69290  0.84220  Biso   1.000  H
  H82      1.0000 0.30710  0.16520  0.84220  Biso   1.000  H
  H83      1.0000 0.69290  0.83480  0.34220  Biso   1.000  H
  H84      1.0000 0.14190  0.30710  0.34220  Biso   1.000  H
