data_image0
_cell_length_a       18.673
_cell_length_b       18.673
_cell_length_c       18.673
_cell_angle_alpha    90
_cell_angle_beta     90
_cell_angle_gamma    90

_symmetry_space_group_name_H-M    "P 1"
_symmetry_int_tables_number       1

loop_
  _symmetry_equiv_pos_as_xyz
  'x, y, z'

loop_
  _atom_site_label
  _atom_site_occupancy
  _atom_site_fract_x
  _atom_site_fract_y
  _atom_site_fract_z
  _atom_site_thermal_displace_type
  _atom_site_B_iso_or_equiv
  _atom_site_type_symbol
  Cu1      1.0000 0.64111  0.50000  0.75000  Biso   1.000  Cu
  Cu2      1.0000 0.35889  0.00000  0.75000  Biso   1.000  Cu
  Cu3      1.0000 0.50000  0.75000  0.64111  Biso   1.000  Cu
  Cu4      1.0000 0.50000  0.25000  0.85889  Biso   1.000  Cu
  Cu5      1.0000 0.75000  0.64111  0.50000  Biso   1.000  Cu
  Cu6      1.0000 0.25000  0.85889  0.50000  Biso   1.000  Cu
  Cu7      1.0000 0.14111  0.00000  0.25000  Biso   1.000  Cu
  Cu8      1.0000 0.85889  0.50000  0.25000  Biso   1.000  Cu
  Cu9      1.0000 0.00000  0.25000  0.14111  Biso   1.000  Cu
  Cu10     1.0000 0.00000  0.75000  0.35889  Biso   1.000  Cu
  Cu11     1.0000 0.25000  0.14111  0.00000  Biso   1.000  Cu
  Cu12     1.0000 0.75000  0.35889  0.00000  Biso   1.000  Cu
  Cu13     1.0000 0.35889  0.50000  0.25000  Biso   1.000  Cu
  Cu14     1.0000 0.64111  0.00000  0.25000  Biso   1.000  Cu
  Cu15     1.0000 0.50000  0.25000  0.35889  Biso   1.000  Cu
  Cu16     1.0000 0.50000  0.75000  0.14111  Biso   1.000  Cu
  Cu17     1.0000 0.25000  0.35889  0.50000  Biso   1.000  Cu
  Cu18     1.0000 0.75000  0.14111  0.50000  Biso   1.000  Cu
  Cu19     1.0000 0.85889  0.00000  0.75000  Biso   1.000  Cu
  Cu20     1.0000 0.14111  0.50000  0.75000  Biso   1.000  Cu
  Cu21     1.0000 0.00000  0.75000  0.85889  Biso   1.000  Cu
  Cu22     1.0000 0.00000  0.25000  0.64111  Biso   1.000  Cu
  Cu23     1.0000 0.75000  0.85889  0.00000  Biso   1.000  Cu
  Cu24     1.0000 0.25000  0.64111  0.00000  Biso   1.000  Cu
  N1       1.0000 0.58080  0.41690  0.72290  Biso   1.000  N
  N2       1.0000 0.41920  0.08310  0.72290  Biso   1.000  N
  N3       1.0000 0.58080  0.58310  0.77710  Biso   1.000  N
  N4       1.0000 0.41920  0.91690  0.77710  Biso   1.000  N
  N5       1.0000 0.41690  0.72290  0.58080  Biso   1.000  N
  N6       1.0000 0.58310  0.77710  0.58080  Biso   1.000  N
  N7       1.0000 0.41690  0.27710  0.91920  Biso   1.000  N
  N8       1.0000 0.58310  0.22290  0.91920  Biso   1.000  N
  N9       1.0000 0.72290  0.58080  0.41690  Biso   1.000  N
  N10      1.0000 0.77710  0.58080  0.58310  Biso   1.000  N
  N11      1.0000 0.27710  0.91920  0.41690  Biso   1.000  N
  N12      1.0000 0.22290  0.91920  0.58310  Biso   1.000  N
  N13      1.0000 0.08080  0.91690  0.22290  Biso   1.000  N
  N14      1.0000 0.91920  0.58310  0.22290  Biso   1.000  N
  N15      1.0000 0.08080  0.08310  0.27710  Biso   1.000  N
  N16      1.0000 0.91920  0.41690  0.27710  Biso   1.000  N
  N17      1.0000 0.91690  0.22290  0.08080  Biso   1.000  N
  N18      1.0000 0.08310  0.27710  0.08080  Biso   1.000  N
  N19      1.0000 0.91690  0.77710  0.41920  Biso   1.000  N
  N20      1.0000 0.08310  0.72290  0.41920  Biso   1.000  N
  N21      1.0000 0.22290  0.08080  0.91690  Biso   1.000  N
  N22      1.0000 0.27710  0.08080  0.08310  Biso   1.000  N
  N23      1.0000 0.77710  0.41920  0.91690  Biso   1.000  N
  N24      1.0000 0.72290  0.41920  0.08310  Biso   1.000  N
  N25      1.0000 0.41920  0.58310  0.27710  Biso   1.000  N
  N26      1.0000 0.58080  0.91690  0.27710  Biso   1.000  N
  N27      1.0000 0.41920  0.41690  0.22290  Biso   1.000  N
  N28      1.0000 0.58080  0.08310  0.22290  Biso   1.000  N
  N29      1.0000 0.58310  0.27710  0.41920  Biso   1.000  N
  N30      1.0000 0.41690  0.22290  0.41920  Biso   1.000  N
  N31      1.0000 0.58310  0.72290  0.08080  Biso   1.000  N
  N32      1.0000 0.41690  0.77710  0.08080  Biso   1.000  N
  N33      1.0000 0.27710  0.41920  0.58310  Biso   1.000  N
  N34      1.0000 0.22290  0.41920  0.41690  Biso   1.000  N
  N35      1.0000 0.72290  0.08080  0.58310  Biso   1.000  N
  N36      1.0000 0.77710  0.08080  0.41690  Biso   1.000  N
  N37      1.0000 0.91920  0.08310  0.77710  Biso   1.000  N
  N38      1.0000 0.08080  0.41690  0.77710  Biso   1.000  N
  N39      1.0000 0.91920  0.91690  0.72290  Biso   1.000  N
  N40      1.0000 0.08080  0.58310  0.72290  Biso   1.000  N
  N41      1.0000 0.08310  0.77710  0.91920  Biso   1.000  N
  N42      1.0000 0.91690  0.72290  0.91920  Biso   1.000  N
  N43      1.0000 0.08310  0.22290  0.58080  Biso   1.000  N
  N44      1.0000 0.91690  0.27710  0.58080  Biso   1.000  N
  N45      1.0000 0.77710  0.91920  0.08310  Biso   1.000  N
  N46      1.0000 0.72290  0.91920  0.91690  Biso   1.000  N
  N47      1.0000 0.22290  0.58080  0.08310  Biso   1.000  N
  N48      1.0000 0.27710  0.58080  0.91690  Biso   1.000  N
  N49      1.0000 0.52400  0.31590  0.77430  Biso   1.000  N
  N50      1.0000 0.47600  0.18410  0.77430  Biso   1.000  N
  N51      1.0000 0.52400  0.68410  0.72570  Biso   1.000  N
  N52      1.0000 0.47600  0.81590  0.72570  Biso   1.000  N
  N53      1.0000 0.31590  0.77430  0.52400  Biso   1.000  N
  N54      1.0000 0.68410  0.72570  0.52400  Biso   1.000  N
  N55      1.0000 0.31590  0.22570  0.97600  Biso   1.000  N
  N56      1.0000 0.68410  0.27430  0.97600  Biso   1.000  N
  N57      1.0000 0.77430  0.52400  0.31590  Biso   1.000  N
  N58      1.0000 0.72570  0.52400  0.68410  Biso   1.000  N
  N59      1.0000 0.22570  0.97600  0.31590  Biso   1.000  N
  N60      1.0000 0.27430  0.97600  0.68410  Biso   1.000  N
  N61      1.0000 0.02400  0.81590  0.27430  Biso   1.000  N
  N62      1.0000 0.97600  0.68410  0.27430  Biso   1.000  N
  N63      1.0000 0.02400  0.18410  0.22570  Biso   1.000  N
  N64      1.0000 0.97600  0.31590  0.22570  Biso   1.000  N
  N65      1.0000 0.81590  0.27430  0.02400  Biso   1.000  N
  N66      1.0000 0.18410  0.22570  0.02400  Biso   1.000  N
  N67      1.0000 0.81590  0.72570  0.47600  Biso   1.000  N
  N68      1.0000 0.18410  0.77430  0.47600  Biso   1.000  N
  N69      1.0000 0.27430  0.02400  0.81590  Biso   1.000  N
  N70      1.0000 0.22570  0.02400  0.18410  Biso   1.000  N
  N71      1.0000 0.72570  0.47600  0.81590  Biso   1.000  N
  N72      1.0000 0.77430  0.47600  0.18410  Biso   1.000  N
  N73      1.0000 0.47600  0.68410  0.22570  Biso   1.000  N
  N74      1.0000 0.52400  0.81590  0.22570  Biso   1.000  N
  N75      1.0000 0.47600  0.31590  0.27430  Biso   1.000  N
  N76      1.0000 0.52400  0.18410  0.27430  Biso   1.000  N
  N77      1.0000 0.68410  0.22570  0.47600  Biso   1.000  N
  N78      1.0000 0.31590  0.27430  0.47600  Biso   1.000  N
  N79      1.0000 0.68410  0.77430  0.02400  Biso   1.000  N
  N80      1.0000 0.31590  0.72570  0.02400  Biso   1.000  N
  N81      1.0000 0.22570  0.47600  0.68410  Biso   1.000  N
  N82      1.0000 0.27430  0.47600  0.31590  Biso   1.000  N
  N83      1.0000 0.77430  0.02400  0.68410  Biso   1.000  N
  N84      1.0000 0.72570  0.02400  0.31590  Biso   1.000  N
  N85      1.0000 0.97600  0.18410  0.72570  Biso   1.000  N
  N86      1.0000 0.02400  0.31590  0.72570  Biso   1.000  N
  N87      1.0000 0.97600  0.81590  0.77430  Biso   1.000  N
  N88      1.0000 0.02400  0.68410  0.77430  Biso   1.000  N
  N89      1.0000 0.18410  0.72570  0.97600  Biso   1.000  N
  N90      1.0000 0.81590  0.77430  0.97600  Biso   1.000  N
  N91      1.0000 0.18410  0.27430  0.52400  Biso   1.000  N
  N92      1.0000 0.81590  0.22570  0.52400  Biso   1.000  N
  N93      1.0000 0.72570  0.97600  0.18410  Biso   1.000  N
  N94      1.0000 0.77430  0.97600  0.81590  Biso   1.000  N
  N95      1.0000 0.27430  0.52400  0.18410  Biso   1.000  N
  N96      1.0000 0.22570  0.52400  0.81590  Biso   1.000  N
  C1       1.0000 0.55430  0.37970  0.77840  Biso   1.000  C
  C2       1.0000 0.44570  0.12030  0.77840  Biso   1.000  C
  C3       1.0000 0.55430  0.62030  0.72160  Biso   1.000  C
  C4       1.0000 0.44570  0.87970  0.72160  Biso   1.000  C
  C5       1.0000 0.37970  0.77840  0.55430  Biso   1.000  C
  C6       1.0000 0.62030  0.72160  0.55430  Biso   1.000  C
  C7       1.0000 0.37970  0.22160  0.94570  Biso   1.000  C
  C8       1.0000 0.62030  0.27840  0.94570  Biso   1.000  C
  C9       1.0000 0.77840  0.55430  0.37970  Biso   1.000  C
  C10      1.0000 0.72160  0.55430  0.62030  Biso   1.000  C
  C11      1.0000 0.22160  0.94570  0.37970  Biso   1.000  C
  C12      1.0000 0.27840  0.94570  0.62030  Biso   1.000  C
  C13      1.0000 0.05430  0.87970  0.27840  Biso   1.000  C
  C14      1.0000 0.94570  0.62030  0.27840  Biso   1.000  C
  C15      1.0000 0.05430  0.12030  0.22160  Biso   1.000  C
  C16      1.0000 0.94570  0.37970  0.22160  Biso   1.000  C
  C17      1.0000 0.87970  0.27840  0.05430  Biso   1.000  C
  C18      1.0000 0.12030  0.22160  0.05430  Biso   1.000  C
  C19      1.0000 0.87970  0.72160  0.44570  Biso   1.000  C
  C20      1.0000 0.12030  0.77840  0.44570  Biso   1.000  C
  C21      1.0000 0.27840  0.05430  0.87970  Biso   1.000  C
  C22      1.0000 0.22160  0.05430  0.12030  Biso   1.000  C
  C23      1.0000 0.72160  0.44570  0.87970  Biso   1.000  C
  C24      1.0000 0.77840  0.44570  0.12030  Biso   1.000  C
  C25      1.0000 0.44570  0.62030  0.22160  Biso   1.000  C
  C26      1.0000 0.55430  0.87970  0.22160  Biso   1.000  C
  C27      1.0000 0.44570  0.37970  0.27840  Biso   1.000  C
  C28      1.0000 0.55430  0.12030  0.27840  Biso   1.000  C
  C29      1.0000 0.62030  0.22160  0.44570  Biso   1.000  C
  C30      1.0000 0.37970  0.27840  0.44570  Biso   1.000  C
  C31      1.0000 0.62030  0.77840  0.05430  Biso   1.000  C
  C32      1.0000 0.37970  0.72160  0.05430  Biso   1.000  C
  C33      1.0000 0.22160  0.44570  0.62030  Biso   1.000  C
  C34      1.0000 0.27840  0.44570  0.37970  Biso   1.000  C
  C35      1.0000 0.77840  0.05430  0.62030  Biso   1.000  C
  C36      1.0000 0.72160  0.05430  0.37970  Biso   1.000  C
  C37      1.0000 0.94570  0.12030  0.72160  Biso   1.000  C
  C38      1.0000 0.05430  0.37970  0.72160  Biso   1.000  C
  C39      1.0000 0.94570  0.87970  0.77840  Biso   1.000  C
  C40      1.0000 0.05430  0.62030  0.77840  Biso   1.000  C
  C41      1.0000 0.12030  0.72160  0.94570  Biso   1.000  C
  C42      1.0000 0.87970  0.77840  0.94570  Biso   1.000  C
  C43      1.0000 0.12030  0.27840  0.55430  Biso   1.000  C
  C44      1.0000 0.87970  0.22160  0.55430  Biso   1.000  C
  C45      1.0000 0.72160  0.94570  0.12030  Biso   1.000  C
  C46      1.0000 0.77840  0.94570  0.87970  Biso   1.000  C
  C47      1.0000 0.27840  0.55430  0.12030  Biso   1.000  C
  C48      1.0000 0.22160  0.55430  0.87970  Biso   1.000  C
  H1       1.0000 0.55770  0.40100  0.82450  Biso   1.000  H
  H2       1.0000 0.44230  0.09900  0.82450  Biso   1.000  H
  H3       1.0000 0.55770  0.59900  0.67550  Biso   1.000  H
  H4       1.0000 0.44230  0.90100  0.67550  Biso   1.000  H
  H5       1.0000 0.40100  0.82450  0.55770  Biso   1.000  H
  H6       1.0000 0.59900  0.67550  0.55770  Biso   1.000  H
  H7       1.0000 0.40100  0.17550  0.94230  Biso   1.000  H
  H8       1.0000 0.59900  0.32450  0.94230  Biso   1.000  H
  H9       1.0000 0.82450  0.55770  0.40100  Biso   1.000  H
  H10      1.0000 0.67550  0.55770  0.59900  Biso   1.000  H
  H11      1.0000 0.17550  0.94230  0.40100  Biso   1.000  H
  H12      1.0000 0.32450  0.94230  0.59900  Biso   1.000  H
  H13      1.0000 0.05770  0.90100  0.32450  Biso   1.000  H
  H14      1.0000 0.94230  0.59900  0.32450  Biso   1.000  H
  H15      1.0000 0.05770  0.09900  0.17550  Biso   1.000  H
  H16      1.0000 0.94230  0.40100  0.17550  Biso   1.000  H
  H17      1.0000 0.90100  0.32450  0.05770  Biso   1.000  H
  H18      1.0000 0.09900  0.17550  0.05770  Biso   1.000  H
  H19      1.0000 0.90100  0.67550  0.44230  Biso   1.000  H
  H20      1.0000 0.09900  0.82450  0.44230  Biso   1.000  H
  H21      1.0000 0.32450  0.05770  0.90100  Biso   1.000  H
  H22      1.0000 0.17550  0.05770  0.09900  Biso   1.000  H
  H23      1.0000 0.67550  0.44230  0.90100  Biso   1.000  H
  H24      1.0000 0.82450  0.44230  0.09900  Biso   1.000  H
  H25      1.0000 0.44230  0.59900  0.17550  Biso   1.000  H
  H26      1.0000 0.55770  0.90100  0.17550  Biso   1.000  H
  H27      1.0000 0.44230  0.40100  0.32450  Biso   1.000  H
  H28      1.0000 0.55770  0.09900  0.32450  Biso   1.000  H
  H29      1.0000 0.59900  0.17550  0.44230  Biso   1.000  H
  H30      1.0000 0.40100  0.32450  0.44230  Biso   1.000  H
  H31      1.0000 0.59900  0.82450  0.05770  Biso   1.000  H
  H32      1.0000 0.40100  0.67550  0.05770  Biso   1.000  H
  H33      1.0000 0.17550  0.44230  0.59900  Biso   1.000  H
  H34      1.0000 0.32450  0.44230  0.40100  Biso   1.000  H
  H35      1.0000 0.82450  0.05770  0.59900  Biso   1.000  H
  H36      1.0000 0.67550  0.05770  0.40100  Biso   1.000  H
  H37      1.0000 0.94230  0.09900  0.67550  Biso   1.000  H
  H38      1.0000 0.05770  0.40100  0.67550  Biso   1.000  H
  H39      1.0000 0.94230  0.90100  0.82450  Biso   1.000  H
  H40      1.0000 0.05770  0.59900  0.82450  Biso   1.000  H
  H41      1.0000 0.09900  0.67550  0.94230  Biso   1.000  H
  H42      1.0000 0.90100  0.82450  0.94230  Biso   1.000  H
  H43      1.0000 0.09900  0.32450  0.55770  Biso   1.000  H
  H44      1.0000 0.90100  0.17550  0.55770  Biso   1.000  H
  H45      1.0000 0.67550  0.94230  0.09900  Biso   1.000  H
  H46      1.0000 0.82450  0.94230  0.90100  Biso   1.000  H
  H47      1.0000 0.32450  0.55770  0.09900  Biso   1.000  H
  H48      1.0000 0.17550  0.55770  0.90100  Biso   1.000  H
  C49      1.0000 0.51600  0.28640  0.70870  Biso   1.000  C
  C50      1.0000 0.48400  0.21360  0.70870  Biso   1.000  C
  C51      1.0000 0.51600  0.71360  0.79130  Biso   1.000  C
  C52      1.0000 0.48400  0.78640  0.79130  Biso   1.000  C
  C53      1.0000 0.28640  0.70870  0.51600  Biso   1.000  C
  C54      1.0000 0.71360  0.79130  0.51600  Biso   1.000  C
  C55      1.0000 0.28640  0.29130  0.98400  Biso   1.000  C
  C56      1.0000 0.71360  0.20870  0.98400  Biso   1.000  C
  C57      1.0000 0.70870  0.51600  0.28640  Biso   1.000  C
  C58      1.0000 0.79130  0.51600  0.71360  Biso   1.000  C
  C59      1.0000 0.29130  0.98400  0.28640  Biso   1.000  C
  C60      1.0000 0.20870  0.98400  0.71360  Biso   1.000  C
  C61      1.0000 0.01600  0.78640  0.20870  Biso   1.000  C
  C62      1.0000 0.98400  0.71360  0.20870  Biso   1.000  C
  C63      1.0000 0.01600  0.21360  0.29130  Biso   1.000  C
  C64      1.0000 0.98400  0.28640  0.29130  Biso   1.000  C
  C65      1.0000 0.78640  0.20870  0.01600  Biso   1.000  C
  C66      1.0000 0.21360  0.29130  0.01600  Biso   1.000  C
  C67      1.0000 0.78640  0.79130  0.48400  Biso   1.000  C
  C68      1.0000 0.21360  0.70870  0.48400  Biso   1.000  C
  C69      1.0000 0.20870  0.01600  0.78640  Biso   1.000  C
  C70      1.0000 0.29130  0.01600  0.21360  Biso   1.000  C
  C71      1.0000 0.79130  0.48400  0.78640  Biso   1.000  C
  C72      1.0000 0.70870  0.48400  0.21360  Biso   1.000  C
  C73      1.0000 0.48400  0.71360  0.29130  Biso   1.000  C
  C74      1.0000 0.51600  0.78640  0.29130  Biso   1.000  C
  C75      1.0000 0.48400  0.28640  0.20870  Biso   1.000  C
  C76      1.0000 0.51600  0.21360  0.20870  Biso   1.000  C
  C77      1.0000 0.71360  0.29130  0.48400  Biso   1.000  C
  C78      1.0000 0.28640  0.20870  0.48400  Biso   1.000  C
  C79      1.0000 0.71360  0.70870  0.01600  Biso   1.000  C
  C80      1.0000 0.28640  0.79130  0.01600  Biso   1.000  C
  C81      1.0000 0.29130  0.48400  0.71360  Biso   1.000  C
  C82      1.0000 0.20870  0.48400  0.28640  Biso   1.000  C
  C83      1.0000 0.70870  0.01600  0.71360  Biso   1.000  C
  C84      1.0000 0.79130  0.01600  0.28640  Biso   1.000  C
  C85      1.0000 0.98400  0.21360  0.79130  Biso   1.000  C
  C86      1.0000 0.01600  0.28640  0.79130  Biso   1.000  C
  C87      1.0000 0.98400  0.78640  0.70870  Biso   1.000  C
  C88      1.0000 0.01600  0.71360  0.70870  Biso   1.000  C
  C89      1.0000 0.21360  0.79130  0.98400  Biso   1.000  C
  C90      1.0000 0.78640  0.70870  0.98400  Biso   1.000  C
  C91      1.0000 0.21360  0.20870  0.51600  Biso   1.000  C
  C92      1.0000 0.78640  0.29130  0.51600  Biso   1.000  C
  C93      1.0000 0.79130  0.98400  0.21360  Biso   1.000  C
  C94      1.0000 0.70870  0.98400  0.78640  Biso   1.000  C
  C95      1.0000 0.20870  0.51600  0.21360  Biso   1.000  C
  C96      1.0000 0.29130  0.51600  0.78640  Biso   1.000  C
  C97      1.0000 0.53770  0.32310  0.64760  Biso   1.000  C
  C98      1.0000 0.46230  0.17690  0.64760  Biso   1.000  C
  C99      1.0000 0.53770  0.67690  0.85240  Biso   1.000  C
  C100     1.0000 0.46230  0.82310  0.85240  Biso   1.000  C
  C101     1.0000 0.32310  0.64760  0.53770  Biso   1.000  C
  C102     1.0000 0.67690  0.85240  0.53770  Biso   1.000  C
  C103     1.0000 0.32310  0.35240  0.96230  Biso   1.000  C
  C104     1.0000 0.67690  0.14760  0.96230  Biso   1.000  C
  C105     1.0000 0.64760  0.53770  0.32310  Biso   1.000  C
  C106     1.0000 0.85240  0.53770  0.67690  Biso   1.000  C
  C107     1.0000 0.35240  0.96230  0.32310  Biso   1.000  C
  C108     1.0000 0.14760  0.96230  0.67690  Biso   1.000  C
  C109     1.0000 0.03770  0.82310  0.14760  Biso   1.000  C
  C110     1.0000 0.96230  0.67690  0.14760  Biso   1.000  C
  C111     1.0000 0.03770  0.17690  0.35240  Biso   1.000  C
  C112     1.0000 0.96230  0.32310  0.35240  Biso   1.000  C
  C113     1.0000 0.82310  0.14760  0.03770  Biso   1.000  C
  C114     1.0000 0.17690  0.35240  0.03770  Biso   1.000  C
  C115     1.0000 0.82310  0.85240  0.46230  Biso   1.000  C
  C116     1.0000 0.17690  0.64760  0.46230  Biso   1.000  C
  C117     1.0000 0.14760  0.03770  0.82310  Biso   1.000  C
  C118     1.0000 0.35240  0.03770  0.17690  Biso   1.000  C
  C119     1.0000 0.85240  0.46230  0.82310  Biso   1.000  C
  C120     1.0000 0.64760  0.46230  0.17690  Biso   1.000  C
  C121     1.0000 0.46230  0.67690  0.35240  Biso   1.000  C
  C122     1.0000 0.53770  0.82310  0.35240  Biso   1.000  C
  C123     1.0000 0.46230  0.32310  0.14760  Biso   1.000  C
  C124     1.0000 0.53770  0.17690  0.14760  Biso   1.000  C
  C125     1.0000 0.67690  0.35240  0.46230  Biso   1.000  C
  C126     1.0000 0.32310  0.14760  0.46230  Biso   1.000  C
  C127     1.0000 0.67690  0.64760  0.03770  Biso   1.000  C
  C128     1.0000 0.32310  0.85240  0.03770  Biso   1.000  C
  C129     1.0000 0.35240  0.46230  0.67690  Biso   1.000  C
  C130     1.0000 0.14760  0.46230  0.32310  Biso   1.000  C
  C131     1.0000 0.64760  0.03770  0.67690  Biso   1.000  C
  C132     1.0000 0.85240  0.03770  0.32310  Biso   1.000  C
  C133     1.0000 0.96230  0.17690  0.85240  Biso   1.000  C
  C134     1.0000 0.03770  0.32310  0.85240  Biso   1.000  C
  C135     1.0000 0.96230  0.82310  0.64760  Biso   1.000  C
  C136     1.0000 0.03770  0.67690  0.64760  Biso   1.000  C
  C137     1.0000 0.17690  0.85240  0.96230  Biso   1.000  C
  C138     1.0000 0.82310  0.64760  0.96230  Biso   1.000  C
  C139     1.0000 0.17690  0.14760  0.53770  Biso   1.000  C
  C140     1.0000 0.82310  0.35240  0.53770  Biso   1.000  C
  C141     1.0000 0.85240  0.96230  0.17690  Biso   1.000  C
  C142     1.0000 0.64760  0.96230  0.82310  Biso   1.000  C
  C143     1.0000 0.14760  0.53770  0.17690  Biso   1.000  C
  C144     1.0000 0.35240  0.53770  0.82310  Biso   1.000  C
  H49      1.0000 0.52970  0.30400  0.60110  Biso   1.000  H
  H50      1.0000 0.47030  0.19600  0.60110  Biso   1.000  H
  H51      1.0000 0.52970  0.69600  0.89890  Biso   1.000  H
  H52      1.0000 0.47030  0.80400  0.89890  Biso   1.000  H
  H53      1.0000 0.30400  0.60110  0.52970  Biso   1.000  H
  H54      1.0000 0.69600  0.89890  0.52970  Biso   1.000  H
  H55      1.0000 0.30400  0.39890  0.97030  Biso   1.000  H
  H56      1.0000 0.69600  0.10110  0.97030  Biso   1.000  H
  H57      1.0000 0.60110  0.52970  0.30400  Biso   1.000  H
  H58      1.0000 0.89890  0.52970  0.69600  Biso   1.000  H
  H59      1.0000 0.39890  0.97030  0.30400  Biso   1.000  H
  H60      1.0000 0.10110  0.97030  0.69600  Biso   1.000  H
  H61      1.0000 0.02970  0.80400  0.10110  Biso   1.000  H
  H62      1.0000 0.97030  0.69600  0.10110  Biso   1.000  H
  H63      1.0000 0.02970  0.19600  0.39890  Biso   1.000  H
  H64      1.0000 0.97030  0.30400  0.39890  Biso   1.000  H
  H65      1.0000 0.80400  0.10110  0.02970  Biso   1.000  H
  H66      1.0000 0.19600  0.39890  0.02970  Biso   1.000  H
  H67      1.0000 0.80400  0.89890  0.47030  Biso   1.000  H
  H68      1.0000 0.19600  0.60110  0.47030  Biso   1.000  H
  H69      1.0000 0.10110  0.02970  0.80400  Biso   1.000  H
  H70      1.0000 0.39890  0.02970  0.19600  Biso   1.000  H
  H71      1.0000 0.89890  0.47030  0.80400  Biso   1.000  H
  H72      1.0000 0.60110  0.47030  0.19600  Biso   1.000  H
  H73      1.0000 0.47030  0.69600  0.39890  Biso   1.000  H
  H74      1.0000 0.52970  0.80400  0.39890  Biso   1.000  H
  H75      1.0000 0.47030  0.30400  0.10110  Biso   1.000  H
  H76      1.0000 0.52970  0.19600  0.10110  Biso   1.000  H
  H77      1.0000 0.69600  0.39890  0.47030  Biso   1.000  H
  H78      1.0000 0.30400  0.10110  0.47030  Biso   1.000  H
  H79      1.0000 0.69600  0.60110  0.02970  Biso   1.000  H
  H80      1.0000 0.30400  0.89890  0.02970  Biso   1.000  H
  H81      1.0000 0.39890  0.47030  0.69600  Biso   1.000  H
  H82      1.0000 0.10110  0.47030  0.30400  Biso   1.000  H
  H83      1.0000 0.60110  0.02970  0.69600  Biso   1.000  H
  H84      1.0000 0.89890  0.02970  0.30400  Biso   1.000  H
  H85      1.0000 0.97030  0.19600  0.89890  Biso   1.000  H
  H86      1.0000 0.02970  0.30400  0.89890  Biso   1.000  H
  H87      1.0000 0.97030  0.80400  0.60110  Biso   1.000  H
  H88      1.0000 0.02970  0.69600  0.60110  Biso   1.000  H
  H89      1.0000 0.19600  0.89890  0.97030  Biso   1.000  H
  H90      1.0000 0.80400  0.60110  0.97030  Biso   1.000  H
  H91      1.0000 0.19600  0.10110  0.52970  Biso   1.000  H
  H92      1.0000 0.80400  0.39890  0.52970  Biso   1.000  H
  H93      1.0000 0.89890  0.97030  0.19600  Biso   1.000  H
  H94      1.0000 0.60110  0.97030  0.80400  Biso   1.000  H
  H95      1.0000 0.10110  0.52970  0.19600  Biso   1.000  H
  H96      1.0000 0.39890  0.52970  0.80400  Biso   1.000  H
  C145     1.0000 0.57140  0.38860  0.65710  Biso   1.000  C
  C146     1.0000 0.42860  0.11140  0.65710  Biso   1.000  C
  C147     1.0000 0.57140  0.61140  0.84290  Biso   1.000  C
  C148     1.0000 0.42860  0.88860  0.84290  Biso   1.000  C
  C149     1.0000 0.38860  0.65710  0.57140  Biso   1.000  C
  C150     1.0000 0.61140  0.84290  0.57140  Biso   1.000  C
  C151     1.0000 0.38860  0.34290  0.92860  Biso   1.000  C
  C152     1.0000 0.61140  0.15710  0.92860  Biso   1.000  C
  C153     1.0000 0.65710  0.57140  0.38860  Biso   1.000  C
  C154     1.0000 0.84290  0.57140  0.61140  Biso   1.000  C
  C155     1.0000 0.34290  0.92860  0.38860  Biso   1.000  C
  C156     1.0000 0.15710  0.92860  0.61140  Biso   1.000  C
  C157     1.0000 0.07140  0.88860  0.15710  Biso   1.000  C
  C158     1.0000 0.92860  0.61140  0.15710  Biso   1.000  C
  C159     1.0000 0.07140  0.11140  0.34290  Biso   1.000  C
  C160     1.0000 0.92860  0.38860  0.34290  Biso   1.000  C
  C161     1.0000 0.88860  0.15710  0.07140  Biso   1.000  C
  C162     1.0000 0.11140  0.34290  0.07140  Biso   1.000  C
  C163     1.0000 0.88860  0.84290  0.42860  Biso   1.000  C
  C164     1.0000 0.11140  0.65710  0.42860  Biso   1.000  C
  C165     1.0000 0.15710  0.07140  0.88860  Biso   1.000  C
  C166     1.0000 0.34290  0.07140  0.11140  Biso   1.000  C
  C167     1.0000 0.84290  0.42860  0.88860  Biso   1.000  C
  C168     1.0000 0.65710  0.42860  0.11140  Biso   1.000  C
  C169     1.0000 0.42860  0.61140  0.34290  Biso   1.000  C
  C170     1.0000 0.57140  0.88860  0.34290  Biso   1.000  C
  C171     1.0000 0.42860  0.38860  0.15710  Biso   1.000  C
  C172     1.0000 0.57140  0.11140  0.15710  Biso   1.000  C
  C173     1.0000 0.61140  0.34290  0.42860  Biso   1.000  C
  C174     1.0000 0.38860  0.15710  0.42860  Biso   1.000  C
  C175     1.0000 0.61140  0.65710  0.07140  Biso   1.000  C
  C176     1.0000 0.38860  0.84290  0.07140  Biso   1.000  C
  C177     1.0000 0.34290  0.42860  0.61140  Biso   1.000  C
  C178     1.0000 0.15710  0.42860  0.38860  Biso   1.000  C
  C179     1.0000 0.65710  0.07140  0.61140  Biso   1.000  C
  C180     1.0000 0.84290  0.07140  0.38860  Biso   1.000  C
  C181     1.0000 0.92860  0.11140  0.84290  Biso   1.000  C
  C182     1.0000 0.07140  0.38860  0.84290  Biso   1.000  C
  C183     1.0000 0.92860  0.88860  0.65710  Biso   1.000  C
  C184     1.0000 0.07140  0.61140  0.65710  Biso   1.000  C
  C185     1.0000 0.11140  0.84290  0.92860  Biso   1.000  C
  C186     1.0000 0.88860  0.65710  0.92860  Biso   1.000  C
  C187     1.0000 0.11140  0.15710  0.57140  Biso   1.000  C
  C188     1.0000 0.88860  0.34290  0.57140  Biso   1.000  C
  C189     1.0000 0.84290  0.92860  0.11140  Biso   1.000  C
  C190     1.0000 0.65710  0.92860  0.88860  Biso   1.000  C
  C191     1.0000 0.15710  0.57140  0.11140  Biso   1.000  C
  C192     1.0000 0.34290  0.57140  0.88860  Biso   1.000  C
  H97      1.0000 0.58830  0.41400  0.61640  Biso   1.000  H
  H98      1.0000 0.41170  0.08600  0.61640  Biso   1.000  H
  H99      1.0000 0.58830  0.58600  0.88360  Biso   1.000  H
  H100     1.0000 0.41170  0.91400  0.88360  Biso   1.000  H
  H101     1.0000 0.41400  0.61640  0.58830  Biso   1.000  H
  H102     1.0000 0.58600  0.88360  0.58830  Biso   1.000  H
  H103     1.0000 0.41400  0.38360  0.91170  Biso   1.000  H
  H104     1.0000 0.58600  0.11640  0.91170  Biso   1.000  H
  H105     1.0000 0.61640  0.58830  0.41400  Biso   1.000  H
  H106     1.0000 0.88360  0.58830  0.58600  Biso   1.000  H
  H107     1.0000 0.38360  0.91170  0.41400  Biso   1.000  H
  H108     1.0000 0.11640  0.91170  0.58600  Biso   1.000  H
  H109     1.0000 0.08830  0.91400  0.11640  Biso   1.000  H
  H110     1.0000 0.91170  0.58600  0.11640  Biso   1.000  H
  H111     1.0000 0.08830  0.08600  0.38360  Biso   1.000  H
  H112     1.0000 0.91170  0.41400  0.38360  Biso   1.000  H
  H113     1.0000 0.91400  0.11640  0.08830  Biso   1.000  H
  H114     1.0000 0.08600  0.38360  0.08830  Biso   1.000  H
  H115     1.0000 0.91400  0.88360  0.41170  Biso   1.000  H
  H116     1.0000 0.08600  0.61640  0.41170  Biso   1.000  H
  H117     1.0000 0.11640  0.08830  0.91400  Biso   1.000  H
  H118     1.0000 0.38360  0.08830  0.08600  Biso   1.000  H
  H119     1.0000 0.88360  0.41170  0.91400  Biso   1.000  H
  H120     1.0000 0.61640  0.41170  0.08600  Biso   1.000  H
  H121     1.0000 0.41170  0.58600  0.38360  Biso   1.000  H
  H122     1.0000 0.58830  0.91400  0.38360  Biso   1.000  H
  H123     1.0000 0.41170  0.41400  0.11640  Biso   1.000  H
  H124     1.0000 0.58830  0.08600  0.11640  Biso   1.000  H
  H125     1.0000 0.58600  0.38360  0.41170  Biso   1.000  H
  H126     1.0000 0.41400  0.11640  0.41170  Biso   1.000  H
  H127     1.0000 0.58600  0.61640  0.08830  Biso   1.000  H
  H128     1.0000 0.41400  0.88360  0.08830  Biso   1.000  H
  H129     1.0000 0.38360  0.41170  0.58600  Biso   1.000  H
  H130     1.0000 0.11640  0.41170  0.41400  Biso   1.000  H
  H131     1.0000 0.61640  0.08830  0.58600  Biso   1.000  H
  H132     1.0000 0.88360  0.08830  0.41400  Biso   1.000  H
  H133     1.0000 0.91170  0.08600  0.88360  Biso   1.000  H
  H134     1.0000 0.08830  0.41400  0.88360  Biso   1.000  H
  H135     1.0000 0.91170  0.91400  0.61640  Biso   1.000  H
  H136     1.0000 0.08830  0.58600  0.61640  Biso   1.000  H
  H137     1.0000 0.08600  0.88360  0.91170  Biso   1.000  H
  H138     1.0000 0.91400  0.61640  0.91170  Biso   1.000  H
  H139     1.0000 0.08600  0.11640  0.58830  Biso   1.000  H
  H140     1.0000 0.91400  0.38360  0.58830  Biso   1.000  H
  H141     1.0000 0.88360  0.91170  0.08600  Biso   1.000  H
  H142     1.0000 0.61640  0.91170  0.91400  Biso   1.000  H
  H143     1.0000 0.11640  0.58830  0.08600  Biso   1.000  H
  H144     1.0000 0.38360  0.58830  0.91400  Biso   1.000  H
  Si1      1.0000 0.50000  0.50000  0.50000  Biso   1.000  Si
  Si2      1.0000 0.50000  0.00000  0.50000  Biso   1.000  Si
  Si3      1.0000 0.50000  0.50000  0.00000  Biso   1.000  Si
  Si4      1.0000 0.50000  0.00000  0.00000  Biso   1.000  Si
  Si5      1.0000 0.00000  0.50000  0.50000  Biso   1.000  Si
  Si6      1.0000 0.00000  0.00000  0.50000  Biso   1.000  Si
  Si7      1.0000 0.00000  0.00000  0.00000  Biso   1.000  Si
  Si8      1.0000 0.00000  0.50000  0.00000  Biso   1.000  Si
  F1       1.0000 0.58904  0.48748  0.51505  Biso   1.000  F
  F2       1.0000 0.41096  0.01252  0.51505  Biso   1.000  F
  F3       1.0000 0.58904  0.51252  0.98495  Biso   1.000  F
  F4       1.0000 0.41096  0.98748  0.98495  Biso   1.000  F
  F5       1.0000 0.48748  0.51505  0.58904  Biso   1.000  F
  F6       1.0000 0.51252  0.98495  0.58904  Biso   1.000  F
  F7       1.0000 0.48748  0.48495  0.91096  Biso   1.000  F
  F8       1.0000 0.51252  0.01505  0.91096  Biso   1.000  F
  F9       1.0000 0.51505  0.58904  0.48748  Biso   1.000  F
  F10      1.0000 0.98495  0.58904  0.51252  Biso   1.000  F
  F11      1.0000 0.48495  0.91096  0.48748  Biso   1.000  F
  F12      1.0000 0.01505  0.91096  0.51252  Biso   1.000  F
  F13      1.0000 0.08904  0.98748  0.01505  Biso   1.000  F
  F14      1.0000 0.91096  0.51252  0.01505  Biso   1.000  F
  F15      1.0000 0.08904  0.01252  0.48495  Biso   1.000  F
  F16      1.0000 0.91096  0.48748  0.48495  Biso   1.000  F
  F17      1.0000 0.98748  0.01505  0.08904  Biso   1.000  F
  F18      1.0000 0.01252  0.48495  0.08904  Biso   1.000  F
  F19      1.0000 0.98748  0.98495  0.41096  Biso   1.000  F
  F20      1.0000 0.01252  0.51505  0.41096  Biso   1.000  F
  F21      1.0000 0.01505  0.08904  0.98748  Biso   1.000  F
  F22      1.0000 0.48495  0.08904  0.01252  Biso   1.000  F
  F23      1.0000 0.98495  0.41096  0.98748  Biso   1.000  F
  F24      1.0000 0.51505  0.41096  0.01252  Biso   1.000  F
  F25      1.0000 0.41096  0.51252  0.48495  Biso   1.000  F
  F26      1.0000 0.58904  0.98748  0.48495  Biso   1.000  F
  F27      1.0000 0.41096  0.48748  0.01505  Biso   1.000  F
  F28      1.0000 0.58904  0.01252  0.01505  Biso   1.000  F
  F29      1.0000 0.51252  0.48495  0.41096  Biso   1.000  F
  F30      1.0000 0.48748  0.01505  0.41096  Biso   1.000  F
  F31      1.0000 0.51252  0.51505  0.08904  Biso   1.000  F
  F32      1.0000 0.48748  0.98495  0.08904  Biso   1.000  F
  F33      1.0000 0.48495  0.41096  0.51252  Biso   1.000  F
  F34      1.0000 0.01505  0.41096  0.48748  Biso   1.000  F
  F35      1.0000 0.51505  0.08904  0.51252  Biso   1.000  F
  F36      1.0000 0.98495  0.08904  0.48748  Biso   1.000  F
  F37      1.0000 0.91096  0.01252  0.98495  Biso   1.000  F
  F38      1.0000 0.08904  0.48748  0.98495  Biso   1.000  F
  F39      1.0000 0.91096  0.98748  0.51505  Biso   1.000  F
  F40      1.0000 0.08904  0.51252  0.51505  Biso   1.000  F
  F41      1.0000 0.01252  0.98495  0.91096  Biso   1.000  F
  F42      1.0000 0.98748  0.51505  0.91096  Biso   1.000  F
  F43      1.0000 0.01252  0.01505  0.58904  Biso   1.000  F
  F44      1.0000 0.98748  0.48495  0.58904  Biso   1.000  F
  F45      1.0000 0.98495  0.91096  0.01252  Biso   1.000  F
  F46      1.0000 0.51505  0.91096  0.98748  Biso   1.000  F
  F47      1.0000 0.01505  0.58904  0.01252  Biso   1.000  F
  F48      1.0000 0.48495  0.58904  0.98748  Biso   1.000  F
  Si9      1.0000 0.75000  0.25000  0.75000  Biso   1.000  Si
  Si10     1.0000 0.25000  0.25000  0.75000  Biso   1.000  Si
  Si11     1.0000 0.75000  0.75000  0.75000  Biso   1.000  Si
  Si12     1.0000 0.25000  0.75000  0.75000  Biso   1.000  Si
  Si13     1.0000 0.75000  0.75000  0.25000  Biso   1.000  Si
  Si14     1.0000 0.25000  0.75000  0.25000  Biso   1.000  Si
  Si15     1.0000 0.25000  0.25000  0.25000  Biso   1.000  Si
  Si16     1.0000 0.75000  0.25000  0.25000  Biso   1.000  Si
  F49      1.0000 0.69920  0.30080  0.80080  Biso   1.000  F
  F50      1.0000 0.30080  0.19920  0.80080  Biso   1.000  F
  F51      1.0000 0.69920  0.69920  0.69920  Biso   1.000  F
  F52      1.0000 0.30080  0.80080  0.69920  Biso   1.000  F
  F53      1.0000 0.80080  0.69920  0.30080  Biso   1.000  F
  F54      1.0000 0.19920  0.80080  0.30080  Biso   1.000  F
  F55      1.0000 0.19920  0.19920  0.19920  Biso   1.000  F
  F56      1.0000 0.80080  0.30080  0.19920  Biso   1.000  F
  F57      1.0000 0.30080  0.69920  0.19920  Biso   1.000  F
  F58      1.0000 0.69920  0.80080  0.19920  Biso   1.000  F
  F59      1.0000 0.30080  0.30080  0.30080  Biso   1.000  F
  F60      1.0000 0.69920  0.19920  0.30080  Biso   1.000  F
  F61      1.0000 0.19920  0.30080  0.69920  Biso   1.000  F
  F62      1.0000 0.80080  0.19920  0.69920  Biso   1.000  F
  F63      1.0000 0.80080  0.80080  0.80080  Biso   1.000  F
  F64      1.0000 0.19920  0.69920  0.80080  Biso   1.000  F
  F65      1.0000 0.78400  0.21800  0.82210  Biso   1.000  F
  F66      1.0000 0.21600  0.28200  0.82210  Biso   1.000  F
  F67      1.0000 0.78400  0.78200  0.67790  Biso   1.000  F
  F68      1.0000 0.21600  0.71800  0.67790  Biso   1.000  F
  F69      1.0000 0.21800  0.82210  0.78400  Biso   1.000  F
  F70      1.0000 0.78200  0.67790  0.78400  Biso   1.000  F
  F71      1.0000 0.21800  0.17790  0.71600  Biso   1.000  F
  F72      1.0000 0.78200  0.32210  0.71600  Biso   1.000  F
  F73      1.0000 0.82210  0.78400  0.21800  Biso   1.000  F
  F74      1.0000 0.67790  0.78400  0.78200  Biso   1.000  F
  F75      1.0000 0.17790  0.71600  0.21800  Biso   1.000  F
  F76      1.0000 0.32210  0.71600  0.78200  Biso   1.000  F
  F77      1.0000 0.28400  0.71800  0.32210  Biso   1.000  F
  F78      1.0000 0.71600  0.78200  0.32210  Biso   1.000  F
  F79      1.0000 0.28400  0.28200  0.17790  Biso   1.000  F
  F80      1.0000 0.71600  0.21800  0.17790  Biso   1.000  F
  F81      1.0000 0.71800  0.32210  0.28400  Biso   1.000  F
  F82      1.0000 0.28200  0.17790  0.28400  Biso   1.000  F
  F83      1.0000 0.71800  0.67790  0.21600  Biso   1.000  F
  F84      1.0000 0.28200  0.82210  0.21600  Biso   1.000  F
  F85      1.0000 0.32210  0.28400  0.71800  Biso   1.000  F
  F86      1.0000 0.17790  0.28400  0.28200  Biso   1.000  F
  F87      1.0000 0.67790  0.21600  0.71800  Biso   1.000  F
  F88      1.0000 0.82210  0.21600  0.28200  Biso   1.000  F
  F89      1.0000 0.21600  0.78200  0.17790  Biso   1.000  F
  F90      1.0000 0.78400  0.71800  0.17790  Biso   1.000  F
  F91      1.0000 0.21600  0.21800  0.32210  Biso   1.000  F
  F92      1.0000 0.78400  0.28200  0.32210  Biso   1.000  F
  F93      1.0000 0.78200  0.17790  0.21600  Biso   1.000  F
  F94      1.0000 0.21800  0.32210  0.21600  Biso   1.000  F
  F95      1.0000 0.78200  0.82210  0.28400  Biso   1.000  F
  F96      1.0000 0.21800  0.67790  0.28400  Biso   1.000  F
  F97      1.0000 0.17790  0.21600  0.78200  Biso   1.000  F
  F98      1.0000 0.32210  0.21600  0.21800  Biso   1.000  F
  F99      1.0000 0.82210  0.28400  0.78200  Biso   1.000  F
  F100     1.0000 0.67790  0.28400  0.21800  Biso   1.000  F
  F101     1.0000 0.71600  0.28200  0.67790  Biso   1.000  F
  F102     1.0000 0.28400  0.21800  0.67790  Biso   1.000  F
  F103     1.0000 0.71600  0.71800  0.82210  Biso   1.000  F
  F104     1.0000 0.28400  0.78200  0.82210  Biso   1.000  F
  F105     1.0000 0.28200  0.67790  0.71600  Biso   1.000  F
  F106     1.0000 0.71800  0.82210  0.71600  Biso   1.000  F
  F107     1.0000 0.28200  0.32210  0.78400  Biso   1.000  F
  F108     1.0000 0.71800  0.17790  0.78400  Biso   1.000  F
  F109     1.0000 0.67790  0.71600  0.28200  Biso   1.000  F
  F110     1.0000 0.82210  0.71600  0.71800  Biso   1.000  F
  F111     1.0000 0.32210  0.78400  0.28200  Biso   1.000  F
  F112     1.0000 0.17790  0.78400  0.71800  Biso   1.000  F
  F113     1.0000 0.75300  0.18500  0.80700  Biso   1.000  F
  F114     1.0000 0.24700  0.31500  0.80700  Biso   1.000  F
  F115     1.0000 0.75300  0.81500  0.69300  Biso   1.000  F
  F116     1.0000 0.24700  0.68500  0.69300  Biso   1.000  F
  F117     1.0000 0.18500  0.80700  0.75300  Biso   1.000  F
  F118     1.0000 0.81500  0.69300  0.75300  Biso   1.000  F
  F119     1.0000 0.18500  0.19300  0.74700  Biso   1.000  F
  F120     1.0000 0.81500  0.30700  0.74700  Biso   1.000  F
  F121     1.0000 0.80700  0.75300  0.18500  Biso   1.000  F
  F122     1.0000 0.69300  0.75300  0.81500  Biso   1.000  F
  F123     1.0000 0.19300  0.74700  0.18500  Biso   1.000  F
  F124     1.0000 0.30700  0.74700  0.81500  Biso   1.000  F
  F125     1.0000 0.25300  0.68500  0.30700  Biso   1.000  F
  F126     1.0000 0.74700  0.81500  0.30700  Biso   1.000  F
  F127     1.0000 0.25300  0.31500  0.19300  Biso   1.000  F
  F128     1.0000 0.74700  0.18500  0.19300  Biso   1.000  F
  F129     1.0000 0.68500  0.30700  0.25300  Biso   1.000  F
  F130     1.0000 0.31500  0.19300  0.25300  Biso   1.000  F
  F131     1.0000 0.68500  0.69300  0.24700  Biso   1.000  F
  F132     1.0000 0.31500  0.80700  0.24700  Biso   1.000  F
  F133     1.0000 0.30700  0.25300  0.68500  Biso   1.000  F
  F134     1.0000 0.19300  0.25300  0.31500  Biso   1.000  F
  F135     1.0000 0.69300  0.24700  0.68500  Biso   1.000  F
  F136     1.0000 0.80700  0.24700  0.31500  Biso   1.000  F
  F137     1.0000 0.24700  0.81500  0.19300  Biso   1.000  F
  F138     1.0000 0.75300  0.68500  0.19300  Biso   1.000  F
  F139     1.0000 0.24700  0.18500  0.30700  Biso   1.000  F
  F140     1.0000 0.75300  0.31500  0.30700  Biso   1.000  F
  F141     1.0000 0.81500  0.19300  0.24700  Biso   1.000  F
  F142     1.0000 0.18500  0.30700  0.24700  Biso   1.000  F
  F143     1.0000 0.81500  0.80700  0.25300  Biso   1.000  F
  F144     1.0000 0.18500  0.69300  0.25300  Biso   1.000  F
  F145     1.0000 0.19300  0.24700  0.81500  Biso   1.000  F
  F146     1.0000 0.30700  0.24700  0.18500  Biso   1.000  F
  F147     1.0000 0.80700  0.25300  0.81500  Biso   1.000  F
  F148     1.0000 0.69300  0.25300  0.18500  Biso   1.000  F
  F149     1.0000 0.74700  0.31500  0.69300  Biso   1.000  F
  F150     1.0000 0.25300  0.18500  0.69300  Biso   1.000  F
  F151     1.0000 0.74700  0.68500  0.80700  Biso   1.000  F
  F152     1.0000 0.25300  0.81500  0.80700  Biso   1.000  F
  F153     1.0000 0.31500  0.69300  0.74700  Biso   1.000  F
  F154     1.0000 0.68500  0.80700  0.74700  Biso   1.000  F
  F155     1.0000 0.31500  0.30700  0.75300  Biso   1.000  F
  F156     1.0000 0.68500  0.19300  0.75300  Biso   1.000  F
  F157     1.0000 0.69300  0.74700  0.31500  Biso   1.000  F
  F158     1.0000 0.80700  0.74700  0.68500  Biso   1.000  F
  F159     1.0000 0.30700  0.75300  0.31500  Biso   1.000  F
  F160     1.0000 0.19300  0.75300  0.68500  Biso   1.000  F
