data_image0
_cell_length_a       23.3872
_cell_length_b       12.8935
_cell_length_c       7.2132
_cell_angle_alpha    90
_cell_angle_beta     92.124
_cell_angle_gamma    90

_symmetry_space_group_name_H-M    "P 1"
_symmetry_int_tables_number       1

loop_
  _symmetry_equiv_pos_as_xyz
  'x, y, z'

loop_
  _atom_site_label
  _atom_site_occupancy
  _atom_site_fract_x
  _atom_site_fract_y
  _atom_site_fract_z
  _atom_site_thermal_displace_type
  _atom_site_B_iso_or_equiv
  _atom_site_type_symbol
  I1       1.0000 0.43787  0.11395  0.00751  Biso   1.000  I
  I2       1.0000 0.56213  0.11395  0.49249  Biso   1.000  I
  I3       1.0000 0.93787  0.61395  0.00751  Biso   1.000  I
  I4       1.0000 0.06213  0.61395  0.49249  Biso   1.000  I
  I5       1.0000 0.56213  0.88605  0.99249  Biso   1.000  I
  I6       1.0000 0.43787  0.88605  0.50751  Biso   1.000  I
  I7       1.0000 0.06213  0.38605  0.99249  Biso   1.000  I
  I8       1.0000 0.93787  0.38605  0.50751  Biso   1.000  I
  Cu1      1.0000 0.45410  0.07197  0.36080  Biso   1.000  Cu
  Cu2      1.0000 0.54590  0.07197  0.13920  Biso   1.000  Cu
  Cu3      1.0000 0.95410  0.57197  0.36080  Biso   1.000  Cu
  Cu4      1.0000 0.04590  0.57197  0.13920  Biso   1.000  Cu
  Cu5      1.0000 0.54590  0.92803  0.63920  Biso   1.000  Cu
  Cu6      1.0000 0.45410  0.92803  0.86080  Biso   1.000  Cu
  Cu7      1.0000 0.04590  0.42803  0.63920  Biso   1.000  Cu
  Cu8      1.0000 0.95410  0.42803  0.86080  Biso   1.000  Cu
  N1       1.0000 0.38096  0.30170  0.66900  Biso   1.000  N
  N2       1.0000 0.61904  0.30170  0.83100  Biso   1.000  N
  N3       1.0000 0.88096  0.80170  0.66900  Biso   1.000  N
  N4       1.0000 0.11904  0.80170  0.83100  Biso   1.000  N
  N5       1.0000 0.61904  0.69830  0.33100  Biso   1.000  N
  N6       1.0000 0.38096  0.69830  0.16900  Biso   1.000  N
  N7       1.0000 0.11904  0.19830  0.33100  Biso   1.000  N
  N8       1.0000 0.88096  0.19830  0.16900  Biso   1.000  N
  O1       1.0000 0.35385  0.43200  0.85270  Biso   1.000  O
  O2       1.0000 0.64615  0.43200  0.64730  Biso   1.000  O
  O3       1.0000 0.85385  0.93200  0.85270  Biso   1.000  O
  O4       1.0000 0.14615  0.93200  0.64730  Biso   1.000  O
  O5       1.0000 0.64615  0.56800  0.14730  Biso   1.000  O
  O6       1.0000 0.35385  0.56800  0.35270  Biso   1.000  O
  O7       1.0000 0.14615  0.06800  0.14730  Biso   1.000  O
  O8       1.0000 0.85385  0.06800  0.35270  Biso   1.000  O
  C1       1.0000 0.50000  0.60710  0.75000  Biso   1.000  C
  C2       1.0000 0.00000  0.10710  0.75000  Biso   1.000  C
  C3       1.0000 0.50000  0.39290  0.25000  Biso   1.000  C
  C4       1.0000 0.00000  0.89290  0.25000  Biso   1.000  C
  H1       1.0000 0.50000  0.67930  0.75000  Biso   1.000  H
  H2       1.0000 0.00000  0.17930  0.75000  Biso   1.000  H
  H3       1.0000 0.50000  0.32070  0.25000  Biso   1.000  H
  H4       1.0000 0.00000  0.82070  0.25000  Biso   1.000  H
  N9       1.0000 0.42089  0.25763  0.55970  Biso   1.000  N
  N10      1.0000 0.57911  0.25763  0.94030  Biso   1.000  N
  N11      1.0000 0.92089  0.75763  0.55970  Biso   1.000  N
  N12      1.0000 0.07911  0.75763  0.94030  Biso   1.000  N
  N13      1.0000 0.57911  0.74237  0.44030  Biso   1.000  N
  N14      1.0000 0.42089  0.74237  0.05970  Biso   1.000  N
  N15      1.0000 0.07911  0.24237  0.44030  Biso   1.000  N
  N16      1.0000 0.92089  0.24237  0.05970  Biso   1.000  N
  C5       1.0000 0.44921  0.55390  0.75470  Biso   1.000  C
  C6       1.0000 0.55079  0.55390  0.74530  Biso   1.000  C
  C7       1.0000 0.94921  0.05390  0.75470  Biso   1.000  C
  C8       1.0000 0.05079  0.05390  0.74530  Biso   1.000  C
  C9       1.0000 0.55079  0.44610  0.24530  Biso   1.000  C
  C10      1.0000 0.44921  0.44610  0.25470  Biso   1.000  C
  C11      1.0000 0.05079  0.94610  0.24530  Biso   1.000  C
  C12      1.0000 0.94921  0.94610  0.25470  Biso   1.000  C
  H5       1.0000 0.41490  0.59010  0.76010  Biso   1.000  H
  H6       1.0000 0.58510  0.59010  0.73990  Biso   1.000  H
  H7       1.0000 0.91490  0.09010  0.76010  Biso   1.000  H
  H8       1.0000 0.08510  0.09010  0.73990  Biso   1.000  H
  H9       1.0000 0.58510  0.40990  0.23990  Biso   1.000  H
  H10      1.0000 0.41490  0.40990  0.26010  Biso   1.000  H
  H11      1.0000 0.08510  0.90990  0.23990  Biso   1.000  H
  H12      1.0000 0.91490  0.90990  0.26010  Biso   1.000  H
  N17      1.0000 0.40072  0.17080  0.49650  Biso   1.000  N
  N18      1.0000 0.59928  0.17080  0.00350  Biso   1.000  N
  N19      1.0000 0.90072  0.67080  0.49650  Biso   1.000  N
  N20      1.0000 0.09928  0.67080  0.00350  Biso   1.000  N
  N21      1.0000 0.59928  0.82920  0.50350  Biso   1.000  N
  N22      1.0000 0.40072  0.82920  0.99650  Biso   1.000  N
  N23      1.0000 0.09928  0.32920  0.50350  Biso   1.000  N
  N24      1.0000 0.90072  0.32920  0.99650  Biso   1.000  N
  C13      1.0000 0.44879  0.44552  0.75140  Biso   1.000  C
  C14      1.0000 0.55121  0.44552  0.74860  Biso   1.000  C
  C15      1.0000 0.94879  0.94552  0.75140  Biso   1.000  C
  C16      1.0000 0.05121  0.94552  0.74860  Biso   1.000  C
  C17      1.0000 0.55121  0.55448  0.24860  Biso   1.000  C
  C18      1.0000 0.44879  0.55448  0.25140  Biso   1.000  C
  C19      1.0000 0.05121  0.05448  0.24860  Biso   1.000  C
  C20      1.0000 0.94879  0.05448  0.25140  Biso   1.000  C
  C21      1.0000 0.50000  0.39130  0.75000  Biso   1.000  C
  C22      1.0000 0.00000  0.89130  0.75000  Biso   1.000  C
  C23      1.0000 0.50000  0.60870  0.25000  Biso   1.000  C
  C24      1.0000 0.00000  0.10870  0.25000  Biso   1.000  C
  H13      1.0000 0.50000  0.31910  0.75000  Biso   1.000  H
  H14      1.0000 0.00000  0.81910  0.75000  Biso   1.000  H
  H15      1.0000 0.50000  0.68090  0.25000  Biso   1.000  H
  H16      1.0000 0.00000  0.18090  0.25000  Biso   1.000  H
  C25      1.0000 0.39202  0.39610  0.76440  Biso   1.000  C
  C26      1.0000 0.60798  0.39610  0.73560  Biso   1.000  C
  C27      1.0000 0.89202  0.89610  0.76440  Biso   1.000  C
  C28      1.0000 0.10798  0.89610  0.73560  Biso   1.000  C
  C29      1.0000 0.60798  0.60390  0.23560  Biso   1.000  C
  C30      1.0000 0.39202  0.60390  0.26440  Biso   1.000  C
  C31      1.0000 0.10798  0.10390  0.23560  Biso   1.000  C
  C32      1.0000 0.89202  0.10390  0.26440  Biso   1.000  C
  C33      1.0000 0.33308  0.23870  0.67290  Biso   1.000  C
  C34      1.0000 0.66692  0.23870  0.82710  Biso   1.000  C
  C35      1.0000 0.83308  0.73870  0.67290  Biso   1.000  C
  C36      1.0000 0.16692  0.73870  0.82710  Biso   1.000  C
  C37      1.0000 0.66692  0.76130  0.32710  Biso   1.000  C
  C38      1.0000 0.33308  0.76130  0.17290  Biso   1.000  C
  C39      1.0000 0.16692  0.26130  0.32710  Biso   1.000  C
  C40      1.0000 0.83308  0.26130  0.17290  Biso   1.000  C
  C41      1.0000 0.25643  0.08090  0.61080  Biso   1.000  C
  C42      1.0000 0.74357  0.08090  0.88920  Biso   1.000  C
  C43      1.0000 0.75643  0.58090  0.61080  Biso   1.000  C
  C44      1.0000 0.24357  0.58090  0.88920  Biso   1.000  C
  C45      1.0000 0.74357  0.91910  0.38920  Biso   1.000  C
  C46      1.0000 0.25643  0.91910  0.11080  Biso   1.000  C
  C47      1.0000 0.24357  0.41910  0.38920  Biso   1.000  C
  C48      1.0000 0.75643  0.41910  0.11080  Biso   1.000  C
  H17      1.0000 0.22940  0.02870  0.59090  Biso   1.000  H
  H18      1.0000 0.77060  0.02870  0.90910  Biso   1.000  H
  H19      1.0000 0.72940  0.52870  0.59090  Biso   1.000  H
  H20      1.0000 0.27060  0.52870  0.90910  Biso   1.000  H
  H21      1.0000 0.77060  0.97130  0.40910  Biso   1.000  H
  H22      1.0000 0.22940  0.97130  0.09090  Biso   1.000  H
  H23      1.0000 0.27060  0.47130  0.40910  Biso   1.000  H
  H24      1.0000 0.72940  0.47130  0.09090  Biso   1.000  H
  C49      1.0000 0.24358  0.16470  0.72480  Biso   1.000  C
  C50      1.0000 0.75642  0.16470  0.77520  Biso   1.000  C
  C51      1.0000 0.74358  0.66470  0.72480  Biso   1.000  C
  C52      1.0000 0.25642  0.66470  0.77520  Biso   1.000  C
  C53      1.0000 0.75642  0.83530  0.27520  Biso   1.000  C
  C54      1.0000 0.24358  0.83530  0.22480  Biso   1.000  C
  C55      1.0000 0.25642  0.33530  0.27520  Biso   1.000  C
  C56      1.0000 0.74358  0.33530  0.22480  Biso   1.000  C
  H25      1.0000 0.20830  0.16570  0.78040  Biso   1.000  H
  H26      1.0000 0.79170  0.16570  0.71960  Biso   1.000  H
  H27      1.0000 0.70830  0.66570  0.78040  Biso   1.000  H
  H28      1.0000 0.29170  0.66570  0.71960  Biso   1.000  H
  H29      1.0000 0.79170  0.83430  0.21960  Biso   1.000  H
  H30      1.0000 0.20830  0.83430  0.28040  Biso   1.000  H
  H31      1.0000 0.29170  0.33430  0.21960  Biso   1.000  H
  H32      1.0000 0.70830  0.33430  0.28040  Biso   1.000  H
  C57      1.0000 0.28060  0.24580  0.75860  Biso   1.000  C
  C58      1.0000 0.71940  0.24580  0.74140  Biso   1.000  C
  C59      1.0000 0.78060  0.74580  0.75860  Biso   1.000  C
  C60      1.0000 0.21940  0.74580  0.74140  Biso   1.000  C
  C61      1.0000 0.71940  0.75420  0.24140  Biso   1.000  C
  C62      1.0000 0.28060  0.75420  0.25860  Biso   1.000  C
  C63      1.0000 0.21940  0.25420  0.24140  Biso   1.000  C
  C64      1.0000 0.78060  0.25420  0.25860  Biso   1.000  C
  H33      1.0000 0.27140  0.30170  0.83340  Biso   1.000  H
  H34      1.0000 0.72860  0.30170  0.66660  Biso   1.000  H
  H35      1.0000 0.77140  0.80170  0.83340  Biso   1.000  H
  H36      1.0000 0.22860  0.80170  0.66660  Biso   1.000  H
  H37      1.0000 0.72860  0.69830  0.16660  Biso   1.000  H
  H38      1.0000 0.27140  0.69830  0.33340  Biso   1.000  H
  H39      1.0000 0.22860  0.19830  0.16660  Biso   1.000  H
  H40      1.0000 0.77140  0.19830  0.33340  Biso   1.000  H
  C65      1.0000 0.30827  0.07390  0.52750  Biso   1.000  C
  C66      1.0000 0.69173  0.07390  0.97250  Biso   1.000  C
  C67      1.0000 0.80827  0.57390  0.52750  Biso   1.000  C
  C68      1.0000 0.19173  0.57390  0.97250  Biso   1.000  C
  C69      1.0000 0.69173  0.92610  0.47250  Biso   1.000  C
  C70      1.0000 0.30827  0.92610  0.02750  Biso   1.000  C
  C71      1.0000 0.19173  0.42610  0.47250  Biso   1.000  C
  C72      1.0000 0.80827  0.42610  0.02750  Biso   1.000  C
  H41      1.0000 0.31740  0.01790  0.45270  Biso   1.000  H
  H42      1.0000 0.68260  0.01790  0.04730  Biso   1.000  H
  H43      1.0000 0.81740  0.51790  0.45270  Biso   1.000  H
  H44      1.0000 0.18260  0.51790  0.04730  Biso   1.000  H
  H45      1.0000 0.68260  0.98210  0.54730  Biso   1.000  H
  H46      1.0000 0.31740  0.98210  0.95270  Biso   1.000  H
  H47      1.0000 0.18260  0.48210  0.54730  Biso   1.000  H
  H48      1.0000 0.81740  0.48210  0.95270  Biso   1.000  H
  C73      1.0000 0.34640  0.15530  0.56150  Biso   1.000  C
  C74      1.0000 0.65360  0.15530  0.93850  Biso   1.000  C
  C75      1.0000 0.84640  0.65530  0.56150  Biso   1.000  C
  C76      1.0000 0.15360  0.65530  0.93850  Biso   1.000  C
  C77      1.0000 0.65360  0.84470  0.43850  Biso   1.000  C
  C78      1.0000 0.34640  0.84470  0.06150  Biso   1.000  C
  C79      1.0000 0.15360  0.34470  0.43850  Biso   1.000  C
  C80      1.0000 0.84640  0.34470  0.06150  Biso   1.000  C
