data_image0
_cell_length_a       12.56
_cell_length_b       9.927
_cell_length_c       26.238
_cell_angle_alpha    90
_cell_angle_beta     115.121
_cell_angle_gamma    90

_symmetry_space_group_name_H-M    "P 1"
_symmetry_int_tables_number       1

loop_
  _symmetry_equiv_pos_as_xyz
  'x, y, z'

loop_
  _atom_site_label
  _atom_site_occupancy
  _atom_site_fract_x
  _atom_site_fract_y
  _atom_site_fract_z
  _atom_site_thermal_displace_type
  _atom_site_B_iso_or_equiv
  _atom_site_type_symbol
  Cu1      1.0000 0.60005  0.11091  0.48850  Biso   1.000  Cu
  Cu2      1.0000 0.39995  0.11091  0.01150  Biso   1.000  Cu
  Cu3      1.0000 0.39995  0.88909  0.51150  Biso   1.000  Cu
  Cu4      1.0000 0.60005  0.88909  0.98850  Biso   1.000  Cu
  Cu5      1.0000 0.02289  0.61675  0.96573  Biso   1.000  Cu
  Cu6      1.0000 0.97711  0.61675  0.53427  Biso   1.000  Cu
  Cu7      1.0000 0.97711  0.38325  0.03427  Biso   1.000  Cu
  Cu8      1.0000 0.02289  0.38325  0.46573  Biso   1.000  Cu
  V1       1.0000 0.53314  0.35910  0.57257  Biso   1.000  V
  V2       1.0000 0.46686  0.35910  0.92743  Biso   1.000  V
  V3       1.0000 0.46686  0.64090  0.42743  Biso   1.000  V
  V4       1.0000 0.53314  0.64090  0.07257  Biso   1.000  V
  V5       1.0000 0.70621  0.45580  0.51863  Biso   1.000  V
  V6       1.0000 0.29379  0.45580  0.98137  Biso   1.000  V
  V7       1.0000 0.29379  0.54420  0.48137  Biso   1.000  V
  V8       1.0000 0.70621  0.54420  0.01863  Biso   1.000  V
  O1       1.0000 0.66200  0.44470  0.57544  Biso   1.000  O
  O2       1.0000 0.33800  0.44470  0.92456  Biso   1.000  O
  O3       1.0000 0.33800  0.55530  0.42456  Biso   1.000  O
  O4       1.0000 0.66200  0.55530  0.07544  Biso   1.000  O
  O5       1.0000 0.55430  0.32070  0.63591  Biso   1.000  O
  O6       1.0000 0.44570  0.32070  0.86409  Biso   1.000  O
  O7       1.0000 0.44570  0.67930  0.36409  Biso   1.000  O
  O8       1.0000 0.55430  0.67930  0.13591  Biso   1.000  O
  O9       1.0000 0.72560  0.30440  0.49993  Biso   1.000  O
  O10      1.0000 0.27440  0.30440  0.00007  Biso   1.000  O
  O11      1.0000 0.27440  0.69560  0.50007  Biso   1.000  O
  O12      1.0000 0.72560  0.69560  0.99993  Biso   1.000  O
  O13      1.0000 0.51640  0.22180  0.53610  Biso   1.000  O
  O14      1.0000 0.48360  0.22180  0.96390  Biso   1.000  O
  O15      1.0000 0.48360  0.77820  0.46390  Biso   1.000  O
  O16      1.0000 0.51640  0.77820  0.03610  Biso   1.000  O
  O17      1.0000 0.40670  0.46430  0.54081  Biso   1.000  O
  O18      1.0000 0.59330  0.46430  0.95919  Biso   1.000  O
  O19      1.0000 0.59330  0.53570  0.45919  Biso   1.000  O
  O20      1.0000 0.40670  0.53570  0.04081  Biso   1.000  O
  O21      1.0000 0.17060  0.54040  0.96090  Biso   1.000  O
  O22      1.0000 0.82940  0.54040  0.53910  Biso   1.000  O
  O23      1.0000 0.82940  0.45960  0.03910  Biso   1.000  O
  O24      1.0000 0.17060  0.45960  0.46090  Biso   1.000  O
  O25      1.0000 0.00000  0.28280  0.75000  Biso   1.000  O
  O26      1.0000 0.00000  0.71720  0.25000  Biso   1.000  O
  H1       1.0000 0.00000  0.32950  0.78000  Biso   1.000  H
  H2       1.0000 1.00000  0.32950  0.72000  Biso   1.000  H
  H3       1.0000 0.00000  0.67050  0.22000  Biso   1.000  H
  H4       1.0000 0.00000  0.67050  0.28000  Biso   1.000  H
  O27      1.0000 0.79600  0.45250  0.69070  Biso   1.000  O
  O28      1.0000 0.20400  0.45250  0.80930  Biso   1.000  O
  O29      1.0000 0.20400  0.54750  0.30930  Biso   1.000  O
  O30      1.0000 0.79600  0.54750  0.19070  Biso   1.000  O
  H5       1.0000 0.86620  0.47190  0.69430  Biso   1.000  H
  H6       1.0000 0.13380  0.47190  0.80570  Biso   1.000  H
  H7       1.0000 0.13380  0.52810  0.30570  Biso   1.000  H
  H8       1.0000 0.86620  0.52810  0.19430  Biso   1.000  H
  H9       1.0000 0.79320  0.36570  0.70040  Biso   1.000  H
  H10      1.0000 0.20680  0.36570  0.79960  Biso   1.000  H
  H11      1.0000 0.20680  0.63430  0.29960  Biso   1.000  H
  H12      1.0000 0.79320  0.63430  0.20040  Biso   1.000  H
  N1       1.0000 0.07800  0.75680  0.02183  Biso   1.000  N
  N2       1.0000 0.92200  0.75680  0.47817  Biso   1.000  N
  N3       1.0000 0.92200  0.24320  0.97817  Biso   1.000  N
  N4       1.0000 0.07800  0.24320  0.52183  Biso   1.000  N
  N5       1.0000 0.89650  0.53160  0.90446  Biso   1.000  N
  N6       1.0000 0.10350  0.53160  0.59554  Biso   1.000  N
  N7       1.0000 0.10350  0.46840  0.09554  Biso   1.000  N
  N8       1.0000 0.89650  0.46840  0.40446  Biso   1.000  N
  N9       1.0000 0.50350  0.12900  0.40797  Biso   1.000  N
  N10      1.0000 0.49650  0.12900  0.09203  Biso   1.000  N
  N11      1.0000 0.49650  0.87100  0.59203  Biso   1.000  N
  N12      1.0000 0.50350  0.87100  0.90797  Biso   1.000  N
  N13      1.0000 0.71390  0.01950  0.55440  Biso   1.000  N
  N14      1.0000 0.28610  0.01950  0.94560  Biso   1.000  N
  N15      1.0000 0.28610  0.98050  0.44560  Biso   1.000  N
  N16      1.0000 0.71390  0.98050  0.05440  Biso   1.000  N
  C1       1.0000 0.16140  0.97910  0.09240  Biso   1.000  C
  C2       1.0000 0.83860  0.97910  0.40760  Biso   1.000  C
  C3       1.0000 0.83860  0.02090  0.90760  Biso   1.000  C
  C4       1.0000 0.16140  0.02090  0.59240  Biso   1.000  C
  C5       1.0000 0.70750  0.38380  0.82650  Biso   1.000  C
  C6       1.0000 0.29250  0.38380  0.67350  Biso   1.000  C
  C7       1.0000 0.29250  0.61620  0.17350  Biso   1.000  C
  C8       1.0000 0.70750  0.61620  0.32650  Biso   1.000  C
  C9       1.0000 0.45830  0.02600  0.37420  Biso   1.000  C
  C10      1.0000 0.54170  0.02600  0.12580  Biso   1.000  C
  C11      1.0000 0.54170  0.97400  0.62580  Biso   1.000  C
  C12      1.0000 0.45830  0.97400  0.87420  Biso   1.000  C
  H13      1.0000 0.46860  0.94030  0.38990  Biso   1.000  H
  H14      1.0000 0.53140  0.94030  0.11010  Biso   1.000  H
  H15      1.0000 0.53140  0.05970  0.61010  Biso   1.000  H
  H16      1.0000 0.46860  0.05970  0.88990  Biso   1.000  H
  C13      1.0000 0.04520  0.94100  0.07150  Biso   1.000  C
  C14      1.0000 0.95480  0.94100  0.42850  Biso   1.000  C
  C15      1.0000 0.95480  0.05900  0.92850  Biso   1.000  C
  C16      1.0000 0.04520  0.05900  0.57150  Biso   1.000  C
  H17      1.0000 0.99300  0.98980  0.08100  Biso   1.000  H
  H18      1.0000 0.00700  0.98980  0.41900  Biso   1.000  H
  H19      1.0000 0.00700  0.01020  0.91900  Biso   1.000  H
  H20      1.0000 0.99300  0.01020  0.58100  Biso   1.000  H
  C17      1.0000 0.78440  0.08820  0.59900  Biso   1.000  C
  C18      1.0000 0.21560  0.08820  0.90100  Biso   1.000  C
  C19      1.0000 0.21560  0.91180  0.40100  Biso   1.000  C
  C20      1.0000 0.78440  0.91180  0.09900  Biso   1.000  C
  H21      1.0000 0.78080  0.18180  0.59780  Biso   1.000  H
  H22      1.0000 0.21920  0.18180  0.90220  Biso   1.000  H
  H23      1.0000 0.21920  0.81820  0.40220  Biso   1.000  H
  H24      1.0000 0.78080  0.81820  0.09780  Biso   1.000  H
  C21      1.0000 0.19200  0.79070  0.04340  Biso   1.000  C
  C22      1.0000 0.80800  0.79070  0.45660  Biso   1.000  C
  C23      1.0000 0.80800  0.20930  0.95660  Biso   1.000  C
  C24      1.0000 0.19200  0.20930  0.54340  Biso   1.000  C
  H25      1.0000 0.24360  0.73920  0.03450  Biso   1.000  H
  H26      1.0000 0.75640  0.73920  0.46550  Biso   1.000  H
  H27      1.0000 0.75640  0.26080  0.96550  Biso   1.000  H
  H28      1.0000 0.24360  0.26080  0.53450  Biso   1.000  H
  C25      1.0000 0.72200  0.88540  0.55720  Biso   1.000  C
  C26      1.0000 0.27800  0.88540  0.94280  Biso   1.000  C
  C27      1.0000 0.27800  0.11460  0.44280  Biso   1.000  C
  C28      1.0000 0.72200  0.11460  0.05720  Biso   1.000  C
  H29      1.0000 0.67300  0.83560  0.52610  Biso   1.000  H
  H30      1.0000 0.32700  0.83560  0.97390  Biso   1.000  H
  H31      1.0000 0.32700  0.16440  0.47390  Biso   1.000  H
  H32      1.0000 0.67300  0.16440  0.02610  Biso   1.000  H
  C29      1.0000 0.86280  0.02670  0.64700  Biso   1.000  C
  C30      1.0000 0.13720  0.02670  0.85300  Biso   1.000  C
  C31      1.0000 0.13720  0.97330  0.35300  Biso   1.000  C
  C32      1.0000 0.86280  0.97330  0.14700  Biso   1.000  C
  H33      1.0000 0.91160  0.07760  0.67780  Biso   1.000  H
  H34      1.0000 0.08840  0.07760  0.82220  Biso   1.000  H
  H35      1.0000 0.08840  0.92240  0.32220  Biso   1.000  H
  H36      1.0000 0.91160  0.92240  0.17780  Biso   1.000  H
  C33      1.0000 0.27180  0.06510  0.19200  Biso   1.000  C
  C34      1.0000 0.72820  0.06510  0.30800  Biso   1.000  C
  C35      1.0000 0.72820  0.93490  0.80800  Biso   1.000  C
  C36      1.0000 0.27180  0.93490  0.69200  Biso   1.000  C
  H37      1.0000 0.22000  0.01380  0.20340  Biso   1.000  H
  H38      1.0000 0.78000  0.01380  0.29660  Biso   1.000  H
  H39      1.0000 0.78000  0.98620  0.79660  Biso   1.000  H
  H40      1.0000 0.22000  0.98620  0.70340  Biso   1.000  H
  H41      1.0000 0.33870  0.00860  0.19730  Biso   1.000  H
  H42      1.0000 0.66130  0.00860  0.30270  Biso   1.000  H
  H43      1.0000 0.66130  0.99140  0.80270  Biso   1.000  H
  H44      1.0000 0.33870  0.99140  0.69730  Biso   1.000  H
  C37      1.0000 0.78650  0.54400  0.90050  Biso   1.000  C
  C38      1.0000 0.21350  0.54400  0.59950  Biso   1.000  C
  C39      1.0000 0.21350  0.45600  0.09950  Biso   1.000  C
  C40      1.0000 0.78650  0.45600  0.40050  Biso   1.000  C
  H45      1.0000 0.77330  0.60430  0.92430  Biso   1.000  H
  H46      1.0000 0.22670  0.60430  0.57570  Biso   1.000  H
  H47      1.0000 0.22670  0.39570  0.07570  Biso   1.000  H
  H48      1.0000 0.77330  0.39570  0.42430  Biso   1.000  H
  C41      1.0000 0.31430  0.18760  0.22890  Biso   1.000  C
  C42      1.0000 0.68570  0.18760  0.27110  Biso   1.000  C
  C43      1.0000 0.68570  0.81240  0.77110  Biso   1.000  C
  C44      1.0000 0.31430  0.81240  0.72890  Biso   1.000  C
  H49      1.0000 0.24700  0.24470  0.22200  Biso   1.000  H
  H50      1.0000 0.75300  0.24470  0.27800  Biso   1.000  H
  H51      1.0000 0.75300  0.75530  0.77800  Biso   1.000  H
  H52      1.0000 0.24700  0.75530  0.72200  Biso   1.000  H
  H53      1.0000 0.36650  0.23730  0.21710  Biso   1.000  H
  H54      1.0000 0.63350  0.23730  0.28290  Biso   1.000  H
  H55      1.0000 0.63350  0.76270  0.78290  Biso   1.000  H
  H56      1.0000 0.36650  0.76270  0.71710  Biso   1.000  H
  C45      1.0000 0.79750  0.81880  0.60280  Biso   1.000  C
  C46      1.0000 0.20250  0.81880  0.89720  Biso   1.000  C
  C47      1.0000 0.20250  0.18120  0.39720  Biso   1.000  C
  C48      1.0000 0.79750  0.18120  0.10280  Biso   1.000  C
  H57      1.0000 0.80010  0.72520  0.60200  Biso   1.000  H
  H58      1.0000 0.19990  0.72520  0.89800  Biso   1.000  H
  H59      1.0000 0.19990  0.27480  0.39800  Biso   1.000  H
  H60      1.0000 0.80010  0.27480  0.10200  Biso   1.000  H
  C49      1.0000 0.39670  0.03820  0.31680  Biso   1.000  C
  C50      1.0000 0.60330  0.03820  0.18320  Biso   1.000  C
  C51      1.0000 0.60330  0.96180  0.68320  Biso   1.000  C
  C52      1.0000 0.39670  0.96180  0.81680  Biso   1.000  C
  H61      1.0000 0.36760  0.96160  0.29480  Biso   1.000  H
  H62      1.0000 0.63240  0.96160  0.20520  Biso   1.000  H
  H63      1.0000 0.63240  0.03840  0.70520  Biso   1.000  H
  H64      1.0000 0.36760  0.03840  0.79480  Biso   1.000  H
  C53      1.0000 0.90940  0.44590  0.86850  Biso   1.000  C
  C54      1.0000 0.09060  0.44590  0.63150  Biso   1.000  C
  C55      1.0000 0.09060  0.55410  0.13150  Biso   1.000  C
  C56      1.0000 0.90940  0.55410  0.36850  Biso   1.000  C
  H65      1.0000 0.98420  0.43470  0.87010  Biso   1.000  H
  H66      1.0000 0.01580  0.43470  0.62990  Biso   1.000  H
  H67      1.0000 0.01580  0.56530  0.12990  Biso   1.000  H
  H68      1.0000 0.98420  0.56530  0.37010  Biso   1.000  H
  C57      1.0000 0.82010  0.37420  0.82990  Biso   1.000  C
  C58      1.0000 0.17990  0.37420  0.67010  Biso   1.000  C
  C59      1.0000 0.17990  0.62580  0.17010  Biso   1.000  C
  C60      1.0000 0.82010  0.62580  0.32990  Biso   1.000  C
  H69      1.0000 0.83460  0.31780  0.80520  Biso   1.000  H
  H70      1.0000 0.16540  0.31780  0.69480  Biso   1.000  H
  H71      1.0000 0.16540  0.68220  0.19480  Biso   1.000  H
  H72      1.0000 0.83460  0.68220  0.30520  Biso   1.000  H
  C61      1.0000 0.20610  0.10060  0.12930  Biso   1.000  C
  C62      1.0000 0.79390  0.10060  0.37070  Biso   1.000  C
  C63      1.0000 0.79390  0.89940  0.87070  Biso   1.000  C
  C64      1.0000 0.20610  0.89940  0.62930  Biso   1.000  C
  H73      1.0000 0.14020  0.15860  0.12420  Biso   1.000  H
  H74      1.0000 0.85980  0.15860  0.37580  Biso   1.000  H
  H75      1.0000 0.85980  0.84140  0.87580  Biso   1.000  H
  H76      1.0000 0.14020  0.84140  0.62420  Biso   1.000  H
  H77      1.0000 0.25840  0.15050  0.11770  Biso   1.000  H
  H78      1.0000 0.74160  0.15050  0.38230  Biso   1.000  H
  H79      1.0000 0.74160  0.84950  0.88230  Biso   1.000  H
  H80      1.0000 0.25840  0.84950  0.61770  Biso   1.000  H
  C65      1.0000 0.86820  0.88340  0.64890  Biso   1.000  C
  C66      1.0000 0.13180  0.88340  0.85110  Biso   1.000  C
  C67      1.0000 0.13180  0.11660  0.35110  Biso   1.000  C
  C68      1.0000 0.86820  0.11660  0.14890  Biso   1.000  C
  C69      1.0000 0.69390  0.47260  0.86320  Biso   1.000  C
  C70      1.0000 0.30610  0.47260  0.63680  Biso   1.000  C
  C71      1.0000 0.30610  0.52740  0.13680  Biso   1.000  C
  C72      1.0000 0.69390  0.52740  0.36320  Biso   1.000  C
  H81      1.0000 0.61990  0.48420  0.86260  Biso   1.000  H
  H82      1.0000 0.38010  0.48420  0.63740  Biso   1.000  H
  H83      1.0000 0.38010  0.51580  0.13740  Biso   1.000  H
  H84      1.0000 0.61990  0.51580  0.36260  Biso   1.000  H
  C73      1.0000 0.23430  0.90050  0.07860  Biso   1.000  C
  C74      1.0000 0.76570  0.90050  0.42140  Biso   1.000  C
  C75      1.0000 0.76570  0.09950  0.92140  Biso   1.000  C
  C76      1.0000 0.23430  0.09950  0.57860  Biso   1.000  C
  H85      1.0000 0.31390  0.92120  0.09320  Biso   1.000  H
  H86      1.0000 0.68610  0.92120  0.40680  Biso   1.000  H
  H87      1.0000 0.68610  0.07880  0.90680  Biso   1.000  H
  H88      1.0000 0.31390  0.07880  0.59320  Biso   1.000  H
  C77      1.0000 0.50000  0.38610  0.75000  Biso   1.000  C
  C78      1.0000 0.50000  0.61390  0.25000  Biso   1.000  C
  H89      1.0000 0.47990  0.44380  0.77450  Biso   1.000  H
  H90      1.0000 0.52010  0.44380  0.72550  Biso   1.000  H
  H91      1.0000 0.52010  0.55620  0.22550  Biso   1.000  H
  H92      1.0000 0.47990  0.55620  0.27450  Biso   1.000  H
  C79      1.0000 0.00000  0.88010  0.75000  Biso   1.000  C
  C80      1.0000 0.00000  0.11990  0.25000  Biso   1.000  C
  H93      1.0000 0.94010  0.93810  0.75240  Biso   1.000  H
  H94      1.0000 0.05990  0.93810  0.74760  Biso   1.000  H
  H95      1.0000 0.05990  0.06190  0.24760  Biso   1.000  H
  H96      1.0000 0.94010  0.06190  0.25240  Biso   1.000  H
  C81      1.0000 0.37790  0.16380  0.29160  Biso   1.000  C
  C82      1.0000 0.62210  0.16380  0.20840  Biso   1.000  C
  C83      1.0000 0.62210  0.83620  0.70840  Biso   1.000  C
  C84      1.0000 0.37790  0.83620  0.79160  Biso   1.000  C
  C85      1.0000 0.60560  0.30300  0.78540  Biso   1.000  C
  C86      1.0000 0.39440  0.30300  0.71460  Biso   1.000  C
  C87      1.0000 0.39440  0.69700  0.21460  Biso   1.000  C
  C88      1.0000 0.60560  0.69700  0.28540  Biso   1.000  C
  H97      1.0000 0.63150  0.25400  0.76070  Biso   1.000  H
  H98      1.0000 0.36850  0.25400  0.73930  Biso   1.000  H
  H99      1.0000 0.36850  0.74600  0.23930  Biso   1.000  H
  H100     1.0000 0.63150  0.74600  0.26070  Biso   1.000  H
  H101     1.0000 0.58250  0.23730  0.80620  Biso   1.000  H
  H102     1.0000 0.41750  0.23730  0.69380  Biso   1.000  H
  H103     1.0000 0.41750  0.76270  0.19380  Biso   1.000  H
  H104     1.0000 0.58250  0.76270  0.30620  Biso   1.000  H
  C89      1.0000 0.00640  0.83110  0.03670  Biso   1.000  C
  C90      1.0000 0.99360  0.83110  0.46330  Biso   1.000  C
  C91      1.0000 0.99360  0.16890  0.96330  Biso   1.000  C
  C92      1.0000 0.00640  0.16890  0.53670  Biso   1.000  C
  H105     1.0000 0.92750  0.80710  0.02290  Biso   1.000  H
  H106     1.0000 0.07250  0.80710  0.47710  Biso   1.000  H
  H107     1.0000 0.07250  0.19290  0.97710  Biso   1.000  H
  H108     1.0000 0.92750  0.19290  0.52290  Biso   1.000  H
  C93      1.0000 0.94770  0.80500  0.69900  Biso   1.000  C
  C94      1.0000 0.05230  0.80500  0.80100  Biso   1.000  C
  C95      1.0000 0.05230  0.19500  0.30100  Biso   1.000  C
  C96      1.0000 0.94770  0.19500  0.19900  Biso   1.000  C
  H109     1.0000 0.90330  0.73110  0.70470  Biso   1.000  H
  H110     1.0000 0.09670  0.73110  0.79530  Biso   1.000  H
  H111     1.0000 0.09670  0.26890  0.29530  Biso   1.000  H
  H112     1.0000 0.90330  0.26890  0.20470  Biso   1.000  H
  H113     1.0000 0.00990  0.76620  0.69110  Biso   1.000  H
  H114     1.0000 0.99010  0.76620  0.80890  Biso   1.000  H
  H115     1.0000 0.99010  0.23380  0.30890  Biso   1.000  H
  H116     1.0000 0.00990  0.23380  0.19110  Biso   1.000  H
  C97      1.0000 0.48450  0.24960  0.38410  Biso   1.000  C
  C98      1.0000 0.51550  0.24960  0.11590  Biso   1.000  C
  C99      1.0000 0.51550  0.75040  0.61590  Biso   1.000  C
  C100     1.0000 0.48450  0.75040  0.88410  Biso   1.000  C
  H117     1.0000 0.51370  0.32420  0.40730  Biso   1.000  H
  H118     1.0000 0.48630  0.32420  0.09270  Biso   1.000  H
  H119     1.0000 0.48630  0.67580  0.59270  Biso   1.000  H
  H120     1.0000 0.51370  0.67580  0.90730  Biso   1.000  H
  C101     1.0000 0.42520  0.27120  0.32790  Biso   1.000  C
  C102     1.0000 0.57480  0.27120  0.17210  Biso   1.000  C
  C103     1.0000 0.57480  0.72880  0.67210  Biso   1.000  C
  C104     1.0000 0.42520  0.72880  0.82790  Biso   1.000  C
  H121     1.0000 0.41630  0.35850  0.31370  Biso   1.000  H
  H122     1.0000 0.58370  0.35850  0.18630  Biso   1.000  H
  H123     1.0000 0.58370  0.64150  0.68630  Biso   1.000  H
  H124     1.0000 0.41630  0.64150  0.81370  Biso   1.000  H
