data_image0
_cell_length_a       15.2226
_cell_length_b       15.2966
_cell_length_c       18.2007
_cell_angle_alpha    90
_cell_angle_beta     114.72
_cell_angle_gamma    90

_symmetry_space_group_name_H-M    "P 1"
_symmetry_int_tables_number       1

loop_
  _symmetry_equiv_pos_as_xyz
  'x, y, z'

loop_
  _atom_site_label
  _atom_site_occupancy
  _atom_site_fract_x
  _atom_site_fract_y
  _atom_site_fract_z
  _atom_site_thermal_displace_type
  _atom_site_B_iso_or_equiv
  _atom_site_type_symbol
  Cu1      1.0000 0.49492  0.12419  0.25035  Biso   1.000  Cu
  Cu2      1.0000 0.00508  0.62419  0.24965  Biso   1.000  Cu
  Cu3      1.0000 0.50508  0.87581  0.74965  Biso   1.000  Cu
  Cu4      1.0000 0.99492  0.37581  0.75035  Biso   1.000  Cu
  C1       1.0000 0.36280  0.12790  0.32870  Biso   1.000  C
  C2       1.0000 0.13720  0.62790  0.17130  Biso   1.000  C
  C3       1.0000 0.63720  0.87210  0.67130  Biso   1.000  C
  C4       1.0000 0.86280  0.37210  0.82870  Biso   1.000  C
  H1       1.0000 0.33360  0.08220  0.29100  Biso   1.000  H
  H2       1.0000 0.16640  0.58220  0.20900  Biso   1.000  H
  H3       1.0000 0.66640  0.91780  0.70900  Biso   1.000  H
  H4       1.0000 0.83360  0.41780  0.79100  Biso   1.000  H
  C5       1.0000 0.32340  0.14950  0.38360  Biso   1.000  C
  C6       1.0000 0.17660  0.64950  0.11640  Biso   1.000  C
  C7       1.0000 0.67660  0.85050  0.61640  Biso   1.000  C
  C8       1.0000 0.82340  0.35050  0.88360  Biso   1.000  C
  H5       1.0000 0.26950  0.11820  0.38370  Biso   1.000  H
  H6       1.0000 0.23050  0.61820  0.11630  Biso   1.000  H
  H7       1.0000 0.73050  0.88180  0.61630  Biso   1.000  H
  H8       1.0000 0.76950  0.38180  0.88370  Biso   1.000  H
  C9       1.0000 0.36430  0.21690  0.43740  Biso   1.000  C
  C10      1.0000 0.13570  0.71690  0.06260  Biso   1.000  C
  C11      1.0000 0.63570  0.78310  0.56260  Biso   1.000  C
  C12      1.0000 0.86430  0.28310  0.93740  Biso   1.000  C
  H9       1.0000 0.33810  0.23270  0.47460  Biso   1.000  H
  H10      1.0000 0.16190  0.73270  0.02540  Biso   1.000  H
  H11      1.0000 0.66190  0.76730  0.52540  Biso   1.000  H
  H12      1.0000 0.83810  0.26730  0.97460  Biso   1.000  H
  C13      1.0000 0.44440  0.26230  0.43740  Biso   1.000  C
  C14      1.0000 0.05560  0.76230  0.06260  Biso   1.000  C
  C15      1.0000 0.55560  0.73770  0.56260  Biso   1.000  C
  C16      1.0000 0.94440  0.23770  0.93740  Biso   1.000  C
  H13      1.0000 0.47450  0.30860  0.47420  Biso   1.000  H
  H14      1.0000 0.02550  0.80860  0.02580  Biso   1.000  H
  H15      1.0000 0.52550  0.69140  0.52580  Biso   1.000  H
  H16      1.0000 0.97450  0.19140  0.97420  Biso   1.000  H
  C17      1.0000 0.47700  0.23480  0.37960  Biso   1.000  C
  C18      1.0000 0.02300  0.73480  0.12040  Biso   1.000  C
  C19      1.0000 0.52300  0.76520  0.62040  Biso   1.000  C
  C20      1.0000 0.97700  0.26520  0.87960  Biso   1.000  C
  C21      1.0000 0.56160  0.27970  0.37930  Biso   1.000  C
  C22      1.0000 0.93840  0.77970  0.12070  Biso   1.000  C
  C23      1.0000 0.43840  0.72030  0.62070  Biso   1.000  C
  C24      1.0000 0.06160  0.22030  0.87930  Biso   1.000  C
  C25      1.0000 0.63300  0.31900  0.38580  Biso   1.000  C
  C26      1.0000 0.86700  0.81900  0.11420  Biso   1.000  C
  C27      1.0000 0.36700  0.68100  0.61420  Biso   1.000  C
  C28      1.0000 0.13300  0.18100  0.88580  Biso   1.000  C
  C29      1.0000 0.71560  0.36690  0.39330  Biso   1.000  C
  C30      1.0000 0.78440  0.86690  0.10670  Biso   1.000  C
  C31      1.0000 0.28440  0.63310  0.60670  Biso   1.000  C
  C32      1.0000 0.21560  0.13310  0.89330  Biso   1.000  C
  C33      1.0000 0.83020  0.48110  0.39110  Biso   1.000  C
  C34      1.0000 0.66980  0.98110  0.10890  Biso   1.000  C
  C35      1.0000 0.16980  0.51890  0.60890  Biso   1.000  C
  C36      1.0000 0.33020  0.01890  0.89110  Biso   1.000  C
  C37      1.0000 0.87840  0.40830  0.43870  Biso   1.000  C
  C38      1.0000 0.62160  0.90830  0.06130  Biso   1.000  C
  C39      1.0000 0.12160  0.59170  0.56130  Biso   1.000  C
  C40      1.0000 0.37840  0.09170  0.93870  Biso   1.000  C
  H17      1.0000 0.94670  0.40290  0.46610  Biso   1.000  H
  H18      1.0000 0.55330  0.90290  0.03390  Biso   1.000  H
  H19      1.0000 0.05330  0.59710  0.53390  Biso   1.000  H
  H20      1.0000 0.44670  0.09710  0.96610  Biso   1.000  H
  C41      1.0000 0.81180  0.34410  0.44050  Biso   1.000  C
  C42      1.0000 0.68820  0.84410  0.05950  Biso   1.000  C
  C43      1.0000 0.18820  0.65590  0.55950  Biso   1.000  C
  C44      1.0000 0.31180  0.15590  0.94050  Biso   1.000  C
  H21      1.0000 0.83060  0.29130  0.47050  Biso   1.000  H
  H22      1.0000 0.66940  0.79130  0.02950  Biso   1.000  H
  H23      1.0000 0.16940  0.70870  0.52950  Biso   1.000  H
  H24      1.0000 0.33060  0.20870  0.97050  Biso   1.000  H
  C45      1.0000 0.87260  0.55900  0.38290  Biso   1.000  C
  C46      1.0000 0.62740  0.05900  0.11710  Biso   1.000  C
  C47      1.0000 0.12740  0.44100  0.61710  Biso   1.000  C
  C48      1.0000 0.37260  0.94100  0.88290  Biso   1.000  C
  C49      1.0000 0.91050  0.62780  0.37550  Biso   1.000  C
  C50      1.0000 0.58950  0.12780  0.12450  Biso   1.000  C
  C51      1.0000 0.08950  0.37220  0.62450  Biso   1.000  C
  C52      1.0000 0.41050  0.87220  0.87550  Biso   1.000  C
  C53      1.0000 0.95280  0.71040  0.37360  Biso   1.000  C
  C54      1.0000 0.54720  0.21040  0.12640  Biso   1.000  C
  C55      1.0000 0.04720  0.28960  0.62640  Biso   1.000  C
  C56      1.0000 0.45280  0.78960  0.87360  Biso   1.000  C
  C57      1.0000 0.94500  0.77660  0.42130  Biso   1.000  C
  C58      1.0000 0.55500  0.27660  0.07870  Biso   1.000  C
  C59      1.0000 0.05500  0.22340  0.57870  Biso   1.000  C
  C60      1.0000 0.44500  0.72340  0.92130  Biso   1.000  C
  H25      1.0000 0.90890  0.76860  0.45260  Biso   1.000  H
  H26      1.0000 0.59110  0.26860  0.04740  Biso   1.000  H
  H27      1.0000 0.09110  0.23140  0.54740  Biso   1.000  H
  H28      1.0000 0.40890  0.73140  0.95260  Biso   1.000  H
  C61      1.0000 0.99160  0.85680  0.42310  Biso   1.000  C
  C62      1.0000 0.50840  0.35680  0.07690  Biso   1.000  C
  C63      1.0000 0.00840  0.14320  0.57690  Biso   1.000  C
  C64      1.0000 0.49160  0.64320  0.92310  Biso   1.000  C
  H29      1.0000 0.99200  0.90270  0.45840  Biso   1.000  H
  H30      1.0000 0.50800  0.40270  0.04160  Biso   1.000  H
  H31      1.0000 0.00800  0.09730  0.54160  Biso   1.000  H
  H32      1.0000 0.49200  0.59730  0.95840  Biso   1.000  H
  C65      1.0000 0.03630  0.86590  0.37180  Biso   1.000  C
  C66      1.0000 0.46370  0.36590  0.12820  Biso   1.000  C
  C67      1.0000 0.96370  0.13410  0.62820  Biso   1.000  C
  C68      1.0000 0.53630  0.63410  0.87180  Biso   1.000  C
  H33      1.0000 0.06560  0.91980  0.36890  Biso   1.000  H
  H34      1.0000 0.43440  0.41980  0.13110  Biso   1.000  H
  H35      1.0000 0.93440  0.08020  0.63110  Biso   1.000  H
  H36      1.0000 0.56560  0.58020  0.86890  Biso   1.000  H
  C69      1.0000 0.03830  0.79720  0.32530  Biso   1.000  C
  C70      1.0000 0.46170  0.29720  0.17470  Biso   1.000  C
  C71      1.0000 0.96170  0.20280  0.67470  Biso   1.000  C
  C72      1.0000 0.53830  0.70280  0.82530  Biso   1.000  C
  H37      1.0000 0.07050  0.80490  0.29080  Biso   1.000  H
  H38      1.0000 0.42950  0.30490  0.20920  Biso   1.000  H
  H39      1.0000 0.92950  0.19510  0.70920  Biso   1.000  H
  H40      1.0000 0.57050  0.69510  0.79080  Biso   1.000  H
  C73      1.0000 0.32300  0.03780  0.11970  Biso   1.000  C
  C74      1.0000 0.17700  0.53780  0.38030  Biso   1.000  C
  C75      1.0000 0.67700  0.96220  0.88030  Biso   1.000  C
  C76      1.0000 0.82300  0.46220  0.61970  Biso   1.000  C
  C77      1.0000 0.27020  0.97460  0.06500  Biso   1.000  C
  C78      1.0000 0.22980  0.47460  0.43500  Biso   1.000  C
  C79      1.0000 0.72980  0.02540  0.93500  Biso   1.000  C
  C80      1.0000 0.77020  0.52540  0.56500  Biso   1.000  C
  H41      1.0000 0.20460  0.98440  0.02900  Biso   1.000  H
  H42      1.0000 0.29540  0.48440  0.47100  Biso   1.000  H
  H43      1.0000 0.79540  0.01560  0.97100  Biso   1.000  H
  H44      1.0000 0.70460  0.51560  0.52900  Biso   1.000  H
  C81      1.0000 0.31500  0.89690  0.06410  Biso   1.000  C
  C82      1.0000 0.18500  0.39690  0.43590  Biso   1.000  C
  C83      1.0000 0.68500  0.10310  0.93590  Biso   1.000  C
  C84      1.0000 0.81500  0.60310  0.56410  Biso   1.000  C
  H45      1.0000 0.28140  0.85250  0.02630  Biso   1.000  H
  H46      1.0000 0.21860  0.35250  0.47370  Biso   1.000  H
  H47      1.0000 0.71860  0.14750  0.97370  Biso   1.000  H
  H48      1.0000 0.78140  0.64750  0.52630  Biso   1.000  H
  C85      1.0000 0.41250  0.88380  0.12050  Biso   1.000  C
  C86      1.0000 0.08750  0.38380  0.37950  Biso   1.000  C
  C87      1.0000 0.58750  0.11620  0.87950  Biso   1.000  C
  C88      1.0000 0.91250  0.61620  0.62050  Biso   1.000  C
  H49      1.0000 0.44500  0.83030  0.12200  Biso   1.000  H
  H50      1.0000 0.05500  0.33030  0.37800  Biso   1.000  H
  H51      1.0000 0.55500  0.16970  0.87800  Biso   1.000  H
  H52      1.0000 0.94500  0.66970  0.62200  Biso   1.000  H
  C89      1.0000 0.45780  0.95000  0.17210  Biso   1.000  C
  C90      1.0000 0.04220  0.45000  0.32790  Biso   1.000  C
  C91      1.0000 0.54220  0.05000  0.82790  Biso   1.000  C
  C92      1.0000 0.95780  0.55000  0.67210  Biso   1.000  C
  H53      1.0000 0.52330  0.94180  0.20910  Biso   1.000  H
  H54      1.0000 0.97670  0.44180  0.29090  Biso   1.000  H
  H55      1.0000 0.47670  0.05820  0.79090  Biso   1.000  H
  H56      1.0000 0.02330  0.55820  0.70910  Biso   1.000  H
  C93      1.0000 0.27960  0.12200  0.12150  Biso   1.000  C
  C94      1.0000 0.22040  0.62200  0.37850  Biso   1.000  C
  C95      1.0000 0.72040  0.87800  0.87850  Biso   1.000  C
  C96      1.0000 0.77960  0.37800  0.62150  Biso   1.000  C
  C97      1.0000 0.23720  0.18910  0.11470  Biso   1.000  C
  C98      1.0000 0.26280  0.68910  0.38530  Biso   1.000  C
  C99      1.0000 0.76280  0.81090  0.88530  Biso   1.000  C
  C100     1.0000 0.73720  0.31090  0.61470  Biso   1.000  C
  C101     1.0000 0.18610  0.27000  0.10620  Biso   1.000  C
  C102     1.0000 0.31390  0.77000  0.39380  Biso   1.000  C
  C103     1.0000 0.81390  0.73000  0.89380  Biso   1.000  C
  C104     1.0000 0.68610  0.23000  0.60620  Biso   1.000  C
  C105     1.0000 0.07340  0.38540  0.10680  Biso   1.000  C
  C106     1.0000 0.42660  0.88540  0.39320  Biso   1.000  C
  C107     1.0000 0.92660  0.61460  0.89320  Biso   1.000  C
  C108     1.0000 0.57340  0.11460  0.60680  Biso   1.000  C
  C109     1.0000 0.12350  0.40660  0.06320  Biso   1.000  C
  C110     1.0000 0.37650  0.90660  0.43680  Biso   1.000  C
  C111     1.0000 0.87650  0.59340  0.93680  Biso   1.000  C
  C112     1.0000 0.62350  0.09340  0.56320  Biso   1.000  C
  H57      1.0000 0.11620  0.46080  0.03580  Biso   1.000  H
  H58      1.0000 0.38380  0.96080  0.46420  Biso   1.000  H
  H59      1.0000 0.88380  0.53920  0.96420  Biso   1.000  H
  H60      1.0000 0.61620  0.03920  0.53580  Biso   1.000  H
  C113     1.0000 0.18690  0.34170  0.06220  Biso   1.000  C
  C114     1.0000 0.31310  0.84170  0.43780  Biso   1.000  C
  C115     1.0000 0.81310  0.65830  0.93780  Biso   1.000  C
  C116     1.0000 0.68690  0.15830  0.56220  Biso   1.000  C
  H61      1.0000 0.22670  0.34680  0.03380  Biso   1.000  H
  H62      1.0000 0.27330  0.84680  0.46620  Biso   1.000  H
  H63      1.0000 0.77330  0.65320  0.96620  Biso   1.000  H
  H64      1.0000 0.72670  0.15320  0.53380  Biso   1.000  H
  C117     1.0000 0.78920  0.62790  0.17460  Biso   1.000  C
  C118     1.0000 0.71080  0.12790  0.32540  Biso   1.000  C
  C119     1.0000 0.21080  0.37210  0.82540  Biso   1.000  C
  C120     1.0000 0.28920  0.87210  0.67460  Biso   1.000  C
  H65      1.0000 0.79970  0.67710  0.20910  Biso   1.000  H
  H66      1.0000 0.70030  0.17710  0.29090  Biso   1.000  H
  H67      1.0000 0.20030  0.32290  0.79090  Biso   1.000  H
  H68      1.0000 0.29970  0.82290  0.70910  Biso   1.000  H
  C121     1.0000 0.69790  0.60430  0.12810  Biso   1.000  C
  C122     1.0000 0.80210  0.10430  0.37190  Biso   1.000  C
  C123     1.0000 0.30210  0.39570  0.87190  Biso   1.000  C
  C124     1.0000 0.19790  0.89570  0.62810  Biso   1.000  C
  H69      1.0000 0.64560  0.63510  0.13160  Biso   1.000  H
  H70      1.0000 0.85440  0.13510  0.36840  Biso   1.000  H
  H71      1.0000 0.35440  0.36490  0.86840  Biso   1.000  H
  H72      1.0000 0.14560  0.86490  0.63160  Biso   1.000  H
  C125     1.0000 0.68000  0.53500  0.07490  Biso   1.000  C
  C126     1.0000 0.82000  0.03500  0.42510  Biso   1.000  C
  C127     1.0000 0.32000  0.46500  0.92510  Biso   1.000  C
  C128     1.0000 0.18000  0.96500  0.57490  Biso   1.000  C
  H73      1.0000 0.61570  0.51790  0.04080  Biso   1.000  H
  H74      1.0000 0.88430  0.01790  0.45920  Biso   1.000  H
  H75      1.0000 0.38430  0.48210  0.95920  Biso   1.000  H
  H76      1.0000 0.11570  0.98210  0.54080  Biso   1.000  H
  C129     1.0000 0.75920  0.49110  0.07300  Biso   1.000  C
  C130     1.0000 0.74080  0.99110  0.42700  Biso   1.000  C
  C131     1.0000 0.24080  0.50890  0.92700  Biso   1.000  C
  C132     1.0000 0.25920  0.00890  0.57300  Biso   1.000  C
  H77      1.0000 0.75020  0.44450  0.03600  Biso   1.000  H
  H78      1.0000 0.74980  0.94450  0.46400  Biso   1.000  H
  H79      1.0000 0.24980  0.55550  0.96400  Biso   1.000  H
  H80      1.0000 0.25020  0.05550  0.53600  Biso   1.000  H
  C133     1.0000 0.85040  0.51630  0.12530  Biso   1.000  C
  C134     1.0000 0.64960  0.01630  0.37470  Biso   1.000  C
  C135     1.0000 0.14960  0.48370  0.87470  Biso   1.000  C
  C136     1.0000 0.35040  0.98370  0.62530  Biso   1.000  C
  C137     1.0000 0.93390  0.47130  0.12350  Biso   1.000  C
  C138     1.0000 0.56610  0.97130  0.37650  Biso   1.000  C
  C139     1.0000 0.06610  0.52870  0.87650  Biso   1.000  C
  C140     1.0000 0.43390  0.02870  0.62350  Biso   1.000  C
  C141     1.0000 0.99800  0.43320  0.11610  Biso   1.000  C
  C142     1.0000 0.50200  0.93320  0.38390  Biso   1.000  C
  C143     1.0000 0.00200  0.56680  0.88390  Biso   1.000  C
  C144     1.0000 0.49800  0.06680  0.61610  Biso   1.000  C
  N1       1.0000 0.43950  0.16870  0.32710  Biso   1.000  N
  N2       1.0000 0.06050  0.66870  0.17290  Biso   1.000  N
  N3       1.0000 0.56050  0.83130  0.67290  Biso   1.000  N
  N4       1.0000 0.93950  0.33130  0.82710  Biso   1.000  N
  N5       1.0000 0.99890  0.72090  0.32470  Biso   1.000  N
  N6       1.0000 0.50110  0.22090  0.17530  Biso   1.000  N
  N7       1.0000 0.00110  0.27910  0.67530  Biso   1.000  N
  N8       1.0000 0.49890  0.77910  0.82470  Biso   1.000  N
  N9       1.0000 0.41570  0.02590  0.17380  Biso   1.000  N
  N10      1.0000 0.08430  0.52590  0.32620  Biso   1.000  N
  N11      1.0000 0.58430  0.97410  0.82620  Biso   1.000  N
  N12      1.0000 0.91570  0.47410  0.67380  Biso   1.000  N
  N13      1.0000 0.86760  0.58480  0.17490  Biso   1.000  N
  N14      1.0000 0.63240  0.08480  0.32510  Biso   1.000  N
  N15      1.0000 0.13240  0.41520  0.82510  Biso   1.000  N
  N16      1.0000 0.36760  0.91520  0.67490  Biso   1.000  N
  S1       1.0000 0.10579  0.28244  0.15017  Biso   1.000  S
  S2       1.0000 0.39421  0.78244  0.34983  Biso   1.000  S
  S3       1.0000 0.89421  0.71756  0.84983  Biso   1.000  S
  S4       1.0000 0.60579  0.21756  0.65017  Biso   1.000  S
  S5       1.0000 0.70718  0.46732  0.35027  Biso   1.000  S
  S6       1.0000 0.79282  0.96732  0.14973  Biso   1.000  S
  S7       1.0000 0.29282  0.53268  0.64973  Biso   1.000  S
  S8       1.0000 0.20718  0.03268  0.85027  Biso   1.000  S
  B1       1.0000 0.42510  0.63220  0.10700  Biso   1.000  B
  B2       1.0000 0.07490  0.13220  0.39300  Biso   1.000  B
  B3       1.0000 0.57490  0.36780  0.89300  Biso   1.000  B
  B4       1.0000 0.92510  0.86780  0.60700  Biso   1.000  B
  F1       1.0000 0.46200  0.57250  0.07050  Biso   1.000  F
  F2       1.0000 0.03800  0.07250  0.42950  Biso   1.000  F
  F3       1.0000 0.53800  0.42750  0.92950  Biso   1.000  F
  F4       1.0000 0.96200  0.92750  0.57050  Biso   1.000  F
  F5       1.0000 0.49890  0.68950  0.13080  Biso   1.000  F
  F6       1.0000 0.00110  0.18950  0.36920  Biso   1.000  F
  F7       1.0000 0.50110  0.31050  0.86920  Biso   1.000  F
  F8       1.0000 0.99890  0.81050  0.63080  Biso   1.000  F
  F9       1.0000 0.34650  0.67840  0.04920  Biso   1.000  F
  F10      1.0000 0.15350  0.17840  0.45080  Biso   1.000  F
  F11      1.0000 0.65350  0.32160  0.95080  Biso   1.000  F
  F12      1.0000 0.84650  0.82160  0.54920  Biso   1.000  F
  F13      1.0000 0.36880  0.55870  0.12670  Biso   1.000  F
  F14      1.0000 0.13120  0.05870  0.37330  Biso   1.000  F
  F15      1.0000 0.63120  0.44130  0.87330  Biso   1.000  F
  F16      1.0000 0.86880  0.94130  0.62670  Biso   1.000  F
  F17      1.0000 0.42750  0.64580  0.17910  Biso   1.000  F
  F18      1.0000 0.07250  0.14580  0.32090  Biso   1.000  F
  F19      1.0000 0.57250  0.35420  0.82090  Biso   1.000  F
  F20      1.0000 0.92750  0.85420  0.67910  Biso   1.000  F
