data_image0
_cell_length_a       12.7023
_cell_length_b       12.7023
_cell_length_c       13.3621
_cell_angle_alpha    90
_cell_angle_beta     90
_cell_angle_gamma    90

_symmetry_space_group_name_H-M    "P 1"
_symmetry_int_tables_number       1

loop_
  _symmetry_equiv_pos_as_xyz
  'x, y, z'

loop_
  _atom_site_label
  _atom_site_occupancy
  _atom_site_fract_x
  _atom_site_fract_y
  _atom_site_fract_z
  _atom_site_thermal_displace_type
  _atom_site_B_iso_or_equiv
  _atom_site_type_symbol
  W1       1.0000 0.50000  0.00000  0.38324  Biso   1.000  W
  W2       1.0000 0.00000  0.50000  0.88324  Biso   1.000  W
  I1       1.0000 0.25926  0.29596  0.30093  Biso   1.000  I
  I2       1.0000 0.74074  0.70404  0.30093  Biso   1.000  I
  I3       1.0000 0.70404  0.25926  0.80093  Biso   1.000  I
  I4       1.0000 0.29596  0.74074  0.80093  Biso   1.000  I
  Cu1      1.0000 0.33169  0.13204  0.39071  Biso   1.000  Cu
  Cu2      1.0000 0.66831  0.86796  0.39071  Biso   1.000  Cu
  Cu3      1.0000 0.86796  0.33169  0.89071  Biso   1.000  Cu
  Cu4      1.0000 0.13204  0.66831  0.89071  Biso   1.000  Cu
  Cu5      1.0000 0.62335  0.17047  0.36829  Biso   1.000  Cu
  Cu6      1.0000 0.37665  0.82953  0.36829  Biso   1.000  Cu
  Cu7      1.0000 0.82953  0.62335  0.86829  Biso   1.000  Cu
  Cu8      1.0000 0.17047  0.37665  0.86829  Biso   1.000  Cu
  N1       1.0000 0.22290  0.09950  0.50860  Biso   1.000  N
  N2       1.0000 0.77710  0.90050  0.50860  Biso   1.000  N
  N3       1.0000 0.90050  0.22290  0.00860  Biso   1.000  N
  N4       1.0000 0.09950  0.77710  0.00860  Biso   1.000  N
  N5       1.0000 0.75250  0.23720  0.41560  Biso   1.000  N
  N6       1.0000 0.24750  0.76280  0.41560  Biso   1.000  N
  N7       1.0000 0.76280  0.75250  0.91560  Biso   1.000  N
  N8       1.0000 0.23720  0.24750  0.91560  Biso   1.000  N
  N9       1.0000 0.59830  0.27720  0.24720  Biso   1.000  N
  N10      1.0000 0.40170  0.72280  0.24720  Biso   1.000  N
  N11      1.0000 0.72280  0.59830  0.74720  Biso   1.000  N
  N12      1.0000 0.27720  0.40170  0.74720  Biso   1.000  N
  S1       1.0000 0.48950  0.14460  0.47740  Biso   1.000  S
  S2       1.0000 0.51050  0.85540  0.47740  Biso   1.000  S
  S3       1.0000 0.85540  0.48950  0.97740  Biso   1.000  S
  S4       1.0000 0.14460  0.51050  0.97740  Biso   1.000  S
  S5       1.0000 0.35690  0.98880  0.28740  Biso   1.000  S
  S6       1.0000 0.64310  0.01120  0.28740  Biso   1.000  S
  S7       1.0000 0.01120  0.35690  0.78740  Biso   1.000  S
  S8       1.0000 0.98880  0.64310  0.78740  Biso   1.000  S
  C1       1.0000 0.24470  0.02190  0.57280  Biso   1.000  C
  C2       1.0000 0.75530  0.97810  0.57280  Biso   1.000  C
  C3       1.0000 0.97810  0.24470  0.07280  Biso   1.000  C
  C4       1.0000 0.02190  0.75530  0.07280  Biso   1.000  C
  H1       1.0000 0.30390  0.98010  0.56240  Biso   1.000  H
  H2       1.0000 0.69610  0.01990  0.56240  Biso   1.000  H
  H3       1.0000 0.01990  0.30390  0.06240  Biso   1.000  H
  H4       1.0000 0.98010  0.69610  0.06240  Biso   1.000  H
  C5       1.0000 0.17740  0.00200  0.65850  Biso   1.000  C
  C6       1.0000 0.82260  0.99800  0.65850  Biso   1.000  C
  C7       1.0000 0.99800  0.17740  0.15850  Biso   1.000  C
  C8       1.0000 0.00200  0.82260  0.15850  Biso   1.000  C
  H5       1.0000 0.19200  0.94750  0.70290  Biso   1.000  H
  H6       1.0000 0.80800  0.05250  0.70290  Biso   1.000  H
  H7       1.0000 0.05250  0.19200  0.20290  Biso   1.000  H
  H8       1.0000 0.94750  0.80800  0.20290  Biso   1.000  H
  C9       1.0000 0.09400  0.06440  0.67160  Biso   1.000  C
  C10      1.0000 0.90600  0.93560  0.67160  Biso   1.000  C
  C11      1.0000 0.93560  0.09400  0.17160  Biso   1.000  C
  C12      1.0000 0.06440  0.90600  0.17160  Biso   1.000  C
  C13      1.0000 0.07470  0.14580  0.60430  Biso   1.000  C
  C14      1.0000 0.92530  0.85420  0.60430  Biso   1.000  C
  C15      1.0000 0.85420  0.07470  0.10430  Biso   1.000  C
  C16      1.0000 0.14580  0.92530  0.10430  Biso   1.000  C
  H9       1.0000 0.01780  0.19050  0.61500  Biso   1.000  H
  H10      1.0000 0.98220  0.80950  0.61500  Biso   1.000  H
  H11      1.0000 0.80950  0.01780  0.11500  Biso   1.000  H
  H12      1.0000 0.19050  0.98220  0.11500  Biso   1.000  H
  C17      1.0000 0.13790  0.16140  0.52250  Biso   1.000  C
  C18      1.0000 0.86210  0.83860  0.52250  Biso   1.000  C
  C19      1.0000 0.83860  0.13790  0.02250  Biso   1.000  C
  C20      1.0000 0.16140  0.86210  0.02250  Biso   1.000  C
  H13      1.0000 0.12230  0.21440  0.47680  Biso   1.000  H
  H14      1.0000 0.87770  0.78560  0.47680  Biso   1.000  H
  H15      1.0000 0.78560  0.12230  0.97680  Biso   1.000  H
  H16      1.0000 0.21440  0.87770  0.97680  Biso   1.000  H
  C21      1.0000 0.03400  0.04890  0.76290  Biso   1.000  C
  C22      1.0000 0.96600  0.95110  0.76290  Biso   1.000  C
  C23      1.0000 0.95110  0.03400  0.26290  Biso   1.000  C
  C24      1.0000 0.04890  0.96600  0.26290  Biso   1.000  C
  H17      1.0000 0.98940  0.10980  0.77350  Biso   1.000  H
  H18      1.0000 0.01060  0.89020  0.77350  Biso   1.000  H
  H19      1.0000 0.89020  0.98940  0.27350  Biso   1.000  H
  H20      1.0000 0.10980  0.01060  0.27350  Biso   1.000  H
  H21      1.0000 0.08260  0.04480  0.81880  Biso   1.000  H
  H22      1.0000 0.91740  0.95520  0.81880  Biso   1.000  H
  H23      1.0000 0.95520  0.08260  0.31880  Biso   1.000  H
  H24      1.0000 0.04480  0.91740  0.31880  Biso   1.000  H
  C25      1.0000 0.55730  0.24090  0.15800  Biso   1.000  C
  C26      1.0000 0.44270  0.75910  0.15800  Biso   1.000  C
  C27      1.0000 0.75910  0.55730  0.65800  Biso   1.000  C
  C28      1.0000 0.24090  0.44270  0.65800  Biso   1.000  C
  H25      1.0000 0.53460  0.17140  0.15490  Biso   1.000  H
  H26      1.0000 0.46540  0.82860  0.15490  Biso   1.000  H
  H27      1.0000 0.82860  0.53460  0.65490  Biso   1.000  H
  H28      1.0000 0.17140  0.46540  0.65490  Biso   1.000  H
  C29      1.0000 0.54800  0.30260  0.07290  Biso   1.000  C
  C30      1.0000 0.45200  0.69740  0.07290  Biso   1.000  C
  C31      1.0000 0.69740  0.54800  0.57290  Biso   1.000  C
  C32      1.0000 0.30260  0.45200  0.57290  Biso   1.000  C
  H29      1.0000 0.52330  0.27330  0.01360  Biso   1.000  H
  H30      1.0000 0.47670  0.72670  0.01360  Biso   1.000  H
  H31      1.0000 0.72670  0.52330  0.51360  Biso   1.000  H
  H32      1.0000 0.27330  0.47670  0.51360  Biso   1.000  H
  C33      1.0000 0.57690  0.41270  0.07650  Biso   1.000  C
  C34      1.0000 0.42310  0.58730  0.07650  Biso   1.000  C
  C35      1.0000 0.58730  0.57690  0.57650  Biso   1.000  C
  C36      1.0000 0.41270  0.42310  0.57650  Biso   1.000  C
  C37      1.0000 0.61760  0.45190  0.16800  Biso   1.000  C
  C38      1.0000 0.38240  0.54810  0.16800  Biso   1.000  C
  C39      1.0000 0.54810  0.61760  0.66800  Biso   1.000  C
  C40      1.0000 0.45190  0.38240  0.66800  Biso   1.000  C
  H33      1.0000 0.64080  0.52120  0.17230  Biso   1.000  H
  H34      1.0000 0.35920  0.47880  0.17230  Biso   1.000  H
  H35      1.0000 0.47880  0.64080  0.67230  Biso   1.000  H
  H36      1.0000 0.52120  0.35920  0.67230  Biso   1.000  H
  C41      1.0000 0.62310  0.38450  0.25370  Biso   1.000  C
  C42      1.0000 0.37690  0.61550  0.25370  Biso   1.000  C
  C43      1.0000 0.61550  0.62310  0.75370  Biso   1.000  C
  C44      1.0000 0.38450  0.37690  0.75370  Biso   1.000  C
  H37      1.0000 0.64350  0.41260  0.31500  Biso   1.000  H
  H38      1.0000 0.35650  0.58740  0.31500  Biso   1.000  H
  H39      1.0000 0.58740  0.64350  0.81500  Biso   1.000  H
  H40      1.0000 0.41260  0.35650  0.81500  Biso   1.000  H
  C45      1.0000 0.55640  0.48160  0.98860  Biso   1.000  C
  C46      1.0000 0.44360  0.51840  0.98860  Biso   1.000  C
  C47      1.0000 0.51840  0.55640  0.48860  Biso   1.000  C
  C48      1.0000 0.48160  0.44360  0.48860  Biso   1.000  C
  H41      1.0000 0.57070  0.44310  0.92740  Biso   1.000  H
  H42      1.0000 0.42930  0.55690  0.92740  Biso   1.000  H
  H43      1.0000 0.55690  0.57070  0.42740  Biso   1.000  H
  H44      1.0000 0.44310  0.42930  0.42740  Biso   1.000  H
  H45      1.0000 0.60300  0.54210  0.99080  Biso   1.000  H
  H46      1.0000 0.39700  0.45790  0.99080  Biso   1.000  H
  H47      1.0000 0.45790  0.60300  0.49080  Biso   1.000  H
  H48      1.0000 0.54210  0.39700  0.49080  Biso   1.000  H
  C49      1.0000 0.81980  0.26650  0.33850  Biso   1.000  C
  C50      1.0000 0.18020  0.73350  0.33850  Biso   1.000  C
  C51      1.0000 0.73350  0.81980  0.83850  Biso   1.000  C
  C52      1.0000 0.26650  0.18020  0.83850  Biso   1.000  C
  H49      1.0000 0.80670  0.24460  0.27330  Biso   1.000  H
  H50      1.0000 0.19330  0.75540  0.27330  Biso   1.000  H
  H51      1.0000 0.75540  0.80670  0.77330  Biso   1.000  H
  H52      1.0000 0.24460  0.19330  0.77330  Biso   1.000  H
  C53      1.0000 0.90520  0.32770  0.35930  Biso   1.000  C
  C54      1.0000 0.09480  0.67230  0.35930  Biso   1.000  C
  C55      1.0000 0.67230  0.90520  0.85930  Biso   1.000  C
  C56      1.0000 0.32770  0.09480  0.85930  Biso   1.000  C
  H53      1.0000 0.95120  0.34580  0.30790  Biso   1.000  H
  H54      1.0000 0.04880  0.65420  0.30790  Biso   1.000  H
  H55      1.0000 0.65420  0.95120  0.80790  Biso   1.000  H
  H56      1.0000 0.34580  0.04880  0.80790  Biso   1.000  H
  C57      1.0000 0.92490  0.36370  0.45560  Biso   1.000  C
  C58      1.0000 0.07510  0.63630  0.45560  Biso   1.000  C
  C59      1.0000 0.63630  0.92490  0.95560  Biso   1.000  C
  C60      1.0000 0.36370  0.07510  0.95560  Biso   1.000  C
  H57      1.0000 0.98290  0.40630  0.46880  Biso   1.000  H
  H58      1.0000 0.01710  0.59370  0.46880  Biso   1.000  H
  H59      1.0000 0.59370  0.98290  0.96880  Biso   1.000  H
  H60      1.0000 0.40630  0.01710  0.96880  Biso   1.000  H
  C61      1.0000 0.85700  0.33510  0.53150  Biso   1.000  C
  C62      1.0000 0.14300  0.66490  0.53150  Biso   1.000  C
  C63      1.0000 0.66490  0.85700  0.03150  Biso   1.000  C
  C64      1.0000 0.33510  0.14300  0.03150  Biso   1.000  C
  H61      1.0000 0.86880  0.35820  0.59660  Biso   1.000  H
  H62      1.0000 0.13120  0.64180  0.59660  Biso   1.000  H
  H63      1.0000 0.64180  0.86880  0.09660  Biso   1.000  H
  H64      1.0000 0.35820  0.13120  0.09660  Biso   1.000  H
  C65      1.0000 0.77150  0.27200  0.51010  Biso   1.000  C
  C66      1.0000 0.22850  0.72800  0.51010  Biso   1.000  C
  C67      1.0000 0.72800  0.77150  0.01010  Biso   1.000  C
  C68      1.0000 0.27200  0.22850  0.01010  Biso   1.000  C
  H65      1.0000 0.72590  0.25290  0.56140  Biso   1.000  H
  H66      1.0000 0.27410  0.74710  0.56140  Biso   1.000  H
  H67      1.0000 0.74710  0.72590  0.06140  Biso   1.000  H
  H68      1.0000 0.25290  0.27410  0.06140  Biso   1.000  H
  O1       1.0000 0.00000  0.50000  0.21300  Biso   1.000  O
  O2       1.0000 0.50000  0.00000  0.71300  Biso   1.000  O
  H69      1.0000 0.06170  0.51300  0.19170  Biso   1.000  H
  H70      1.0000 0.93830  0.48700  0.19170  Biso   1.000  H
  H71      1.0000 0.48700  0.06170  0.69170  Biso   1.000  H
  H72      1.0000 0.51300  0.93830  0.69170  Biso   1.000  H
  H73      1.0000 0.95570  0.51170  0.16650  Biso   1.000  H
  H74      1.0000 0.04430  0.48830  0.16650  Biso   1.000  H
  H75      1.0000 0.48830  0.95570  0.66650  Biso   1.000  H
  H76      1.0000 0.51170  0.04430  0.66650  Biso   1.000  H
