data_image0
_cell_length_a       10.3544
_cell_length_b       11.5905
_cell_length_c       13.8724
_cell_angle_alpha    70.766
_cell_angle_beta     79.152
_cell_angle_gamma    89.788

_symmetry_space_group_name_H-M    "P 1"
_symmetry_int_tables_number       1

loop_
  _symmetry_equiv_pos_as_xyz
  'x, y, z'

loop_
  _atom_site_label
  _atom_site_occupancy
  _atom_site_fract_x
  _atom_site_fract_y
  _atom_site_fract_z
  _atom_site_thermal_displace_type
  _atom_site_B_iso_or_equiv
  _atom_site_type_symbol
  C1       1.0000 0.72220  0.99280  0.19540  Biso   1.000  C
  C2       1.0000 0.27780  0.00720  0.80460  Biso   1.000  C
  C3       1.0000 0.70150  0.86830  0.22080  Biso   1.000  C
  C4       1.0000 0.29850  0.13170  0.77920  Biso   1.000  C
  H1       1.0000 0.63640  0.82810  0.20350  Biso   1.000  H
  H2       1.0000 0.36360  0.17190  0.79650  Biso   1.000  H
  C5       1.0000 0.79430  0.81530  0.27580  Biso   1.000  C
  C6       1.0000 0.20570  0.18470  0.72420  Biso   1.000  C
  C7       1.0000 0.82290  0.68270  0.32040  Biso   1.000  C
  C8       1.0000 0.17710  0.31730  0.67960  Biso   1.000  C
  H3       1.0000 0.75990  0.63220  0.30700  Biso   1.000  H
  H4       1.0000 0.24010  0.36780  0.69300  Biso   1.000  H
  H5       1.0000 0.91000  0.67040  0.28850  Biso   1.000  H
  H6       1.0000 0.09000  0.32960  0.71150  Biso   1.000  H
  H7       1.0000 0.81690  0.66090  0.39420  Biso   1.000  H
  H8       1.0000 0.18310  0.33910  0.60580  Biso   1.000  H
  C9       1.0000 0.65210  0.09320  0.13090  Biso   1.000  C
  C10      1.0000 0.34790  0.90680  0.86910  Biso   1.000  C
  H9       1.0000 0.58270  0.05840  0.11000  Biso   1.000  H
  H10      1.0000 0.41730  0.94160  0.89000  Biso   1.000  H
  H11      1.0000 0.61540  0.14310  0.17120  Biso   1.000  H
  H12      1.0000 0.38460  0.85690  0.82880  Biso   1.000  H
  H13      1.0000 0.71320  0.14260  0.07020  Biso   1.000  H
  H14      1.0000 0.28680  0.85740  0.92980  Biso   1.000  H
  C11      1.0000 0.98280  0.89810  0.33020  Biso   1.000  C
  C12      1.0000 0.01720  0.10190  0.66980  Biso   1.000  C
  H15      1.0000 0.01840  0.98000  0.31840  Biso   1.000  H
  H16      1.0000 0.98160  0.02000  0.68160  Biso   1.000  H
  H17      1.0000 0.04960  0.85770  0.29620  Biso   1.000  H
  H18      1.0000 0.95040  0.14230  0.70380  Biso   1.000  H
  C13      1.0000 0.95370  0.82880  0.44540  Biso   1.000  C
  C14      1.0000 0.04630  0.17120  0.55460  Biso   1.000  C
  C15      1.0000 0.86790  0.87160  0.51240  Biso   1.000  C
  C16      1.0000 0.13210  0.12840  0.48760  Biso   1.000  C
  H19      1.0000 0.82770  0.94400  0.48590  Biso   1.000  H
  H20      1.0000 0.17230  0.05600  0.51410  Biso   1.000  H
  C17      1.0000 0.01240  0.72190  0.48750  Biso   1.000  C
  C18      1.0000 0.98760  0.27810  0.51250  Biso   1.000  C
  H21      1.0000 0.07110  0.69110  0.44400  Biso   1.000  H
  H22      1.0000 0.92890  0.30890  0.55600  Biso   1.000  H
  C19      1.0000 0.83730  0.83150  0.91940  Biso   1.000  C
  C20      1.0000 0.16270  0.16850  0.08060  Biso   1.000  C
  C21      1.0000 0.70590  0.79060  0.94040  Biso   1.000  C
  C22      1.0000 0.29410  0.20940  0.05960  Biso   1.000  C
  H23      1.0000 0.63610  0.81370  0.98170  Biso   1.000  H
  H24      1.0000 0.36390  0.18630  0.01830  Biso   1.000  H
  C23      1.0000 0.69920  0.71060  0.88880  Biso   1.000  C
  C24      1.0000 0.30080  0.28940  0.11120  Biso   1.000  C
  C25      1.0000 0.58310  0.63990  0.88100  Biso   1.000  C
  C26      1.0000 0.41690  0.36010  0.11900  Biso   1.000  C
  H25      1.0000 0.50460  0.65760  0.92140  Biso   1.000  H
  H26      1.0000 0.49540  0.34240  0.07860  Biso   1.000  H
  H27      1.0000 0.59570  0.55380  0.90700  Biso   1.000  H
  H28      1.0000 0.40430  0.44620  0.09300  Biso   1.000  H
  H29      1.0000 0.57460  0.66280  0.80940  Biso   1.000  H
  H30      1.0000 0.42540  0.33720  0.19060  Biso   1.000  H
  C27      1.0000 0.89930  0.91920  0.95770  Biso   1.000  C
  C28      1.0000 0.10070  0.08080  0.04230  Biso   1.000  C
  H31      1.0000 0.83270  0.94780  0.00110  Biso   1.000  H
  H32      1.0000 0.16730  0.05220  0.99890  Biso   1.000  H
  H33      1.0000 0.94200  0.98750  0.89950  Biso   1.000  H
  H34      1.0000 0.05800  0.01250  0.10050  Biso   1.000  H
  H35      1.0000 0.96310  0.87890  0.99730  Biso   1.000  H
  H36      1.0000 0.03690  0.12110  0.00270  Biso   1.000  H
  C29      1.0000 0.86900  0.63020  0.77480  Biso   1.000  C
  C30      1.0000 0.13100  0.36980  0.22520  Biso   1.000  C
  H37      1.0000 0.94790  0.59210  0.79480  Biso   1.000  H
  H38      1.0000 0.05210  0.40790  0.20520  Biso   1.000  H
  H39      1.0000 0.80250  0.56540  0.78750  Biso   1.000  H
  H40      1.0000 0.19750  0.43460  0.21250  Biso   1.000  H
  C31      1.0000 0.89960  0.70270  0.66000  Biso   1.000  C
  C32      1.0000 0.10040  0.29730  0.34000  Biso   1.000  C
  C33      1.0000 0.84030  0.80930  0.61850  Biso   1.000  C
  C34      1.0000 0.15970  0.19070  0.38150  Biso   1.000  C
  H41      1.0000 0.78120  0.83960  0.66220  Biso   1.000  H
  H42      1.0000 0.21880  0.16040  0.33780  Biso   1.000  H
  C35      1.0000 0.98540  0.65980  0.59350  Biso   1.000  C
  C36      1.0000 0.01460  0.34020  0.40650  Biso   1.000  C
  H43      1.0000 0.02600  0.58770  0.62020  Biso   1.000  H
  H44      1.0000 0.97400  0.41230  0.37980  Biso   1.000  H
  C37      1.0000 0.65200  0.45790  0.23020  Biso   1.000  C
  C38      1.0000 0.34800  0.54210  0.76980  Biso   1.000  C
  H45      1.0000 0.61240  0.52940  0.19980  Biso   1.000  H
  H46      1.0000 0.38760  0.47060  0.80020  Biso   1.000  H
  C39      1.0000 0.62270  0.38470  0.33220  Biso   1.000  C
  C40      1.0000 0.37730  0.61530  0.66780  Biso   1.000  C
  C41      1.0000 0.75140  0.40560  0.18120  Biso   1.000  C
  C42      1.0000 0.24860  0.59440  0.81880  Biso   1.000  C
  C43      1.0000 0.81910  0.44650  0.06930  Biso   1.000  C
  C44      1.0000 0.18090  0.55350  0.93070  Biso   1.000  C
  H47      1.0000 0.78420  0.52120  0.03190  Biso   1.000  H
  H48      1.0000 0.21580  0.47880  0.96810  Biso   1.000  H
  H49      1.0000 0.91190  0.46010  0.06420  Biso   1.000  H
  H50      1.0000 0.08810  0.53990  0.93580  Biso   1.000  H
  H51      1.0000 0.80460  0.38450  0.03990  Biso   1.000  H
  H52      1.0000 0.19540  0.61550  0.96010  Biso   1.000  H
  C45      1.0000 0.52330  0.39190  0.42340  Biso   1.000  C
  C46      1.0000 0.47670  0.60810  0.57660  Biso   1.000  C
  H53      1.0000 0.47480  0.46350  0.40180  Biso   1.000  H
  H54      1.0000 0.52520  0.53650  0.59820  Biso   1.000  H
  H55      1.0000 0.46380  0.32030  0.44990  Biso   1.000  H
  H56      1.0000 0.53620  0.67970  0.55010  Biso   1.000  H
  H57      1.0000 0.56770  0.39640  0.47700  Biso   1.000  H
  H58      1.0000 0.43230  0.60360  0.52300  Biso   1.000  H
  C47      1.0000 0.71150  0.18990  0.43560  Biso   1.000  C
  C48      1.0000 0.28850  0.81010  0.56440  Biso   1.000  C
  H59      1.0000 0.71270  0.22140  0.49210  Biso   1.000  H
  H60      1.0000 0.28730  0.77860  0.50790  Biso   1.000  H
  H61      1.0000 0.79380  0.15180  0.42380  Biso   1.000  H
  H62      1.0000 0.20620  0.84820  0.57620  Biso   1.000  H
  C49      1.0000 0.59930  0.09360  0.46830  Biso   1.000  C
  C50      1.0000 0.40070  0.90640  0.53170  Biso   1.000  C
  C51      1.0000 0.53670  0.06870  0.39710  Biso   1.000  C
  C52      1.0000 0.46330  0.93130  0.60290  Biso   1.000  C
  H63      1.0000 0.56110  0.11510  0.32690  Biso   1.000  H
  H64      1.0000 0.43890  0.88490  0.67310  Biso   1.000  H
  C53      1.0000 0.56110  0.02360  0.57180  Biso   1.000  C
  C54      1.0000 0.43890  0.97640  0.42820  Biso   1.000  C
  H65      1.0000 0.60180  0.03880  0.62110  Biso   1.000  H
  H66      1.0000 0.39820  0.96120  0.37890  Biso   1.000  H
  N1       1.0000 0.82350  0.01740  0.23425  Biso   1.000  N
  N2       1.0000 0.17650  0.98260  0.76575  Biso   1.000  N
  N3       1.0000 0.86670  0.90680  0.28299  Biso   1.000  N
  N4       1.0000 0.13330  0.09320  0.71701  Biso   1.000  N
  N5       1.0000 0.90960  0.77850  0.85714  Biso   1.000  N
  N6       1.0000 0.09040  0.22150  0.14286  Biso   1.000  N
  N7       1.0000 0.82250  0.70342  0.83975  Biso   1.000  N
  N8       1.0000 0.17750  0.29658  0.16025  Biso   1.000  N
  N9       1.0000 0.78400  0.30270  0.24897  Biso   1.000  N
  N10      1.0000 0.21600  0.69730  0.75103  Biso   1.000  N
  N11      1.0000 0.70410  0.29200  0.34195  Biso   1.000  N
  N12      1.0000 0.29590  0.70800  0.65805  Biso   1.000  N
  Cu1      1.0000 0.90409  0.18189  0.21486  Biso   1.000  Cu
  Cu2      1.0000 0.09591  0.81811  0.78514  Biso   1.000  Cu
  P1       1.0000 0.68347  0.28582  0.78920  Biso   1.000  P
  P2       1.0000 0.31653  0.71418  0.21080  Biso   1.000  P
  F1       1.0000 0.70650  0.20570  0.71480  Biso   1.000  F
  F2       1.0000 0.29350  0.79430  0.28520  Biso   1.000  F
  F3       1.0000 0.65550  0.35820  0.86450  Biso   1.000  F
  F4       1.0000 0.34450  0.64180  0.13550  Biso   1.000  F
  F5       1.0000 0.77470  0.38810  0.70530  Biso   1.000  F
  F6       1.0000 0.22530  0.61190  0.29470  Biso   1.000  F
  F7       1.0000 0.80040  0.22510  0.83730  Biso   1.000  F
  F8       1.0000 0.19960  0.77490  0.16270  Biso   1.000  F
  F9       1.0000 0.58740  0.17760  0.87330  Biso   1.000  F
  F10      1.0000 0.41260  0.82240  0.12670  Biso   1.000  F
  F11      1.0000 0.55460  0.32860  0.74380  Biso   1.000  F
  F12      1.0000 0.44540  0.67140  0.25620  Biso   1.000  F
  F13      1.0000 0.66040  0.43310  0.74100  Biso   1.000  F
  F14      1.0000 0.33960  0.56690  0.25900  Biso   1.000  F
  F15      1.0000 0.71410  0.16250  0.83080  Biso   1.000  F
  F16      1.0000 0.28590  0.83750  0.16920  Biso   1.000  F
  F17      1.0000 0.83410  0.33140  0.74480  Biso   1.000  F
  F18      1.0000 0.16590  0.66860  0.25520  Biso   1.000  F
  F19      1.0000 0.66510  0.27800  0.68640  Biso   1.000  F
  F20      1.0000 0.33490  0.72200  0.31360  Biso   1.000  F
  F21      1.0000 0.53840  0.27420  0.83090  Biso   1.000  F
  F22      1.0000 0.46160  0.72580  0.16910  Biso   1.000  F
  F23      1.0000 0.71700  0.32970  0.88000  Biso   1.000  F
  F24      1.0000 0.28300  0.67030  0.12000  Biso   1.000  F
