data_image0
_cell_length_a       12.5954
_cell_length_b       12.5954
_cell_length_c       7.9766
_cell_angle_alpha    90
_cell_angle_beta     90
_cell_angle_gamma    90

_symmetry_space_group_name_H-M    "P 1"
_symmetry_int_tables_number       1

loop_
  _symmetry_equiv_pos_as_xyz
  'x, y, z'

loop_
  _atom_site_label
  _atom_site_occupancy
  _atom_site_fract_x
  _atom_site_fract_y
  _atom_site_fract_z
  _atom_site_thermal_displace_type
  _atom_site_B_iso_or_equiv
  _atom_site_type_symbol
  C1       1.0000 0.86613  0.31985  0.81350  Biso   1.000  C
  C2       1.0000 0.63387  0.18015  0.81350  Biso   1.000  C
  C3       1.0000 0.18015  0.86613  0.81350  Biso   1.000  C
  C4       1.0000 0.31985  0.63387  0.81350  Biso   1.000  C
  C5       1.0000 0.13387  0.68015  0.18650  Biso   1.000  C
  C6       1.0000 0.36613  0.81985  0.18650  Biso   1.000  C
  C7       1.0000 0.81985  0.13387  0.18650  Biso   1.000  C
  C8       1.0000 0.68015  0.36613  0.18650  Biso   1.000  C
  H1       1.0000 0.80680  0.35900  0.84520  Biso   1.000  H
  H2       1.0000 0.69320  0.14100  0.84520  Biso   1.000  H
  H3       1.0000 0.14100  0.80680  0.84520  Biso   1.000  H
  H4       1.0000 0.35900  0.69320  0.84520  Biso   1.000  H
  H5       1.0000 0.19320  0.64100  0.15480  Biso   1.000  H
  H6       1.0000 0.30680  0.85900  0.15480  Biso   1.000  H
  H7       1.0000 0.85900  0.19320  0.15480  Biso   1.000  H
  H8       1.0000 0.64100  0.30680  0.15480  Biso   1.000  H
  C9       1.0000 0.95920  0.31360  0.90620  Biso   1.000  C
  C10      1.0000 0.54080  0.18640  0.90620  Biso   1.000  C
  C11      1.0000 0.18640  0.95920  0.90620  Biso   1.000  C
  C12      1.0000 0.31360  0.54080  0.90620  Biso   1.000  C
  C13      1.0000 0.04080  0.68640  0.09380  Biso   1.000  C
  C14      1.0000 0.45920  0.81360  0.09380  Biso   1.000  C
  C15      1.0000 0.81360  0.04080  0.09380  Biso   1.000  C
  C16      1.0000 0.68640  0.45920  0.09380  Biso   1.000  C
  H9       1.0000 0.97430  0.34650  0.00780  Biso   1.000  H
  H10      1.0000 0.52570  0.15350  0.00780  Biso   1.000  H
  H11      1.0000 0.15350  0.97430  0.00780  Biso   1.000  H
  H12      1.0000 0.34650  0.52570  0.00780  Biso   1.000  H
  H13      1.0000 0.02570  0.65350  0.99220  Biso   1.000  H
  H14      1.0000 0.47430  0.84650  0.99220  Biso   1.000  H
  H15      1.0000 0.84650  0.02570  0.99220  Biso   1.000  H
  H16      1.0000 0.65350  0.47430  0.99220  Biso   1.000  H
  C17      1.0000 0.02293  0.24922  0.81630  Biso   1.000  C
  C18      1.0000 0.47707  0.25078  0.81630  Biso   1.000  C
  C19      1.0000 0.25078  0.02293  0.81630  Biso   1.000  C
  C20      1.0000 0.24922  0.47707  0.81630  Biso   1.000  C
  C21      1.0000 0.97707  0.75078  0.18370  Biso   1.000  C
  C22      1.0000 0.52293  0.74922  0.18370  Biso   1.000  C
  C23      1.0000 0.74922  0.97707  0.18370  Biso   1.000  C
  C24      1.0000 0.75078  0.52293  0.18370  Biso   1.000  C
  H17      1.0000 0.09130  0.22860  0.84600  Biso   1.000  H
  H18      1.0000 0.40870  0.27140  0.84600  Biso   1.000  H
  H19      1.0000 0.27140  0.09130  0.84600  Biso   1.000  H
  H20      1.0000 0.22860  0.40870  0.84600  Biso   1.000  H
  H21      1.0000 0.90870  0.77140  0.15400  Biso   1.000  H
  H22      1.0000 0.59130  0.72860  0.15400  Biso   1.000  H
  H23      1.0000 0.72860  0.90870  0.15400  Biso   1.000  H
  H24      1.0000 0.77140  0.59130  0.15400  Biso   1.000  H
  C25      1.0000 0.00839  0.15040  0.54380  Biso   1.000  C
  C26      1.0000 0.49161  0.34960  0.54380  Biso   1.000  C
  C27      1.0000 0.34960  0.00839  0.54380  Biso   1.000  C
  C28      1.0000 0.15040  0.49161  0.54380  Biso   1.000  C
  C29      1.0000 0.99161  0.84960  0.45620  Biso   1.000  C
  C30      1.0000 0.50839  0.65040  0.45620  Biso   1.000  C
  C31      1.0000 0.65040  0.99161  0.45620  Biso   1.000  C
  C32      1.0000 0.84960  0.50839  0.45620  Biso   1.000  C
  H25      1.0000 0.08510  0.15560  0.53690  Biso   1.000  H
  H26      1.0000 0.41490  0.34440  0.53690  Biso   1.000  H
  H27      1.0000 0.34440  0.08510  0.53690  Biso   1.000  H
  H28      1.0000 0.15560  0.41490  0.53690  Biso   1.000  H
  H29      1.0000 0.91490  0.84440  0.46310  Biso   1.000  H
  H30      1.0000 0.58510  0.65560  0.46310  Biso   1.000  H
  H31      1.0000 0.65560  0.91490  0.46310  Biso   1.000  H
  H32      1.0000 0.84440  0.58510  0.46310  Biso   1.000  H
  H33      1.0000 0.97940  0.17450  0.43770  Biso   1.000  H
  H34      1.0000 0.52060  0.32550  0.43770  Biso   1.000  H
  H35      1.0000 0.32550  0.97940  0.43770  Biso   1.000  H
  H36      1.0000 0.17450  0.52060  0.43770  Biso   1.000  H
  H37      1.0000 0.02060  0.82550  0.56230  Biso   1.000  H
  H38      1.0000 0.47940  0.67450  0.56230  Biso   1.000  H
  H39      1.0000 0.67450  0.02060  0.56230  Biso   1.000  H
  H40      1.0000 0.82550  0.47940  0.56230  Biso   1.000  H
  C33      1.0000 0.97792  0.03490  0.56990  Biso   1.000  C
  C34      1.0000 0.52208  0.46510  0.56990  Biso   1.000  C
  C35      1.0000 0.46510  0.97792  0.56990  Biso   1.000  C
  C36      1.0000 0.03490  0.52208  0.56990  Biso   1.000  C
  C37      1.0000 0.02208  0.96510  0.43010  Biso   1.000  C
  C38      1.0000 0.47792  0.53490  0.43010  Biso   1.000  C
  C39      1.0000 0.53490  0.02208  0.43010  Biso   1.000  C
  C40      1.0000 0.96510  0.47792  0.43010  Biso   1.000  C
  H41      1.0000 0.90120  0.02870  0.57250  Biso   1.000  H
  H42      1.0000 0.59880  0.47130  0.57250  Biso   1.000  H
  H43      1.0000 0.47130  0.90120  0.57250  Biso   1.000  H
  H44      1.0000 0.02870  0.59880  0.57250  Biso   1.000  H
  H45      1.0000 0.09880  0.97130  0.42750  Biso   1.000  H
  H46      1.0000 0.40120  0.52870  0.42750  Biso   1.000  H
  H47      1.0000 0.52870  0.09880  0.42750  Biso   1.000  H
  H48      1.0000 0.97130  0.40120  0.42750  Biso   1.000  H
  H49      1.0000 0.00530  0.01070  0.67690  Biso   1.000  H
  H50      1.0000 0.49470  0.48930  0.67690  Biso   1.000  H
  H51      1.0000 0.48930  0.00530  0.67690  Biso   1.000  H
  H52      1.0000 0.01070  0.49470  0.67690  Biso   1.000  H
  H53      1.0000 0.99470  0.98930  0.32310  Biso   1.000  H
  H54      1.0000 0.50530  0.51070  0.32310  Biso   1.000  H
  H55      1.0000 0.51070  0.99470  0.32310  Biso   1.000  H
  H56      1.0000 0.98930  0.50530  0.32310  Biso   1.000  H
  N1       1.0000 0.87258  0.26260  0.67295  Biso   1.000  N
  N2       1.0000 0.62742  0.23740  0.67295  Biso   1.000  N
  N3       1.0000 0.23740  0.87258  0.67295  Biso   1.000  N
  N4       1.0000 0.26260  0.62742  0.67295  Biso   1.000  N
  N5       1.0000 0.12742  0.73740  0.32705  Biso   1.000  N
  N6       1.0000 0.37258  0.76260  0.32705  Biso   1.000  N
  N7       1.0000 0.76260  0.12742  0.32705  Biso   1.000  N
  N8       1.0000 0.73740  0.37258  0.32705  Biso   1.000  N
  N9       1.0000 0.97093  0.21977  0.67630  Biso   1.000  N
  N10      1.0000 0.52907  0.28023  0.67630  Biso   1.000  N
  N11      1.0000 0.28023  0.97093  0.67630  Biso   1.000  N
  N12      1.0000 0.21977  0.52907  0.67630  Biso   1.000  N
  N13      1.0000 0.02907  0.78023  0.32370  Biso   1.000  N
  N14      1.0000 0.47093  0.71977  0.32370  Biso   1.000  N
  N15      1.0000 0.71977  0.02907  0.32370  Biso   1.000  N
  N16      1.0000 0.78023  0.47093  0.32370  Biso   1.000  N
  Cu1      1.0000 0.75000  0.25000  0.50000  Biso   1.000  Cu
  Cu2      1.0000 0.25000  0.75000  0.50000  Biso   1.000  Cu
  F1       1.0000 0.25000  0.25000  0.41800  Biso   1.000  F
  F2       1.0000 0.75000  0.75000  0.58200  Biso   1.000  F
  F3       1.0000 0.25000  0.25000  0.01480  Biso   1.000  F
  F4       1.0000 0.75000  0.75000  0.98520  Biso   1.000  F
  F5       1.0000 0.13430  0.30240  0.22630  Biso   1.000  F
  F6       1.0000 0.36570  0.19760  0.22630  Biso   1.000  F
  F7       1.0000 0.19760  0.13430  0.22630  Biso   1.000  F
  F8       1.0000 0.30240  0.36570  0.22630  Biso   1.000  F
  F9       1.0000 0.86570  0.69760  0.77370  Biso   1.000  F
  F10      1.0000 0.63430  0.80240  0.77370  Biso   1.000  F
  F11      1.0000 0.80240  0.86570  0.77370  Biso   1.000  F
  F12      1.0000 0.69760  0.63430  0.77370  Biso   1.000  F
  P1       1.0000 0.25000  0.25000  0.21666  Biso   1.000  P
  P2       1.0000 0.75000  0.75000  0.78334  Biso   1.000  P
  F13      1.0000 0.25620  0.37730  0.21720  Biso   1.000  F
  F14      1.0000 0.24380  0.12270  0.21720  Biso   1.000  F
  F15      1.0000 0.12270  0.25620  0.21720  Biso   1.000  F
  F16      1.0000 0.37730  0.24380  0.21720  Biso   1.000  F
  F17      1.0000 0.74380  0.62270  0.78280  Biso   1.000  F
  F18      1.0000 0.75620  0.87730  0.78280  Biso   1.000  F
  F19      1.0000 0.87730  0.74380  0.78280  Biso   1.000  F
  F20      1.0000 0.62270  0.75620  0.78280  Biso   1.000  F
  F21      1.0000 0.16220  0.34110  0.19860  Biso   1.000  F
  F22      1.0000 0.33780  0.15890  0.19860  Biso   1.000  F
  F23      1.0000 0.15890  0.16220  0.19860  Biso   1.000  F
  F24      1.0000 0.34110  0.33780  0.19860  Biso   1.000  F
  F25      1.0000 0.83780  0.65890  0.80140  Biso   1.000  F
  F26      1.0000 0.66220  0.84110  0.80140  Biso   1.000  F
  F27      1.0000 0.84110  0.83780  0.80140  Biso   1.000  F
  F28      1.0000 0.65890  0.66220  0.80140  Biso   1.000  F
