data_image0
_cell_length_a       13.616
_cell_length_b       13.616
_cell_length_c       7.984
_cell_angle_alpha    90
_cell_angle_beta     90
_cell_angle_gamma    90

_symmetry_space_group_name_H-M    "P 1"
_symmetry_int_tables_number       1

loop_
  _symmetry_equiv_pos_as_xyz
  'x, y, z'

loop_
  _atom_site_label
  _atom_site_occupancy
  _atom_site_fract_x
  _atom_site_fract_y
  _atom_site_fract_z
  _atom_site_thermal_displace_type
  _atom_site_B_iso_or_equiv
  _atom_site_type_symbol
  C1       1.0000 0.81410  0.35820  0.81840  Biso   1.000  C
  C2       1.0000 0.68590  0.14180  0.81840  Biso   1.000  C
  C3       1.0000 0.14180  0.81410  0.81840  Biso   1.000  C
  C4       1.0000 0.35820  0.68590  0.81840  Biso   1.000  C
  C5       1.0000 0.18590  0.64180  0.18160  Biso   1.000  C
  C6       1.0000 0.31410  0.85820  0.18160  Biso   1.000  C
  C7       1.0000 0.85820  0.18590  0.18160  Biso   1.000  C
  C8       1.0000 0.64180  0.31410  0.18160  Biso   1.000  C
  H1       1.0000 0.83380  0.29970  0.86810  Biso   1.000  H
  H2       1.0000 0.66620  0.20030  0.86810  Biso   1.000  H
  H3       1.0000 0.20030  0.83380  0.86810  Biso   1.000  H
  H4       1.0000 0.29970  0.66620  0.86810  Biso   1.000  H
  H5       1.0000 0.16620  0.70030  0.13190  Biso   1.000  H
  H6       1.0000 0.33380  0.79970  0.13190  Biso   1.000  H
  H7       1.0000 0.79970  0.16620  0.13190  Biso   1.000  H
  H8       1.0000 0.70030  0.33380  0.13190  Biso   1.000  H
  C9       1.0000 0.82090  0.44950  0.89470  Biso   1.000  C
  C10      1.0000 0.67910  0.05050  0.89470  Biso   1.000  C
  C11      1.0000 0.05050  0.82090  0.89470  Biso   1.000  C
  C12      1.0000 0.44950  0.67910  0.89470  Biso   1.000  C
  C13      1.0000 0.17910  0.55050  0.10530  Biso   1.000  C
  C14      1.0000 0.32090  0.94950  0.10530  Biso   1.000  C
  C15      1.0000 0.94950  0.17910  0.10530  Biso   1.000  C
  C16      1.0000 0.55050  0.32090  0.10530  Biso   1.000  C
  H9       1.0000 0.84450  0.46350  0.00140  Biso   1.000  H
  H10      1.0000 0.65550  0.03650  0.00140  Biso   1.000  H
  H11      1.0000 0.03650  0.84450  0.00140  Biso   1.000  H
  H12      1.0000 0.46350  0.65550  0.00140  Biso   1.000  H
  H13      1.0000 0.15550  0.53650  0.99860  Biso   1.000  H
  H14      1.0000 0.34450  0.96350  0.99860  Biso   1.000  H
  H15      1.0000 0.96350  0.15550  0.99860  Biso   1.000  H
  H16      1.0000 0.53650  0.34450  0.99860  Biso   1.000  H
  C17      1.0000 0.78580  0.51360  0.77980  Biso   1.000  C
  C18      1.0000 0.71420  0.98640  0.77980  Biso   1.000  C
  C19      1.0000 0.98640  0.78580  0.77980  Biso   1.000  C
  C20      1.0000 0.51360  0.71420  0.77980  Biso   1.000  C
  C21      1.0000 0.21420  0.48640  0.22020  Biso   1.000  C
  C22      1.0000 0.28580  0.01360  0.22020  Biso   1.000  C
  C23      1.0000 0.01360  0.21420  0.22020  Biso   1.000  C
  C24      1.0000 0.48640  0.28580  0.22020  Biso   1.000  C
  H17      1.0000 0.78040  0.58120  0.79340  Biso   1.000  H
  H18      1.0000 0.71960  0.91880  0.79340  Biso   1.000  H
  H19      1.0000 0.91880  0.78040  0.79340  Biso   1.000  H
  H20      1.0000 0.58120  0.71960  0.79340  Biso   1.000  H
  H21      1.0000 0.21960  0.41880  0.20660  Biso   1.000  H
  H22      1.0000 0.28040  0.08120  0.20660  Biso   1.000  H
  H23      1.0000 0.08120  0.21960  0.20660  Biso   1.000  H
  H24      1.0000 0.41880  0.28040  0.20660  Biso   1.000  H
  C25      1.0000 0.71380  0.49880  0.49250  Biso   1.000  C
  C26      1.0000 0.78620  0.00120  0.49250  Biso   1.000  C
  C27      1.0000 0.00120  0.71380  0.49250  Biso   1.000  C
  C28      1.0000 0.49880  0.78620  0.49250  Biso   1.000  C
  C29      1.0000 0.28620  0.50120  0.50750  Biso   1.000  C
  C30      1.0000 0.21380  0.99880  0.50750  Biso   1.000  C
  C31      1.0000 0.99880  0.28620  0.50750  Biso   1.000  C
  C32      1.0000 0.50120  0.21380  0.50750  Biso   1.000  C
  H25      1.0000 0.73450  0.45850  0.39860  Biso   1.000  H
  H26      1.0000 0.76550  0.04150  0.39860  Biso   1.000  H
  H27      1.0000 0.04150  0.73450  0.39860  Biso   1.000  H
  H28      1.0000 0.45850  0.76550  0.39860  Biso   1.000  H
  H29      1.0000 0.26550  0.54150  0.60140  Biso   1.000  H
  H30      1.0000 0.23450  0.95850  0.60140  Biso   1.000  H
  H31      1.0000 0.95850  0.26550  0.60140  Biso   1.000  H
  H32      1.0000 0.54150  0.23450  0.60140  Biso   1.000  H
  H33      1.0000 0.73660  0.56520  0.47200  Biso   1.000  H
  H34      1.0000 0.76340  0.93480  0.47200  Biso   1.000  H
  H35      1.0000 0.93480  0.73660  0.47200  Biso   1.000  H
  H36      1.0000 0.56520  0.76340  0.47200  Biso   1.000  H
  H37      1.0000 0.26340  0.43480  0.52800  Biso   1.000  H
  H38      1.0000 0.23660  0.06520  0.52800  Biso   1.000  H
  H39      1.0000 0.06520  0.26340  0.52800  Biso   1.000  H
  H40      1.0000 0.43480  0.23660  0.52800  Biso   1.000  H
  C33      1.0000 0.60280  0.49937  0.49910  Biso   1.000  C
  C34      1.0000 0.89720  0.00063  0.49910  Biso   1.000  C
  C35      1.0000 0.00063  0.60280  0.49910  Biso   1.000  C
  C36      1.0000 0.49937  0.89720  0.49910  Biso   1.000  C
  C37      1.0000 0.39720  0.50063  0.50090  Biso   1.000  C
  C38      1.0000 0.10280  0.99937  0.50090  Biso   1.000  C
  C39      1.0000 0.99937  0.39720  0.50090  Biso   1.000  C
  C40      1.0000 0.50063  0.10280  0.50090  Biso   1.000  C
  C41      1.0000 0.55090  0.53420  0.36330  Biso   1.000  C
  C42      1.0000 0.94910  0.96580  0.36330  Biso   1.000  C
  C43      1.0000 0.96580  0.55090  0.36330  Biso   1.000  C
  C44      1.0000 0.53420  0.94910  0.36330  Biso   1.000  C
  C45      1.0000 0.44910  0.46580  0.63670  Biso   1.000  C
  C46      1.0000 0.05090  0.03420  0.63670  Biso   1.000  C
  C47      1.0000 0.03420  0.44910  0.63670  Biso   1.000  C
  C48      1.0000 0.46580  0.05090  0.63670  Biso   1.000  C
  H41      1.0000 0.58470  0.55730  0.27010  Biso   1.000  H
  H42      1.0000 0.91530  0.94270  0.27010  Biso   1.000  H
  H43      1.0000 0.94270  0.58470  0.27010  Biso   1.000  H
  H44      1.0000 0.55730  0.91530  0.27010  Biso   1.000  H
  H45      1.0000 0.41530  0.44270  0.72990  Biso   1.000  H
  H46      1.0000 0.08470  0.05730  0.72990  Biso   1.000  H
  H47      1.0000 0.05730  0.41530  0.72990  Biso   1.000  H
  H48      1.0000 0.44270  0.08470  0.72990  Biso   1.000  H
  C49      1.0000 0.55080  0.46490  0.63610  Biso   1.000  C
  C50      1.0000 0.94920  0.03510  0.63610  Biso   1.000  C
  C51      1.0000 0.03510  0.55080  0.63610  Biso   1.000  C
  C52      1.0000 0.46490  0.94920  0.63610  Biso   1.000  C
  C53      1.0000 0.44920  0.53510  0.36390  Biso   1.000  C
  C54      1.0000 0.05080  0.96490  0.36390  Biso   1.000  C
  C55      1.0000 0.96490  0.44920  0.36390  Biso   1.000  C
  C56      1.0000 0.53510  0.05080  0.36390  Biso   1.000  C
  H49      1.0000 0.58460  0.44080  0.72870  Biso   1.000  H
  H50      1.0000 0.91540  0.05920  0.72870  Biso   1.000  H
  H51      1.0000 0.05920  0.58460  0.72870  Biso   1.000  H
  H52      1.0000 0.44080  0.91540  0.72870  Biso   1.000  H
  H53      1.0000 0.41540  0.55920  0.27130  Biso   1.000  H
  H54      1.0000 0.08460  0.94080  0.27130  Biso   1.000  H
  H55      1.0000 0.94080  0.41540  0.27130  Biso   1.000  H
  H56      1.0000 0.55920  0.08460  0.27130  Biso   1.000  H
  N1       1.0000 0.77591  0.36474  0.66500  Biso   1.000  N
  N2       1.0000 0.72409  0.13526  0.66500  Biso   1.000  N
  N3       1.0000 0.13526  0.77591  0.66500  Biso   1.000  N
  N4       1.0000 0.36474  0.72409  0.66500  Biso   1.000  N
  N5       1.0000 0.22409  0.63526  0.33500  Biso   1.000  N
  N6       1.0000 0.27591  0.86474  0.33500  Biso   1.000  N
  N7       1.0000 0.86474  0.22409  0.33500  Biso   1.000  N
  N8       1.0000 0.63526  0.27591  0.33500  Biso   1.000  N
  N9       1.0000 0.76024  0.46232  0.64260  Biso   1.000  N
  N10      1.0000 0.73976  0.03768  0.64260  Biso   1.000  N
  N11      1.0000 0.03768  0.76024  0.64260  Biso   1.000  N
  N12      1.0000 0.46232  0.73976  0.64260  Biso   1.000  N
  N13      1.0000 0.23976  0.53768  0.35740  Biso   1.000  N
  N14      1.0000 0.26024  0.96232  0.35740  Biso   1.000  N
  N15      1.0000 0.96232  0.23976  0.35740  Biso   1.000  N
  N16      1.0000 0.53768  0.26024  0.35740  Biso   1.000  N
  Cu1      1.0000 0.75000  0.25000  0.50000  Biso   1.000  Cu
  Cu2      1.0000 0.25000  0.75000  0.50000  Biso   1.000  Cu
  F1       1.0000 0.75000  0.75000  0.92750  Biso   1.000  F
  F2       1.0000 0.25000  0.25000  0.07250  Biso   1.000  F
  F3       1.0000 0.75000  0.75000  0.33080  Biso   1.000  F
  F4       1.0000 0.25000  0.25000  0.66920  Biso   1.000  F
  F5       1.0000 0.75230  0.63428  0.13300  Biso   1.000  F
  F6       1.0000 0.74770  0.86572  0.13300  Biso   1.000  F
  F7       1.0000 0.86572  0.75230  0.13300  Biso   1.000  F
  F8       1.0000 0.63428  0.74770  0.13300  Biso   1.000  F
  F9       1.0000 0.24770  0.36572  0.86700  Biso   1.000  F
  F10      1.0000 0.25230  0.13428  0.86700  Biso   1.000  F
  F11      1.0000 0.13428  0.24770  0.86700  Biso   1.000  F
  F12      1.0000 0.36572  0.25230  0.86700  Biso   1.000  F
  P1       1.0000 0.75000  0.75000  0.12980  Biso   1.000  P
  P2       1.0000 0.25000  0.25000  0.87020  Biso   1.000  P
