data_image0
_cell_length_a       19.84
_cell_length_b       21.933
_cell_length_c       21.739
_cell_angle_alpha    90
_cell_angle_beta     90
_cell_angle_gamma    90

_symmetry_space_group_name_H-M    "P 1"
_symmetry_int_tables_number       1

loop_
  _symmetry_equiv_pos_as_xyz
  'x, y, z'

loop_
  _atom_site_label
  _atom_site_occupancy
  _atom_site_fract_x
  _atom_site_fract_y
  _atom_site_fract_z
  _atom_site_thermal_displace_type
  _atom_site_B_iso_or_equiv
  _atom_site_type_symbol
  W1       1.0000 0.09423  0.09064  0.27531  Biso   1.000  W
  W2       1.0000 0.59423  0.59064  0.27531  Biso   1.000  W
  W3       1.0000 0.90577  0.40936  0.27531  Biso   1.000  W
  W4       1.0000 0.09423  0.90936  0.72469  Biso   1.000  W
  W5       1.0000 0.40577  0.09064  0.72469  Biso   1.000  W
  W6       1.0000 0.40577  0.90936  0.27531  Biso   1.000  W
  W7       1.0000 0.59423  0.40936  0.72469  Biso   1.000  W
  W8       1.0000 0.90577  0.59064  0.72469  Biso   1.000  W
  W9       1.0000 0.90577  0.90936  0.72469  Biso   1.000  W
  W10      1.0000 0.40577  0.40936  0.72469  Biso   1.000  W
  W11      1.0000 0.09423  0.59064  0.72469  Biso   1.000  W
  W12      1.0000 0.90577  0.09064  0.27531  Biso   1.000  W
  W13      1.0000 0.59423  0.90936  0.27531  Biso   1.000  W
  W14      1.0000 0.59423  0.09064  0.72469  Biso   1.000  W
  W15      1.0000 0.40577  0.59064  0.27531  Biso   1.000  W
  W16      1.0000 0.09423  0.40936  0.27531  Biso   1.000  W
  W17      1.0000 0.09443  0.16613  0.40917  Biso   1.000  W
  W18      1.0000 0.59443  0.66613  0.40917  Biso   1.000  W
  W19      1.0000 0.90557  0.33387  0.40917  Biso   1.000  W
  W20      1.0000 0.09443  0.83387  0.59083  Biso   1.000  W
  W21      1.0000 0.40557  0.16613  0.59083  Biso   1.000  W
  W22      1.0000 0.40557  0.83387  0.40917  Biso   1.000  W
  W23      1.0000 0.59443  0.33387  0.59083  Biso   1.000  W
  W24      1.0000 0.90557  0.66613  0.59083  Biso   1.000  W
  W25      1.0000 0.90557  0.83387  0.59083  Biso   1.000  W
  W26      1.0000 0.40557  0.33387  0.59083  Biso   1.000  W
  W27      1.0000 0.09443  0.66613  0.59083  Biso   1.000  W
  W28      1.0000 0.90557  0.16613  0.40917  Biso   1.000  W
  W29      1.0000 0.59443  0.83387  0.40917  Biso   1.000  W
  W30      1.0000 0.59443  0.16613  0.59083  Biso   1.000  W
  W31      1.0000 0.40557  0.66613  0.40917  Biso   1.000  W
  W32      1.0000 0.09443  0.33387  0.40917  Biso   1.000  W
  W33      1.0000 0.24660  0.25000  0.36100  Biso   1.000  W
  W34      1.0000 0.74660  0.75000  0.36100  Biso   1.000  W
  W35      1.0000 0.75340  0.25000  0.36100  Biso   1.000  W
  W36      1.0000 0.24660  0.75000  0.63900  Biso   1.000  W
  W37      1.0000 0.25340  0.25000  0.63900  Biso   1.000  W
  W38      1.0000 0.25340  0.75000  0.36100  Biso   1.000  W
  W39      1.0000 0.74660  0.25000  0.63900  Biso   1.000  W
  W40      1.0000 0.75340  0.75000  0.63900  Biso   1.000  W
  W41      1.0000 0.09431  0.17377  0.12870  Biso   1.000  W
  W42      1.0000 0.59431  0.67377  0.12870  Biso   1.000  W
  W43      1.0000 0.90569  0.32623  0.12870  Biso   1.000  W
  W44      1.0000 0.09431  0.82623  0.87130  Biso   1.000  W
  W45      1.0000 0.40569  0.17377  0.87130  Biso   1.000  W
  W46      1.0000 0.40569  0.82623  0.12870  Biso   1.000  W
  W47      1.0000 0.59431  0.32623  0.87130  Biso   1.000  W
  W48      1.0000 0.90569  0.67377  0.87130  Biso   1.000  W
  W49      1.0000 0.90569  0.82623  0.87130  Biso   1.000  W
  W50      1.0000 0.40569  0.32623  0.87130  Biso   1.000  W
  W51      1.0000 0.09431  0.67377  0.87130  Biso   1.000  W
  W52      1.0000 0.90569  0.17377  0.12870  Biso   1.000  W
  W53      1.0000 0.59431  0.82623  0.12870  Biso   1.000  W
  W54      1.0000 0.59431  0.17377  0.87130  Biso   1.000  W
  W55      1.0000 0.40569  0.67377  0.12870  Biso   1.000  W
  W56      1.0000 0.09431  0.32623  0.12870  Biso   1.000  W
  W57      1.0000 0.24753  0.17348  0.22531  Biso   1.000  W
  W58      1.0000 0.74753  0.67348  0.22531  Biso   1.000  W
  W59      1.0000 0.75247  0.32652  0.22531  Biso   1.000  W
  W60      1.0000 0.24753  0.82652  0.77469  Biso   1.000  W
  W61      1.0000 0.25247  0.17348  0.77469  Biso   1.000  W
  W62      1.0000 0.25247  0.82652  0.22531  Biso   1.000  W
  W63      1.0000 0.74753  0.32652  0.77469  Biso   1.000  W
  W64      1.0000 0.75247  0.67348  0.77469  Biso   1.000  W
  W65      1.0000 0.75247  0.82652  0.77469  Biso   1.000  W
  W66      1.0000 0.25247  0.32652  0.77469  Biso   1.000  W
  W67      1.0000 0.24753  0.67348  0.77469  Biso   1.000  W
  W68      1.0000 0.75247  0.17348  0.22531  Biso   1.000  W
  W69      1.0000 0.74753  0.82652  0.22531  Biso   1.000  W
  W70      1.0000 0.74753  0.17348  0.77469  Biso   1.000  W
  W71      1.0000 0.25247  0.67348  0.22531  Biso   1.000  W
  W72      1.0000 0.24753  0.32652  0.22531  Biso   1.000  W
  Cu1      1.0000 0.25000  0.00000  0.25070  Biso   1.000  Cu
  Cu2      1.0000 0.75000  0.50000  0.25070  Biso   1.000  Cu
  Cu3      1.0000 0.25000  0.00000  0.74930  Biso   1.000  Cu
  Cu4      1.0000 0.75000  0.50000  0.74930  Biso   1.000  Cu
  Cu5      1.0000 0.75000  0.00000  0.74930  Biso   1.000  Cu
  Cu6      1.0000 0.25000  0.50000  0.74930  Biso   1.000  Cu
  Cu7      1.0000 0.75000  0.00000  0.25070  Biso   1.000  Cu
  Cu8      1.0000 0.25000  0.50000  0.25070  Biso   1.000  Cu
  P1       1.0000 0.09970  0.25000  0.27050  Biso   1.000  P
  P2       1.0000 0.59970  0.75000  0.27050  Biso   1.000  P
  P3       1.0000 0.90030  0.25000  0.27050  Biso   1.000  P
  P4       1.0000 0.09970  0.75000  0.72950  Biso   1.000  P
  P5       1.0000 0.40030  0.25000  0.72950  Biso   1.000  P
  P6       1.0000 0.40030  0.75000  0.27050  Biso   1.000  P
  P7       1.0000 0.59970  0.25000  0.72950  Biso   1.000  P
  P8       1.0000 0.90030  0.75000  0.72950  Biso   1.000  P
  O1       1.0000 0.07630  0.25000  0.20480  Biso   1.000  O
  O2       1.0000 0.57630  0.75000  0.20480  Biso   1.000  O
  O3       1.0000 0.92370  0.25000  0.20480  Biso   1.000  O
  O4       1.0000 0.07630  0.75000  0.79520  Biso   1.000  O
  O5       1.0000 0.42370  0.25000  0.79520  Biso   1.000  O
  O6       1.0000 0.42370  0.75000  0.20480  Biso   1.000  O
  O7       1.0000 0.57630  0.25000  0.79520  Biso   1.000  O
  O8       1.0000 0.92370  0.75000  0.79520  Biso   1.000  O
  O9       1.0000 0.00000  0.08630  0.28660  Biso   1.000  O
  O10      1.0000 0.50000  0.58630  0.28660  Biso   1.000  O
  O11      1.0000 0.00000  0.41370  0.28660  Biso   1.000  O
  O12      1.0000 0.00000  0.91370  0.71340  Biso   1.000  O
  O13      1.0000 0.50000  0.08630  0.71340  Biso   1.000  O
  O14      1.0000 0.50000  0.91370  0.28660  Biso   1.000  O
  O15      1.0000 0.50000  0.41370  0.71340  Biso   1.000  O
  O16      1.0000 0.00000  0.58630  0.71340  Biso   1.000  O
  O17      1.0000 0.07840  0.19460  0.30300  Biso   1.000  O
  O18      1.0000 0.57840  0.69460  0.30300  Biso   1.000  O
  O19      1.0000 0.92160  0.30540  0.30300  Biso   1.000  O
  O20      1.0000 0.07840  0.80540  0.69700  Biso   1.000  O
  O21      1.0000 0.42160  0.19460  0.69700  Biso   1.000  O
  O22      1.0000 0.42160  0.80540  0.30300  Biso   1.000  O
  O23      1.0000 0.57840  0.30540  0.69700  Biso   1.000  O
  O24      1.0000 0.92160  0.69460  0.69700  Biso   1.000  O
  O25      1.0000 0.92160  0.80540  0.69700  Biso   1.000  O
  O26      1.0000 0.42160  0.30540  0.69700  Biso   1.000  O
  O27      1.0000 0.07840  0.69460  0.69700  Biso   1.000  O
  O28      1.0000 0.92160  0.19460  0.30300  Biso   1.000  O
  O29      1.0000 0.57840  0.80540  0.30300  Biso   1.000  O
  O30      1.0000 0.57840  0.19460  0.69700  Biso   1.000  O
  O31      1.0000 0.42160  0.69460  0.30300  Biso   1.000  O
  O32      1.0000 0.07840  0.30540  0.30300  Biso   1.000  O
  O33      1.0000 0.00000  0.18580  0.11760  Biso   1.000  O
  O34      1.0000 0.50000  0.68580  0.11760  Biso   1.000  O
  O35      1.0000 0.00000  0.31420  0.11760  Biso   1.000  O
  O36      1.0000 0.00000  0.81420  0.88240  Biso   1.000  O
  O37      1.0000 0.50000  0.18580  0.88240  Biso   1.000  O
  O38      1.0000 0.50000  0.81420  0.11760  Biso   1.000  O
  O39      1.0000 0.50000  0.31420  0.88240  Biso   1.000  O
  O40      1.0000 0.00000  0.68580  0.88240  Biso   1.000  O
  O41      1.0000 0.30520  0.25000  0.41600  Biso   1.000  O
  O42      1.0000 0.80520  0.75000  0.41600  Biso   1.000  O
  O43      1.0000 0.69480  0.25000  0.41600  Biso   1.000  O
  O44      1.0000 0.30520  0.75000  0.58400  Biso   1.000  O
  O45      1.0000 0.19480  0.25000  0.58400  Biso   1.000  O
  O46      1.0000 0.19480  0.75000  0.41600  Biso   1.000  O
  O47      1.0000 0.80520  0.25000  0.58400  Biso   1.000  O
  O48      1.0000 0.69480  0.75000  0.58400  Biso   1.000  O
  O49      1.0000 0.30890  0.12600  0.19830  Biso   1.000  O
  O50      1.0000 0.80890  0.62600  0.19830  Biso   1.000  O
  O51      1.0000 0.69110  0.37400  0.19830  Biso   1.000  O
  O52      1.0000 0.30890  0.87400  0.80170  Biso   1.000  O
  O53      1.0000 0.19110  0.12600  0.80170  Biso   1.000  O
  O54      1.0000 0.19110  0.87400  0.19830  Biso   1.000  O
  O55      1.0000 0.80890  0.37400  0.80170  Biso   1.000  O
  O56      1.0000 0.69110  0.62600  0.80170  Biso   1.000  O
  O57      1.0000 0.69110  0.87400  0.80170  Biso   1.000  O
  O58      1.0000 0.19110  0.37400  0.80170  Biso   1.000  O
  O59      1.0000 0.30890  0.62600  0.80170  Biso   1.000  O
  O60      1.0000 0.69110  0.12600  0.19830  Biso   1.000  O
  O61      1.0000 0.80890  0.87400  0.19830  Biso   1.000  O
  O62      1.0000 0.80890  0.12600  0.80170  Biso   1.000  O
  O63      1.0000 0.19110  0.62600  0.19830  Biso   1.000  O
  O64      1.0000 0.30890  0.37400  0.19830  Biso   1.000  O
  O65      1.0000 0.07690  0.12050  0.19570  Biso   1.000  O
  O66      1.0000 0.57690  0.62050  0.19570  Biso   1.000  O
  O67      1.0000 0.92310  0.37950  0.19570  Biso   1.000  O
  O68      1.0000 0.07690  0.87950  0.80430  Biso   1.000  O
  O69      1.0000 0.42310  0.12050  0.80430  Biso   1.000  O
  O70      1.0000 0.42310  0.87950  0.19570  Biso   1.000  O
  O71      1.0000 0.57690  0.37950  0.80430  Biso   1.000  O
  O72      1.0000 0.92310  0.62050  0.80430  Biso   1.000  O
  O73      1.0000 0.92310  0.87950  0.80430  Biso   1.000  O
  O74      1.0000 0.42310  0.37950  0.80430  Biso   1.000  O
  O75      1.0000 0.07690  0.62050  0.80430  Biso   1.000  O
  O76      1.0000 0.92310  0.12050  0.19570  Biso   1.000  O
  O77      1.0000 0.57690  0.87950  0.19570  Biso   1.000  O
  O78      1.0000 0.57690  0.12050  0.80430  Biso   1.000  O
  O79      1.0000 0.42310  0.62050  0.19570  Biso   1.000  O
  O80      1.0000 0.07690  0.37950  0.19570  Biso   1.000  O
  O81      1.0000 0.18180  0.19160  0.38810  Biso   1.000  O
  O82      1.0000 0.68180  0.69160  0.38810  Biso   1.000  O
  O83      1.0000 0.81820  0.30840  0.38810  Biso   1.000  O
  O84      1.0000 0.18180  0.80840  0.61190  Biso   1.000  O
  O85      1.0000 0.31820  0.19160  0.61190  Biso   1.000  O
  O86      1.0000 0.31820  0.80840  0.38810  Biso   1.000  O
  O87      1.0000 0.68180  0.30840  0.61190  Biso   1.000  O
  O88      1.0000 0.81820  0.69160  0.61190  Biso   1.000  O
  O89      1.0000 0.81820  0.80840  0.61190  Biso   1.000  O
  O90      1.0000 0.31820  0.30840  0.61190  Biso   1.000  O
  O91      1.0000 0.18180  0.69160  0.61190  Biso   1.000  O
  O92      1.0000 0.81820  0.19160  0.38810  Biso   1.000  O
  O93      1.0000 0.68180  0.80840  0.38810  Biso   1.000  O
  O94      1.0000 0.68180  0.19160  0.61190  Biso   1.000  O
  O95      1.0000 0.31820  0.69160  0.38810  Biso   1.000  O
  O96      1.0000 0.18180  0.30840  0.38810  Biso   1.000  O
  O97      1.0000 0.11010  0.13830  0.48050  Biso   1.000  O
  O98      1.0000 0.61010  0.63830  0.48050  Biso   1.000  O
  O99      1.0000 0.88990  0.36170  0.48050  Biso   1.000  O
  O100     1.0000 0.11010  0.86170  0.51950  Biso   1.000  O
  O101     1.0000 0.38990  0.13830  0.51950  Biso   1.000  O
  O102     1.0000 0.38990  0.86170  0.48050  Biso   1.000  O
  O103     1.0000 0.61010  0.36170  0.51950  Biso   1.000  O
  O104     1.0000 0.88990  0.63830  0.51950  Biso   1.000  O
  O105     1.0000 0.88990  0.86170  0.51950  Biso   1.000  O
  O106     1.0000 0.38990  0.36170  0.51950  Biso   1.000  O
  O107     1.0000 0.11010  0.63830  0.51950  Biso   1.000  O
  O108     1.0000 0.88990  0.13830  0.48050  Biso   1.000  O
  O109     1.0000 0.61010  0.86170  0.48050  Biso   1.000  O
  O110     1.0000 0.61010  0.13830  0.51950  Biso   1.000  O
  O111     1.0000 0.38990  0.63830  0.48050  Biso   1.000  O
  O112     1.0000 0.11010  0.36170  0.48050  Biso   1.000  O
  N1       1.0000 0.25000  0.00000  0.33580  Biso   1.000  N
  N2       1.0000 0.75000  0.50000  0.33580  Biso   1.000  N
  N3       1.0000 0.25000  0.00000  0.66420  Biso   1.000  N
  N4       1.0000 0.75000  0.50000  0.66420  Biso   1.000  N
  N5       1.0000 0.75000  0.00000  0.66420  Biso   1.000  N
  N6       1.0000 0.25000  0.50000  0.66420  Biso   1.000  N
  N7       1.0000 0.75000  0.00000  0.33580  Biso   1.000  N
  N8       1.0000 0.25000  0.50000  0.33580  Biso   1.000  N
  O113     1.0000 0.00000  0.15470  0.40770  Biso   1.000  O
  O114     1.0000 0.50000  0.65470  0.40770  Biso   1.000  O
  O115     1.0000 0.00000  0.34530  0.40770  Biso   1.000  O
  O116     1.0000 0.00000  0.84530  0.59230  Biso   1.000  O
  O117     1.0000 0.50000  0.15470  0.59230  Biso   1.000  O
  O118     1.0000 0.50000  0.84530  0.40770  Biso   1.000  O
  O119     1.0000 0.50000  0.34530  0.59230  Biso   1.000  O
  O120     1.0000 0.00000  0.65470  0.59230  Biso   1.000  O
  O121     1.0000 0.28360  0.25000  0.19580  Biso   1.000  O
  O122     1.0000 0.78360  0.75000  0.19580  Biso   1.000  O
  O123     1.0000 0.71640  0.25000  0.19580  Biso   1.000  O
  O124     1.0000 0.28360  0.75000  0.80420  Biso   1.000  O
  O125     1.0000 0.21640  0.25000  0.80420  Biso   1.000  O
  O126     1.0000 0.21640  0.75000  0.19580  Biso   1.000  O
  O127     1.0000 0.78360  0.25000  0.80420  Biso   1.000  O
  O128     1.0000 0.71640  0.75000  0.80420  Biso   1.000  O
  O129     1.0000 0.18450  0.17800  0.16040  Biso   1.000  O
  O130     1.0000 0.68450  0.67800  0.16040  Biso   1.000  O
  O131     1.0000 0.81550  0.32200  0.16040  Biso   1.000  O
  O132     1.0000 0.18450  0.82200  0.83960  Biso   1.000  O
  O133     1.0000 0.31550  0.17800  0.83960  Biso   1.000  O
  O134     1.0000 0.31550  0.82200  0.16040  Biso   1.000  O
  O135     1.0000 0.68450  0.32200  0.83960  Biso   1.000  O
  O136     1.0000 0.81550  0.67800  0.83960  Biso   1.000  O
  O137     1.0000 0.81550  0.82200  0.83960  Biso   1.000  O
  O138     1.0000 0.31550  0.32200  0.83960  Biso   1.000  O
  O139     1.0000 0.18450  0.67800  0.83960  Biso   1.000  O
  O140     1.0000 0.81550  0.17800  0.16040  Biso   1.000  O
  O141     1.0000 0.68450  0.82200  0.16040  Biso   1.000  O
  O142     1.0000 0.68450  0.17800  0.83960  Biso   1.000  O
  O143     1.0000 0.31550  0.67800  0.16040  Biso   1.000  O
  O144     1.0000 0.18450  0.32200  0.16040  Biso   1.000  O
  O145     1.0000 0.07750  0.25000  0.42540  Biso   1.000  O
  O146     1.0000 0.57750  0.75000  0.42540  Biso   1.000  O
  O147     1.0000 0.92250  0.25000  0.42540  Biso   1.000  O
  O148     1.0000 0.07750  0.75000  0.57460  Biso   1.000  O
  O149     1.0000 0.42250  0.25000  0.57460  Biso   1.000  O
  O150     1.0000 0.42250  0.75000  0.42540  Biso   1.000  O
  O151     1.0000 0.57750  0.25000  0.57460  Biso   1.000  O
  O152     1.0000 0.92250  0.75000  0.57460  Biso   1.000  O
  O153     1.0000 0.10910  0.25000  0.08780  Biso   1.000  O
  O154     1.0000 0.60910  0.75000  0.08780  Biso   1.000  O
  O155     1.0000 0.89090  0.25000  0.08780  Biso   1.000  O
  O156     1.0000 0.10910  0.75000  0.91220  Biso   1.000  O
  O157     1.0000 0.39090  0.25000  0.91220  Biso   1.000  O
  O158     1.0000 0.39090  0.75000  0.08780  Biso   1.000  O
  O159     1.0000 0.60910  0.25000  0.91220  Biso   1.000  O
  O160     1.0000 0.89090  0.75000  0.91220  Biso   1.000  O
  O161     1.0000 0.10870  0.12560  0.06620  Biso   1.000  O
  O162     1.0000 0.60870  0.62560  0.06620  Biso   1.000  O
  O163     1.0000 0.89130  0.37440  0.06620  Biso   1.000  O
  O164     1.0000 0.10870  0.87440  0.93380  Biso   1.000  O
  O165     1.0000 0.39130  0.12560  0.93380  Biso   1.000  O
  O166     1.0000 0.39130  0.87440  0.06620  Biso   1.000  O
  O167     1.0000 0.60870  0.37440  0.93380  Biso   1.000  O
  O168     1.0000 0.89130  0.62560  0.93380  Biso   1.000  O
  O169     1.0000 0.89130  0.87440  0.93380  Biso   1.000  O
  O170     1.0000 0.39130  0.37440  0.93380  Biso   1.000  O
  O171     1.0000 0.10870  0.62560  0.93380  Biso   1.000  O
  O172     1.0000 0.89130  0.12560  0.06620  Biso   1.000  O
  O173     1.0000 0.60870  0.87440  0.06620  Biso   1.000  O
  O174     1.0000 0.60870  0.12560  0.93380  Biso   1.000  O
  O175     1.0000 0.39130  0.62560  0.06620  Biso   1.000  O
  O176     1.0000 0.10870  0.37440  0.06620  Biso   1.000  O
  O177     1.0000 0.10680  0.09360  0.36190  Biso   1.000  O
  O178     1.0000 0.60680  0.59360  0.36190  Biso   1.000  O
  O179     1.0000 0.89320  0.40640  0.36190  Biso   1.000  O
  O180     1.0000 0.10680  0.90640  0.63810  Biso   1.000  O
  O181     1.0000 0.39320  0.09360  0.63810  Biso   1.000  O
  O182     1.0000 0.39320  0.90640  0.36190  Biso   1.000  O
  O183     1.0000 0.60680  0.40640  0.63810  Biso   1.000  O
  O184     1.0000 0.89320  0.59360  0.63810  Biso   1.000  O
  O185     1.0000 0.89320  0.90640  0.63810  Biso   1.000  O
  O186     1.0000 0.39320  0.40640  0.63810  Biso   1.000  O
  O187     1.0000 0.10680  0.59360  0.63810  Biso   1.000  O
  O188     1.0000 0.89320  0.09360  0.36190  Biso   1.000  O
  O189     1.0000 0.60680  0.90640  0.36190  Biso   1.000  O
  O190     1.0000 0.60680  0.09360  0.63810  Biso   1.000  O
  O191     1.0000 0.39320  0.59360  0.36190  Biso   1.000  O
  O192     1.0000 0.10680  0.40640  0.36190  Biso   1.000  O
  O193     1.0000 0.18360  0.12070  0.26080  Biso   1.000  O
  O194     1.0000 0.68360  0.62070  0.26080  Biso   1.000  O
  O195     1.0000 0.81640  0.37930  0.26080  Biso   1.000  O
  O196     1.0000 0.18360  0.87930  0.73920  Biso   1.000  O
  O197     1.0000 0.31640  0.12070  0.73920  Biso   1.000  O
  O198     1.0000 0.31640  0.87930  0.26080  Biso   1.000  O
  O199     1.0000 0.68360  0.37930  0.73920  Biso   1.000  O
  O200     1.0000 0.81640  0.62070  0.73920  Biso   1.000  O
  O201     1.0000 0.81640  0.87930  0.73920  Biso   1.000  O
  O202     1.0000 0.31640  0.37930  0.73920  Biso   1.000  O
  O203     1.0000 0.18360  0.62070  0.73920  Biso   1.000  O
  O204     1.0000 0.81640  0.12070  0.26080  Biso   1.000  O
  O205     1.0000 0.68360  0.87930  0.26080  Biso   1.000  O
  O206     1.0000 0.68360  0.12070  0.73920  Biso   1.000  O
  O207     1.0000 0.31640  0.62070  0.26080  Biso   1.000  O
  O208     1.0000 0.18360  0.37930  0.26080  Biso   1.000  O
  O209     1.0000 0.17690  0.25000  0.27250  Biso   1.000  O
  O210     1.0000 0.67690  0.75000  0.27250  Biso   1.000  O
  O211     1.0000 0.82310  0.25000  0.27250  Biso   1.000  O
  O212     1.0000 0.17690  0.75000  0.72750  Biso   1.000  O
  O213     1.0000 0.32310  0.25000  0.72750  Biso   1.000  O
  O214     1.0000 0.32310  0.75000  0.27250  Biso   1.000  O
  O215     1.0000 0.67690  0.25000  0.72750  Biso   1.000  O
  O216     1.0000 0.82310  0.75000  0.72750  Biso   1.000  O
  N9       1.0000 0.25000  0.00000  0.16510  Biso   1.000  N
  N10      1.0000 0.75000  0.50000  0.16510  Biso   1.000  N
  N11      1.0000 0.25000  0.00000  0.83490  Biso   1.000  N
  N12      1.0000 0.75000  0.50000  0.83490  Biso   1.000  N
  N13      1.0000 0.75000  0.00000  0.83490  Biso   1.000  N
  N14      1.0000 0.25000  0.50000  0.83490  Biso   1.000  N
  N15      1.0000 0.75000  0.00000  0.16510  Biso   1.000  N
  N16      1.0000 0.25000  0.50000  0.16510  Biso   1.000  N
  O217     1.0000 0.11020  0.01520  0.25990  Biso   1.000  O
  O218     1.0000 0.61020  0.51520  0.25990  Biso   1.000  O
  O219     1.0000 0.88980  0.48480  0.25990  Biso   1.000  O
  O220     1.0000 0.11020  0.98480  0.74010  Biso   1.000  O
  O221     1.0000 0.38980  0.01520  0.74010  Biso   1.000  O
  O222     1.0000 0.38980  0.98480  0.25990  Biso   1.000  O
  O223     1.0000 0.61020  0.48480  0.74010  Biso   1.000  O
  O224     1.0000 0.88980  0.51520  0.74010  Biso   1.000  O
  O225     1.0000 0.88980  0.98480  0.74010  Biso   1.000  O
  O226     1.0000 0.38980  0.48480  0.74010  Biso   1.000  O
  O227     1.0000 0.11020  0.51520  0.74010  Biso   1.000  O
  O228     1.0000 0.88980  0.01520  0.25990  Biso   1.000  O
  O229     1.0000 0.61020  0.98480  0.25990  Biso   1.000  O
  O230     1.0000 0.61020  0.01520  0.74010  Biso   1.000  O
  O231     1.0000 0.38980  0.51520  0.25990  Biso   1.000  O
  O232     1.0000 0.11020  0.48480  0.25990  Biso   1.000  O
  O233     1.0000 0.28370  0.18880  0.30610  Biso   1.000  O
  O234     1.0000 0.78370  0.68880  0.30610  Biso   1.000  O
  O235     1.0000 0.71630  0.31120  0.30610  Biso   1.000  O
  O236     1.0000 0.28370  0.81120  0.69390  Biso   1.000  O
  O237     1.0000 0.21630  0.18880  0.69390  Biso   1.000  O
  O238     1.0000 0.21630  0.81120  0.30610  Biso   1.000  O
  O239     1.0000 0.78370  0.31120  0.69390  Biso   1.000  O
  O240     1.0000 0.71630  0.68880  0.69390  Biso   1.000  O
  O241     1.0000 0.71630  0.81120  0.69390  Biso   1.000  O
  O242     1.0000 0.21630  0.31120  0.69390  Biso   1.000  O
  O243     1.0000 0.28370  0.68880  0.69390  Biso   1.000  O
  O244     1.0000 0.71630  0.18880  0.30610  Biso   1.000  O
  O245     1.0000 0.78370  0.81120  0.30610  Biso   1.000  O
  O246     1.0000 0.78370  0.18880  0.69390  Biso   1.000  O
  O247     1.0000 0.21630  0.68880  0.30610  Biso   1.000  O
  O248     1.0000 0.28370  0.31120  0.30610  Biso   1.000  O
  C1       1.0000 0.30310  0.00100  0.13190  Biso   1.000  C
  C2       1.0000 0.80310  0.50100  0.13190  Biso   1.000  C
  C3       1.0000 0.69690  0.49900  0.13190  Biso   1.000  C
  C4       1.0000 0.30310  0.99900  0.86810  Biso   1.000  C
  C5       1.0000 0.19690  0.00100  0.86810  Biso   1.000  C
  C6       1.0000 0.19690  0.99900  0.13190  Biso   1.000  C
  C7       1.0000 0.80310  0.49900  0.86810  Biso   1.000  C
  C8       1.0000 0.69690  0.50100  0.86810  Biso   1.000  C
  C9       1.0000 0.69690  0.99900  0.86810  Biso   1.000  C
  C10      1.0000 0.19690  0.49900  0.86810  Biso   1.000  C
  C11      1.0000 0.30310  0.50100  0.86810  Biso   1.000  C
  C12      1.0000 0.69690  0.00100  0.13190  Biso   1.000  C
  C13      1.0000 0.80310  0.99900  0.13190  Biso   1.000  C
  C14      1.0000 0.80310  0.00100  0.86810  Biso   1.000  C
  C15      1.0000 0.19690  0.50100  0.13190  Biso   1.000  C
  C16      1.0000 0.30310  0.49900  0.13190  Biso   1.000  C
  H1       1.0000 0.34410  0.00430  0.15220  Biso   1.000  H
  H2       1.0000 0.84410  0.50430  0.15220  Biso   1.000  H
  H3       1.0000 0.65590  0.49570  0.15220  Biso   1.000  H
  H4       1.0000 0.34410  0.99570  0.84780  Biso   1.000  H
  H5       1.0000 0.15590  0.00430  0.84780  Biso   1.000  H
  H6       1.0000 0.15590  0.99570  0.15220  Biso   1.000  H
  H7       1.0000 0.84410  0.49570  0.84780  Biso   1.000  H
  H8       1.0000 0.65590  0.50430  0.84780  Biso   1.000  H
  H9       1.0000 0.65590  0.99570  0.84780  Biso   1.000  H
  H10      1.0000 0.15590  0.49570  0.84780  Biso   1.000  H
  H11      1.0000 0.34410  0.50430  0.84780  Biso   1.000  H
  H12      1.0000 0.65590  0.00430  0.15220  Biso   1.000  H
  H13      1.0000 0.84410  0.99570  0.15220  Biso   1.000  H
  H14      1.0000 0.84410  0.00430  0.84780  Biso   1.000  H
  H15      1.0000 0.15590  0.50430  0.15220  Biso   1.000  H
  H16      1.0000 0.34410  0.49570  0.15220  Biso   1.000  H
  C17      1.0000 0.25000  0.00000  0.03600  Biso   1.000  C
  C18      1.0000 0.75000  0.50000  0.03600  Biso   1.000  C
  C19      1.0000 0.25000  0.00000  0.96400  Biso   1.000  C
  C20      1.0000 0.75000  0.50000  0.96400  Biso   1.000  C
  C21      1.0000 0.75000  0.00000  0.96400  Biso   1.000  C
  C22      1.0000 0.25000  0.50000  0.96400  Biso   1.000  C
  C23      1.0000 0.75000  0.00000  0.03600  Biso   1.000  C
  C24      1.0000 0.25000  0.50000  0.03600  Biso   1.000  C
  C25      1.0000 0.26300  0.05320  0.43110  Biso   1.000  C
  C26      1.0000 0.76300  0.55320  0.43110  Biso   1.000  C
  C27      1.0000 0.73700  0.44680  0.43110  Biso   1.000  C
  C28      1.0000 0.26300  0.94680  0.56890  Biso   1.000  C
  C29      1.0000 0.23700  0.05320  0.56890  Biso   1.000  C
  C30      1.0000 0.23700  0.94680  0.43110  Biso   1.000  C
  C31      1.0000 0.76300  0.44680  0.56890  Biso   1.000  C
  C32      1.0000 0.73700  0.55320  0.56890  Biso   1.000  C
  C33      1.0000 0.73700  0.94680  0.56890  Biso   1.000  C
  C34      1.0000 0.23700  0.44680  0.56890  Biso   1.000  C
  C35      1.0000 0.26300  0.55320  0.56890  Biso   1.000  C
  C36      1.0000 0.73700  0.05320  0.43110  Biso   1.000  C
  C37      1.0000 0.76300  0.94680  0.43110  Biso   1.000  C
  C38      1.0000 0.76300  0.05320  0.56890  Biso   1.000  C
  C39      1.0000 0.23700  0.55320  0.43110  Biso   1.000  C
  C40      1.0000 0.26300  0.44680  0.43110  Biso   1.000  C
  H17      1.0000 0.27210  0.08990  0.45080  Biso   1.000  H
  H18      1.0000 0.77210  0.58990  0.45080  Biso   1.000  H
  H19      1.0000 0.72790  0.41010  0.45080  Biso   1.000  H
  H20      1.0000 0.27210  0.91010  0.54920  Biso   1.000  H
  H21      1.0000 0.22790  0.08990  0.54920  Biso   1.000  H
  H22      1.0000 0.22790  0.91010  0.45080  Biso   1.000  H
  H23      1.0000 0.77210  0.41010  0.54920  Biso   1.000  H
  H24      1.0000 0.72790  0.58990  0.54920  Biso   1.000  H
  H25      1.0000 0.72790  0.91010  0.54920  Biso   1.000  H
  H26      1.0000 0.22790  0.41010  0.54920  Biso   1.000  H
  H27      1.0000 0.27210  0.58990  0.54920  Biso   1.000  H
  H28      1.0000 0.72790  0.08990  0.45080  Biso   1.000  H
  H29      1.0000 0.77210  0.91010  0.45080  Biso   1.000  H
  H30      1.0000 0.77210  0.08990  0.54920  Biso   1.000  H
  H31      1.0000 0.22790  0.58990  0.45080  Biso   1.000  H
  H32      1.0000 0.27210  0.41010  0.45080  Biso   1.000  H
  C41      1.0000 0.25000  0.00000  0.46600  Biso   1.000  C
  C42      1.0000 0.75000  0.50000  0.46600  Biso   1.000  C
  C43      1.0000 0.25000  0.00000  0.53400  Biso   1.000  C
  C44      1.0000 0.75000  0.50000  0.53400  Biso   1.000  C
  C45      1.0000 0.75000  0.00000  0.53400  Biso   1.000  C
  C46      1.0000 0.25000  0.50000  0.53400  Biso   1.000  C
  C47      1.0000 0.75000  0.00000  0.46600  Biso   1.000  C
  C48      1.0000 0.25000  0.50000  0.46600  Biso   1.000  C
  C49      1.0000 0.30510  0.99700  0.06720  Biso   1.000  C
  C50      1.0000 0.80510  0.49700  0.06720  Biso   1.000  C
  C51      1.0000 0.69490  0.50300  0.06720  Biso   1.000  C
  C52      1.0000 0.30510  0.00300  0.93280  Biso   1.000  C
  C53      1.0000 0.19490  0.99700  0.93280  Biso   1.000  C
  C54      1.0000 0.19490  0.00300  0.06720  Biso   1.000  C
  C55      1.0000 0.80510  0.50300  0.93280  Biso   1.000  C
  C56      1.0000 0.69490  0.49700  0.93280  Biso   1.000  C
  C57      1.0000 0.69490  0.00300  0.93280  Biso   1.000  C
  C58      1.0000 0.19490  0.50300  0.93280  Biso   1.000  C
  C59      1.0000 0.30510  0.49700  0.93280  Biso   1.000  C
  C60      1.0000 0.69490  0.99700  0.06720  Biso   1.000  C
  C61      1.0000 0.80510  0.00300  0.06720  Biso   1.000  C
  C62      1.0000 0.80510  0.99700  0.93280  Biso   1.000  C
  C63      1.0000 0.19490  0.49700  0.06720  Biso   1.000  C
  C64      1.0000 0.30510  0.50300  0.06720  Biso   1.000  C
  H33      1.0000 0.34620  0.99310  0.04710  Biso   1.000  H
  H34      1.0000 0.84620  0.49310  0.04710  Biso   1.000  H
  H35      1.0000 0.65380  0.50690  0.04710  Biso   1.000  H
  H36      1.0000 0.34620  0.00690  0.95290  Biso   1.000  H
  H37      1.0000 0.15380  0.99310  0.95290  Biso   1.000  H
  H38      1.0000 0.15380  0.00690  0.04710  Biso   1.000  H
  H39      1.0000 0.84620  0.50690  0.95290  Biso   1.000  H
  H40      1.0000 0.65380  0.49310  0.95290  Biso   1.000  H
  H41      1.0000 0.65380  0.00690  0.95290  Biso   1.000  H
  H42      1.0000 0.15380  0.50690  0.95290  Biso   1.000  H
  H43      1.0000 0.34620  0.49310  0.95290  Biso   1.000  H
  H44      1.0000 0.65380  0.99310  0.04710  Biso   1.000  H
  H45      1.0000 0.84620  0.00690  0.04710  Biso   1.000  H
  H46      1.0000 0.84620  0.99310  0.95290  Biso   1.000  H
  H47      1.0000 0.15380  0.49310  0.04710  Biso   1.000  H
  H48      1.0000 0.34620  0.50690  0.04710  Biso   1.000  H
  C65      1.0000 0.26200  0.05040  0.37180  Biso   1.000  C
  C66      1.0000 0.76200  0.55040  0.37180  Biso   1.000  C
  C67      1.0000 0.73800  0.44960  0.37180  Biso   1.000  C
  C68      1.0000 0.26200  0.94960  0.62820  Biso   1.000  C
  C69      1.0000 0.23800  0.05040  0.62820  Biso   1.000  C
  C70      1.0000 0.23800  0.94960  0.37180  Biso   1.000  C
  C71      1.0000 0.76200  0.44960  0.62820  Biso   1.000  C
  C72      1.0000 0.73800  0.55040  0.62820  Biso   1.000  C
  C73      1.0000 0.73800  0.94960  0.62820  Biso   1.000  C
  C74      1.0000 0.23800  0.44960  0.62820  Biso   1.000  C
  C75      1.0000 0.26200  0.55040  0.62820  Biso   1.000  C
  C76      1.0000 0.73800  0.05040  0.37180  Biso   1.000  C
  C77      1.0000 0.76200  0.94960  0.37180  Biso   1.000  C
  C78      1.0000 0.76200  0.05040  0.62820  Biso   1.000  C
  C79      1.0000 0.23800  0.55040  0.37180  Biso   1.000  C
  C80      1.0000 0.26200  0.44960  0.37180  Biso   1.000  C
  H49      1.0000 0.27150  0.08650  0.35100  Biso   1.000  H
  H50      1.0000 0.77150  0.58650  0.35100  Biso   1.000  H
  H51      1.0000 0.72850  0.41350  0.35100  Biso   1.000  H
  H52      1.0000 0.27150  0.91350  0.64900  Biso   1.000  H
  H53      1.0000 0.22850  0.08650  0.64900  Biso   1.000  H
  H54      1.0000 0.22850  0.91350  0.35100  Biso   1.000  H
  H55      1.0000 0.77150  0.41350  0.64900  Biso   1.000  H
  H56      1.0000 0.72850  0.58650  0.64900  Biso   1.000  H
  H57      1.0000 0.72850  0.91350  0.64900  Biso   1.000  H
  H58      1.0000 0.22850  0.41350  0.64900  Biso   1.000  H
  H59      1.0000 0.27150  0.58650  0.64900  Biso   1.000  H
  H60      1.0000 0.72850  0.08650  0.35100  Biso   1.000  H
  H61      1.0000 0.77150  0.91350  0.35100  Biso   1.000  H
  H62      1.0000 0.77150  0.08650  0.64900  Biso   1.000  H
  H63      1.0000 0.22850  0.58650  0.35100  Biso   1.000  H
  H64      1.0000 0.27150  0.41350  0.35100  Biso   1.000  H
  O249     1.0000 0.00000  0.87500  0.33830  Biso   1.000  O
  O250     1.0000 0.50000  0.37500  0.33830  Biso   1.000  O
  O251     1.0000 0.00000  0.62500  0.33830  Biso   1.000  O
  O252     1.0000 0.00000  0.12500  0.66170  Biso   1.000  O
  O253     1.0000 0.50000  0.87500  0.66170  Biso   1.000  O
  O254     1.0000 0.50000  0.12500  0.33830  Biso   1.000  O
  O255     1.0000 0.50000  0.62500  0.66170  Biso   1.000  O
  O256     1.0000 0.00000  0.37500  0.66170  Biso   1.000  O
