data_image0
_cell_length_a       14.564
_cell_length_b       17.469
_cell_length_c       15.039
_cell_angle_alpha    90
_cell_angle_beta     91.97
_cell_angle_gamma    90

_symmetry_space_group_name_H-M    "P 1"
_symmetry_int_tables_number       1

loop_
  _symmetry_equiv_pos_as_xyz
  'x, y, z'

loop_
  _atom_site_label
  _atom_site_occupancy
  _atom_site_fract_x
  _atom_site_fract_y
  _atom_site_fract_z
  _atom_site_thermal_displace_type
  _atom_site_B_iso_or_equiv
  _atom_site_type_symbol
  Cu1      1.0000 0.85246  0.92048  0.14447  Biso   1.000  Cu
  Cu2      1.0000 0.35246  0.42048  0.14447  Biso   1.000  Cu
  Cu3      1.0000 0.14754  0.92048  0.85553  Biso   1.000  Cu
  Cu4      1.0000 0.64754  0.42048  0.85553  Biso   1.000  Cu
  Cu5      1.0000 0.14754  0.07952  0.85553  Biso   1.000  Cu
  Cu6      1.0000 0.64754  0.57952  0.85553  Biso   1.000  Cu
  Cu7      1.0000 0.85246  0.07952  0.14447  Biso   1.000  Cu
  Cu8      1.0000 0.35246  0.57952  0.14447  Biso   1.000  Cu
  Cu9      1.0000 0.72702  0.00000  0.05463  Biso   1.000  Cu
  Cu10     1.0000 0.22702  0.50000  0.05463  Biso   1.000  Cu
  Cu11     1.0000 0.27298  0.00000  0.94537  Biso   1.000  Cu
  Cu12     1.0000 0.77298  0.50000  0.94537  Biso   1.000  Cu
  Cu13     1.0000 0.89680  0.00000  0.99983  Biso   1.000  Cu
  Cu14     1.0000 0.39680  0.50000  0.99983  Biso   1.000  Cu
  Cu15     1.0000 0.10320  0.00000  0.00017  Biso   1.000  Cu
  Cu16     1.0000 0.60320  0.50000  0.00017  Biso   1.000  Cu
  Cu17     1.0000 0.96271  0.62093  0.41510  Biso   1.000  Cu
  Cu18     1.0000 0.46271  0.12093  0.41510  Biso   1.000  Cu
  Cu19     1.0000 0.03729  0.62093  0.58490  Biso   1.000  Cu
  Cu20     1.0000 0.53729  0.12093  0.58490  Biso   1.000  Cu
  Cu21     1.0000 0.03729  0.37907  0.58490  Biso   1.000  Cu
  Cu22     1.0000 0.53729  0.87907  0.58490  Biso   1.000  Cu
  Cu23     1.0000 0.96271  0.37907  0.41510  Biso   1.000  Cu
  Cu24     1.0000 0.46271  0.87907  0.41510  Biso   1.000  Cu
  Cu25     1.0000 0.07870  0.50000  0.40740  Biso   1.000  Cu
  Cu26     1.0000 0.57870  0.00000  0.40740  Biso   1.000  Cu
  Cu27     1.0000 0.92130  0.50000  0.59260  Biso   1.000  Cu
  Cu28     1.0000 0.42130  0.00000  0.59260  Biso   1.000  Cu
  Cu29     1.0000 0.06360  0.50000  0.44690  Biso   1.000  Cu
  Cu30     1.0000 0.56360  0.00000  0.44690  Biso   1.000  Cu
  Cu31     1.0000 0.93640  0.50000  0.55310  Biso   1.000  Cu
  Cu32     1.0000 0.43640  0.00000  0.55310  Biso   1.000  Cu
  I1       1.0000 0.73098  0.00000  0.23576  Biso   1.000  I
  I2       1.0000 0.23098  0.50000  0.23576  Biso   1.000  I
  I3       1.0000 0.26902  0.00000  0.76424  Biso   1.000  I
  I4       1.0000 0.76902  0.50000  0.76424  Biso   1.000  I
  I5       1.0000 0.79847  0.86854  0.98642  Biso   1.000  I
  I6       1.0000 0.29847  0.36854  0.98642  Biso   1.000  I
  I7       1.0000 0.20153  0.86854  0.01358  Biso   1.000  I
  I8       1.0000 0.70153  0.36854  0.01358  Biso   1.000  I
  I9       1.0000 0.20153  0.13146  0.01358  Biso   1.000  I
  I10      1.0000 0.70153  0.63146  0.01358  Biso   1.000  I
  I11      1.0000 0.79847  0.13146  0.98642  Biso   1.000  I
  I12      1.0000 0.29847  0.63146  0.98642  Biso   1.000  I
  I13      1.0000 0.01369  0.00000  0.14786  Biso   1.000  I
  I14      1.0000 0.51369  0.50000  0.14786  Biso   1.000  I
  I15      1.0000 0.98631  0.00000  0.85214  Biso   1.000  I
  I16      1.0000 0.48631  0.50000  0.85214  Biso   1.000  I
  I17      1.0000 0.92427  0.50000  0.31572  Biso   1.000  I
  I18      1.0000 0.42427  0.00000  0.31572  Biso   1.000  I
  I19      1.0000 0.07573  0.50000  0.68428  Biso   1.000  I
  I20      1.0000 0.57573  0.00000  0.68428  Biso   1.000  I
  I21      1.0000 0.14581  0.63232  0.44856  Biso   1.000  I
  I22      1.0000 0.64581  0.13232  0.44856  Biso   1.000  I
  I23      1.0000 0.85419  0.63232  0.55144  Biso   1.000  I
  I24      1.0000 0.35419  0.13232  0.55144  Biso   1.000  I
  I25      1.0000 0.85419  0.36768  0.55144  Biso   1.000  I
  I26      1.0000 0.35419  0.86768  0.55144  Biso   1.000  I
  I27      1.0000 0.14581  0.36768  0.44856  Biso   1.000  I
  I28      1.0000 0.64581  0.86768  0.44856  Biso   1.000  I
  N1       1.0000 0.92700  0.71240  0.32910  Biso   1.000  N
  N2       1.0000 0.42700  0.21240  0.32910  Biso   1.000  N
  N3       1.0000 0.07300  0.71240  0.67090  Biso   1.000  N
  N4       1.0000 0.57300  0.21240  0.67090  Biso   1.000  N
  N5       1.0000 0.07300  0.28760  0.67090  Biso   1.000  N
  N6       1.0000 0.57300  0.78760  0.67090  Biso   1.000  N
  N7       1.0000 0.92700  0.28760  0.32910  Biso   1.000  N
  N8       1.0000 0.42700  0.78760  0.32910  Biso   1.000  N
  N9       1.0000 0.58720  0.00000  0.01940  Biso   1.000  N
  N10      1.0000 0.08720  0.50000  0.01940  Biso   1.000  N
  N11      1.0000 0.41280  0.00000  0.98060  Biso   1.000  N
  N12      1.0000 0.91280  0.50000  0.98060  Biso   1.000  N
  N13      1.0000 0.88480  0.82680  0.22530  Biso   1.000  N
  N14      1.0000 0.38480  0.32680  0.22530  Biso   1.000  N
  N15      1.0000 0.11520  0.82680  0.77470  Biso   1.000  N
  N16      1.0000 0.61520  0.32680  0.77470  Biso   1.000  N
  N17      1.0000 0.11520  0.17320  0.77470  Biso   1.000  N
  N18      1.0000 0.61520  0.67320  0.77470  Biso   1.000  N
  N19      1.0000 0.88480  0.17320  0.22530  Biso   1.000  N
  N20      1.0000 0.38480  0.67320  0.22530  Biso   1.000  N
  C1       1.0000 0.98450  0.71190  0.25000  Biso   1.000  C
  C2       1.0000 0.48450  0.21190  0.25000  Biso   1.000  C
  C3       1.0000 0.01550  0.71190  0.75000  Biso   1.000  C
  C4       1.0000 0.51550  0.21190  0.75000  Biso   1.000  C
  C5       1.0000 0.01550  0.28810  0.75000  Biso   1.000  C
  C6       1.0000 0.51550  0.78810  0.75000  Biso   1.000  C
  C7       1.0000 0.98450  0.28810  0.25000  Biso   1.000  C
  C8       1.0000 0.48450  0.78810  0.25000  Biso   1.000  C
  H1       1.0000 0.97550  0.66410  0.21810  Biso   1.000  H
  H2       1.0000 0.47550  0.16410  0.21810  Biso   1.000  H
  H3       1.0000 0.02450  0.66410  0.78190  Biso   1.000  H
  H4       1.0000 0.52450  0.16410  0.78190  Biso   1.000  H
  H5       1.0000 0.02450  0.33590  0.78190  Biso   1.000  H
  H6       1.0000 0.52450  0.83590  0.78190  Biso   1.000  H
  H7       1.0000 0.97550  0.33590  0.21810  Biso   1.000  H
  H8       1.0000 0.47550  0.83590  0.21810  Biso   1.000  H
  H9       1.0000 0.04870  0.71550  0.26870  Biso   1.000  H
  H10      1.0000 0.54870  0.21550  0.26870  Biso   1.000  H
  H11      1.0000 0.95130  0.71550  0.73130  Biso   1.000  H
  H12      1.0000 0.45130  0.21550  0.73130  Biso   1.000  H
  H13      1.0000 0.95130  0.28450  0.73130  Biso   1.000  H
  H14      1.0000 0.45130  0.78450  0.73130  Biso   1.000  H
  H15      1.0000 0.04870  0.28450  0.26870  Biso   1.000  H
  H16      1.0000 0.54870  0.78450  0.26870  Biso   1.000  H
  C9       1.0000 0.94340  0.78650  0.37590  Biso   1.000  C
  C10      1.0000 0.44340  0.28650  0.37590  Biso   1.000  C
  C11      1.0000 0.05660  0.78650  0.62410  Biso   1.000  C
  C12      1.0000 0.55660  0.28650  0.62410  Biso   1.000  C
  C13      1.0000 0.05660  0.21350  0.62410  Biso   1.000  C
  C14      1.0000 0.55660  0.71350  0.62410  Biso   1.000  C
  C15      1.0000 0.94340  0.21350  0.37590  Biso   1.000  C
  C16      1.0000 0.44340  0.71350  0.37590  Biso   1.000  C
  H17      1.0000 0.00750  0.79020  0.39490  Biso   1.000  H
  H18      1.0000 0.50750  0.29020  0.39490  Biso   1.000  H
  H19      1.0000 0.99250  0.79020  0.60510  Biso   1.000  H
  H20      1.0000 0.49250  0.29020  0.60510  Biso   1.000  H
  H21      1.0000 0.99250  0.20980  0.60510  Biso   1.000  H
  H22      1.0000 0.49250  0.70980  0.60510  Biso   1.000  H
  H23      1.0000 0.00750  0.20980  0.39490  Biso   1.000  H
  H24      1.0000 0.50750  0.70980  0.39490  Biso   1.000  H
  H25      1.0000 0.90660  0.78860  0.42850  Biso   1.000  H
  H26      1.0000 0.40660  0.28860  0.42850  Biso   1.000  H
  H27      1.0000 0.09340  0.78860  0.57150  Biso   1.000  H
  H28      1.0000 0.59340  0.28860  0.57150  Biso   1.000  H
  H29      1.0000 0.09340  0.21140  0.57150  Biso   1.000  H
  H30      1.0000 0.59340  0.71140  0.57150  Biso   1.000  H
  H31      1.0000 0.90660  0.21140  0.42850  Biso   1.000  H
  H32      1.0000 0.40660  0.71140  0.42850  Biso   1.000  H
  C17      1.0000 0.82890  0.71000  0.29830  Biso   1.000  C
  C18      1.0000 0.32890  0.21000  0.29830  Biso   1.000  C
  C19      1.0000 0.17110  0.71000  0.70170  Biso   1.000  C
  C20      1.0000 0.67110  0.21000  0.70170  Biso   1.000  C
  C21      1.0000 0.17110  0.29000  0.70170  Biso   1.000  C
  C22      1.0000 0.67110  0.79000  0.70170  Biso   1.000  C
  C23      1.0000 0.82890  0.29000  0.29830  Biso   1.000  C
  C24      1.0000 0.32890  0.79000  0.29830  Biso   1.000  C
  H33      1.0000 0.79020  0.71140  0.34950  Biso   1.000  H
  H34      1.0000 0.29020  0.21140  0.34950  Biso   1.000  H
  H35      1.0000 0.20980  0.71140  0.65050  Biso   1.000  H
  H36      1.0000 0.70980  0.21140  0.65050  Biso   1.000  H
  H37      1.0000 0.20980  0.28860  0.65050  Biso   1.000  H
  H38      1.0000 0.70980  0.78860  0.65050  Biso   1.000  H
  H39      1.0000 0.79020  0.28860  0.34950  Biso   1.000  H
  H40      1.0000 0.29020  0.78860  0.34950  Biso   1.000  H
  H41      1.0000 0.81690  0.66230  0.26700  Biso   1.000  H
  H42      1.0000 0.31690  0.16230  0.26700  Biso   1.000  H
  H43      1.0000 0.18310  0.66230  0.73300  Biso   1.000  H
  H44      1.0000 0.68310  0.16230  0.73300  Biso   1.000  H
  H45      1.0000 0.18310  0.33770  0.73300  Biso   1.000  H
  H46      1.0000 0.68310  0.83770  0.73300  Biso   1.000  H
  H47      1.0000 0.81690  0.33770  0.26700  Biso   1.000  H
  H48      1.0000 0.31690  0.83770  0.26700  Biso   1.000  H
  C25      1.0000 0.95930  0.77970  0.18740  Biso   1.000  C
  C26      1.0000 0.45930  0.27970  0.18740  Biso   1.000  C
  C27      1.0000 0.04070  0.77970  0.81260  Biso   1.000  C
  C28      1.0000 0.54070  0.27970  0.81260  Biso   1.000  C
  C29      1.0000 0.04070  0.22030  0.81260  Biso   1.000  C
  C30      1.0000 0.54070  0.72030  0.81260  Biso   1.000  C
  C31      1.0000 0.95930  0.22030  0.18740  Biso   1.000  C
  C32      1.0000 0.45930  0.72030  0.18740  Biso   1.000  C
  H49      1.0000 0.01310  0.81130  0.17940  Biso   1.000  H
  H50      1.0000 0.51310  0.31130  0.17940  Biso   1.000  H
  H51      1.0000 0.98690  0.81130  0.82060  Biso   1.000  H
  H52      1.0000 0.48690  0.31130  0.82060  Biso   1.000  H
  H53      1.0000 0.98690  0.18870  0.82060  Biso   1.000  H
  H54      1.0000 0.48690  0.68870  0.82060  Biso   1.000  H
  H55      1.0000 0.01310  0.18870  0.17940  Biso   1.000  H
  H56      1.0000 0.51310  0.68870  0.17940  Biso   1.000  H
  H57      1.0000 0.93910  0.76030  0.12950  Biso   1.000  H
  H58      1.0000 0.43910  0.26030  0.12950  Biso   1.000  H
  H59      1.0000 0.06090  0.76030  0.87050  Biso   1.000  H
  H60      1.0000 0.56090  0.26030  0.87050  Biso   1.000  H
  H61      1.0000 0.06090  0.23970  0.87050  Biso   1.000  H
  H62      1.0000 0.56090  0.73970  0.87050  Biso   1.000  H
  H63      1.0000 0.93910  0.23970  0.12950  Biso   1.000  H
  H64      1.0000 0.43910  0.73970  0.12950  Biso   1.000  H
  C33      1.0000 0.91790  0.85400  0.31410  Biso   1.000  C
  C34      1.0000 0.41790  0.35400  0.31410  Biso   1.000  C
  C35      1.0000 0.08210  0.85400  0.68590  Biso   1.000  C
  C36      1.0000 0.58210  0.35400  0.68590  Biso   1.000  C
  C37      1.0000 0.08210  0.14600  0.68590  Biso   1.000  C
  C38      1.0000 0.58210  0.64600  0.68590  Biso   1.000  C
  C39      1.0000 0.91790  0.14600  0.31410  Biso   1.000  C
  C40      1.0000 0.41790  0.64600  0.31410  Biso   1.000  C
  H65      1.0000 0.87030  0.88440  0.34060  Biso   1.000  H
  H66      1.0000 0.37030  0.38440  0.34060  Biso   1.000  H
  H67      1.0000 0.12970  0.88440  0.65940  Biso   1.000  H
  H68      1.0000 0.62970  0.38440  0.65940  Biso   1.000  H
  H69      1.0000 0.12970  0.11560  0.65940  Biso   1.000  H
  H70      1.0000 0.62970  0.61560  0.65940  Biso   1.000  H
  H71      1.0000 0.87030  0.11560  0.34060  Biso   1.000  H
  H72      1.0000 0.37030  0.61560  0.34060  Biso   1.000  H
  H73      1.0000 0.97130  0.88640  0.30750  Biso   1.000  H
  H74      1.0000 0.47130  0.38640  0.30750  Biso   1.000  H
  H75      1.0000 0.02870  0.88640  0.69250  Biso   1.000  H
  H76      1.0000 0.52870  0.38640  0.69250  Biso   1.000  H
  H77      1.0000 0.02870  0.11360  0.69250  Biso   1.000  H
  H78      1.0000 0.52870  0.61360  0.69250  Biso   1.000  H
  H79      1.0000 0.97130  0.11360  0.30750  Biso   1.000  H
  H80      1.0000 0.47130  0.61360  0.30750  Biso   1.000  H
  C41      1.0000 0.80430  0.77650  0.23740  Biso   1.000  C
  C42      1.0000 0.30430  0.27650  0.23740  Biso   1.000  C
  C43      1.0000 0.19570  0.77650  0.76260  Biso   1.000  C
  C44      1.0000 0.69570  0.27650  0.76260  Biso   1.000  C
  C45      1.0000 0.19570  0.22350  0.76260  Biso   1.000  C
  C46      1.0000 0.69570  0.72350  0.76260  Biso   1.000  C
  C47      1.0000 0.80430  0.22350  0.23740  Biso   1.000  C
  C48      1.0000 0.30430  0.72350  0.23740  Biso   1.000  C
  H81      1.0000 0.78270  0.75700  0.18000  Biso   1.000  H
  H82      1.0000 0.28270  0.25700  0.18000  Biso   1.000  H
  H83      1.0000 0.21730  0.75700  0.82000  Biso   1.000  H
  H84      1.0000 0.71730  0.25700  0.82000  Biso   1.000  H
  H85      1.0000 0.21730  0.24300  0.82000  Biso   1.000  H
  H86      1.0000 0.71730  0.74300  0.82000  Biso   1.000  H
  H87      1.0000 0.78270  0.24300  0.18000  Biso   1.000  H
  H88      1.0000 0.28270  0.74300  0.18000  Biso   1.000  H
  H89      1.0000 0.75500  0.80590  0.26250  Biso   1.000  H
  H90      1.0000 0.25500  0.30590  0.26250  Biso   1.000  H
  H91      1.0000 0.24500  0.80590  0.73750  Biso   1.000  H
  H92      1.0000 0.74500  0.30590  0.73750  Biso   1.000  H
  H93      1.0000 0.24500  0.19410  0.73750  Biso   1.000  H
  H94      1.0000 0.74500  0.69410  0.73750  Biso   1.000  H
  H95      1.0000 0.75500  0.19410  0.26250  Biso   1.000  H
  H96      1.0000 0.25500  0.69410  0.26250  Biso   1.000  H
  C49      1.0000 0.55570  0.92870  0.96420  Biso   1.000  C
  C50      1.0000 0.05570  0.42870  0.96420  Biso   1.000  C
  C51      1.0000 0.44430  0.92870  0.03580  Biso   1.000  C
  C52      1.0000 0.94430  0.42870  0.03580  Biso   1.000  C
  C53      1.0000 0.44430  0.07130  0.03580  Biso   1.000  C
  C54      1.0000 0.94430  0.57130  0.03580  Biso   1.000  C
  C55      1.0000 0.55570  0.07130  0.96420  Biso   1.000  C
  C56      1.0000 0.05570  0.57130  0.96420  Biso   1.000  C
  C57      1.0000 0.54430  0.92800  0.06160  Biso   1.000  C
  C58      1.0000 0.04430  0.42800  0.06160  Biso   1.000  C
  C59      1.0000 0.45570  0.92800  0.93840  Biso   1.000  C
  C60      1.0000 0.95570  0.42800  0.93840  Biso   1.000  C
  C61      1.0000 0.45570  0.07200  0.93840  Biso   1.000  C
  C62      1.0000 0.95570  0.57200  0.93840  Biso   1.000  C
  C63      1.0000 0.54430  0.07200  0.06160  Biso   1.000  C
  C64      1.0000 0.04430  0.57200  0.06160  Biso   1.000  C
  C65      1.0000 0.52800  0.98600  0.09900  Biso   1.000  C
  C66      1.0000 0.02800  0.48600  0.09900  Biso   1.000  C
  C67      1.0000 0.47200  0.98600  0.90100  Biso   1.000  C
  C68      1.0000 0.97200  0.48600  0.90100  Biso   1.000  C
  C69      1.0000 0.47200  0.01400  0.90100  Biso   1.000  C
  C70      1.0000 0.97200  0.51400  0.90100  Biso   1.000  C
  C71      1.0000 0.52800  0.01400  0.09900  Biso   1.000  C
  C72      1.0000 0.02800  0.51400  0.09900  Biso   1.000  C
  C73      1.0000 0.57700  0.00000  0.93000  Biso   1.000  C
  C74      1.0000 0.07700  0.50000  0.93000  Biso   1.000  C
  C75      1.0000 0.42300  0.00000  0.07000  Biso   1.000  C
  C76      1.0000 0.92300  0.50000  0.07000  Biso   1.000  C
