data_image0
_cell_length_a       11.5557
_cell_length_b       25.6278
_cell_length_c       14.0999
_cell_angle_alpha    90
_cell_angle_beta     94.144
_cell_angle_gamma    90

_symmetry_space_group_name_H-M    "P 1"
_symmetry_int_tables_number       1

loop_
  _symmetry_equiv_pos_as_xyz
  'x, y, z'

loop_
  _atom_site_label
  _atom_site_occupancy
  _atom_site_fract_x
  _atom_site_fract_y
  _atom_site_fract_z
  _atom_site_thermal_displace_type
  _atom_site_B_iso_or_equiv
  _atom_site_type_symbol
  Cu1      1.0000 0.97334  0.35470  0.98743  Biso   1.000  Cu
  Cu2      1.0000 0.02666  0.85470  0.01257  Biso   1.000  Cu
  Cu3      1.0000 0.51816  0.12214  0.51771  Biso   1.000  Cu
  Cu4      1.0000 0.48184  0.62214  0.48229  Biso   1.000  Cu
  N1       1.0000 0.41490  0.16430  0.59980  Biso   1.000  N
  N2       1.0000 0.58510  0.66430  0.40020  Biso   1.000  N
  N3       1.0000 0.60250  0.17030  0.42810  Biso   1.000  N
  N4       1.0000 0.39750  0.67030  0.57190  Biso   1.000  N
  N5       1.0000 0.37850  0.57950  0.39370  Biso   1.000  N
  N6       1.0000 0.62150  0.07950  0.60630  Biso   1.000  N
  N7       1.0000 0.88260  0.31000  0.07360  Biso   1.000  N
  N8       1.0000 0.11740  0.81000  0.92640  Biso   1.000  N
  N9       1.0000 0.87120  0.39840  0.89500  Biso   1.000  N
  N10      1.0000 0.12880  0.89840  0.10500  Biso   1.000  N
  N11      1.0000 0.07520  0.31200  0.90960  Biso   1.000  N
  N12      1.0000 0.92480  0.81200  0.09040  Biso   1.000  N
  N13      1.0000 0.06560  0.39880  0.08790  Biso   1.000  N
  N14      1.0000 0.93440  0.89880  0.91210  Biso   1.000  N
  N15      1.0000 0.56990  0.57530  0.58160  Biso   1.000  N
  N16      1.0000 0.43010  0.07530  0.41840  Biso   1.000  N
  N17      1.0000 0.33480  0.17740  0.04860  Biso   1.000  N
  N18      1.0000 0.66520  0.67740  0.95140  Biso   1.000  N
  N19      1.0000 0.14670  0.30470  0.46550  Biso   1.000  N
  N20      1.0000 0.85330  0.80470  0.53450  Biso   1.000  N
  N21      1.0000 0.97030  0.19310  0.61040  Biso   1.000  N
  N22      1.0000 0.02970  0.69310  0.38960  Biso   1.000  N
  N23      1.0000 0.53260  0.28380  0.90170  Biso   1.000  N
  N24      1.0000 0.46740  0.78380  0.09830  Biso   1.000  N
  C1       1.0000 0.70870  0.18620  0.44400  Biso   1.000  C
  C2       1.0000 0.29130  0.68620  0.55600  Biso   1.000  C
  H1       1.0000 0.74800  0.17730  0.50160  Biso   1.000  H
  H2       1.0000 0.25200  0.67730  0.49840  Biso   1.000  H
  C3       1.0000 0.54900  0.18270  0.34570  Biso   1.000  C
  C4       1.0000 0.45100  0.68270  0.65430  Biso   1.000  C
  H3       1.0000 0.47130  0.17340  0.33560  Biso   1.000  H
  H4       1.0000 0.52870  0.67340  0.66440  Biso   1.000  H
  C5       1.0000 0.94060  0.28340  0.14540  Biso   1.000  C
  C6       1.0000 0.05940  0.78340  0.85460  Biso   1.000  C
  H5       1.0000 0.02120  0.28390  0.14800  Biso   1.000  H
  H6       1.0000 0.97880  0.78390  0.85200  Biso   1.000  H
  C7       1.0000 0.70900  0.28390  0.14720  Biso   1.000  C
  C8       1.0000 0.29100  0.78390  0.85280  Biso   1.000  C
  H7       1.0000 0.62860  0.28520  0.14730  Biso   1.000  H
  H8       1.0000 0.37140  0.78520  0.85270  Biso   1.000  H
  C9       1.0000 0.76510  0.31040  0.07730  Biso   1.000  C
  C10      1.0000 0.23490  0.81040  0.92270  Biso   1.000  C
  H9       1.0000 0.72060  0.32910  0.03150  Biso   1.000  H
  H10      1.0000 0.27940  0.82910  0.96850  Biso   1.000  H
  C11      1.0000 0.12400  0.23130  0.84230  Biso   1.000  C
  C12      1.0000 0.87600  0.73130  0.15770  Biso   1.000  C
  H11      1.0000 0.10560  0.19620  0.83420  Biso   1.000  H
  H12      1.0000 0.89440  0.69620  0.16580  Biso   1.000  H
  C13      1.0000 0.44150  0.21300  0.62500  Biso   1.000  C
  C14      1.0000 0.55850  0.71300  0.37500  Biso   1.000  C
  H13      1.0000 0.50780  0.22720  0.60160  Biso   1.000  H
  H14      1.0000 0.49220  0.72720  0.39840  Biso   1.000  H
  C15      1.0000 0.51180  0.54770  0.64340  Biso   1.000  C
  C16      1.0000 0.48820  0.04770  0.35660  Biso   1.000  C
  H15      1.0000 0.43190  0.55220  0.64360  Biso   1.000  H
  H16      1.0000 0.56810  0.05220  0.35640  Biso   1.000  H
  C17      1.0000 0.37850  0.24510  0.68430  Biso   1.000  C
  C18      1.0000 0.62150  0.74510  0.31570  Biso   1.000  C
  H17      1.0000 0.39950  0.27970  0.69540  Biso   1.000  H
  H18      1.0000 0.60050  0.77970  0.30460  Biso   1.000  H
  C19      1.0000 0.06550  0.25900  0.90000  Biso   1.000  C
  C20      1.0000 0.93450  0.75900  0.10000  Biso   1.000  C
  H19      1.0000 0.01410  0.24170  0.93690  Biso   1.000  H
  H20      1.0000 0.98590  0.74170  0.06310  Biso   1.000  H
  C21      1.0000 0.01300  0.42740  0.15080  Biso   1.000  C
  C22      1.0000 0.98700  0.92740  0.84920  Biso   1.000  C
  H21      1.0000 0.93320  0.42350  0.15300  Biso   1.000  H
  H22      1.0000 0.06680  0.92350  0.84700  Biso   1.000  H
  C23      1.0000 0.77380  0.25550  0.21720  Biso   1.000  C
  C24      1.0000 0.22620  0.75550  0.78280  Biso   1.000  C
  C25      1.0000 0.88950  0.25590  0.21450  Biso   1.000  C
  C26      1.0000 0.11050  0.75590  0.78550  Biso   1.000  C
  H23      1.0000 0.93540  0.23740  0.25980  Biso   1.000  H
  H24      1.0000 0.06460  0.73740  0.74020  Biso   1.000  H
  C27      1.0000 0.59840  0.20800  0.27430  Biso   1.000  C
  C28      1.0000 0.40160  0.70800  0.72570  Biso   1.000  C
  H25      1.0000 0.55730  0.21320  0.21590  Biso   1.000  H
  H26      1.0000 0.44270  0.71320  0.78410  Biso   1.000  H
  C29      1.0000 0.71350  0.22610  0.29060  Biso   1.000  C
  C30      1.0000 0.28650  0.72610  0.70940  Biso   1.000  C
  C31      1.0000 0.78430  0.42710  0.92470  Biso   1.000  C
  C32      1.0000 0.21570  0.92710  0.07530  Biso   1.000  C
  H27      1.0000 0.76940  0.42520  0.98860  Biso   1.000  H
  H28      1.0000 0.23060  0.92520  0.01140  Biso   1.000  H
  C33      1.0000 0.89490  0.40100  0.80430  Biso   1.000  C
  C34      1.0000 0.10510  0.90100  0.19570  Biso   1.000  C
  H29      1.0000 0.95250  0.37970  0.78260  Biso   1.000  H
  H30      1.0000 0.04750  0.87970  0.21740  Biso   1.000  H
  C35      1.0000 0.21790  0.25340  0.78960  Biso   1.000  C
  C36      1.0000 0.78210  0.75340  0.21040  Biso   1.000  C
  C37      1.0000 0.40240  0.56800  0.30280  Biso   1.000  C
  C38      1.0000 0.59760  0.06800  0.69720  Biso   1.000  C
  H31      1.0000 0.46620  0.58450  0.27950  Biso   1.000  H
  H32      1.0000 0.53380  0.08450  0.72050  Biso   1.000  H
  C39      1.0000 0.56680  0.51240  0.70770  Biso   1.000  C
  C40      1.0000 0.43320  0.01240  0.29230  Biso   1.000  C
  H33      1.0000 0.52330  0.49430  0.74990  Biso   1.000  H
  H34      1.0000 0.47670  0.99430  0.25010  Biso   1.000  H
  C41      1.0000 0.28520  0.55330  0.42240  Biso   1.000  C
  C42      1.0000 0.71480  0.05330  0.57760  Biso   1.000  C
  H35      1.0000 0.26120  0.56010  0.48270  Biso   1.000  H
  H36      1.0000 0.73880  0.06010  0.51730  Biso   1.000  H
  C43      1.0000 0.06750  0.46210  0.21210  Biso   1.000  C
  C44      1.0000 0.93250  0.96210  0.78790  Biso   1.000  C
  H37      1.0000 0.02570  0.48100  0.25430  Biso   1.000  H
  H38      1.0000 0.97430  0.98100  0.74570  Biso   1.000  H
  C45      1.0000 0.18160  0.40530  0.08760  Biso   1.000  C
  C46      1.0000 0.81840  0.90530  0.91240  Biso   1.000  C
  H39      1.0000 0.22200  0.38580  0.04530  Biso   1.000  H
  H40      1.0000 0.77800  0.88580  0.95470  Biso   1.000  H
  C47      1.0000 0.83370  0.43580  0.73950  Biso   1.000  C
  C48      1.0000 0.16630  0.93580  0.26050  Biso   1.000  C
  H41      1.0000 0.85300  0.43850  0.67680  Biso   1.000  H
  H42      1.0000 0.14700  0.93850  0.32320  Biso   1.000  H
  C49      1.0000 0.34410  0.53600  0.24530  Biso   1.000  C
  C50      1.0000 0.65590  0.03600  0.75470  Biso   1.000  C
  H43      1.0000 0.36520  0.53260  0.18320  Biso   1.000  H
  H44      1.0000 0.63480  0.03260  0.81680  Biso   1.000  H
  C51      1.0000 0.68320  0.56870  0.58530  Biso   1.000  C
  C52      1.0000 0.31680  0.06870  0.41470  Biso   1.000  C
  H45      1.0000 0.72460  0.58850  0.54410  Biso   1.000  H
  H46      1.0000 0.27540  0.08850  0.45590  Biso   1.000  H
  C53      1.0000 0.71470  0.45960  0.86580  Biso   1.000  C
  C54      1.0000 0.28530  0.95960  0.13420  Biso   1.000  C
  H47      1.0000 0.65100  0.47680  0.88780  Biso   1.000  H
  H48      1.0000 0.34900  0.97680  0.11220  Biso   1.000  H
  C55      1.0000 0.74480  0.53500  0.64510  Biso   1.000  C
  C56      1.0000 0.25520  0.03500  0.35490  Biso   1.000  C
  H49      1.0000 0.82500  0.53220  0.64390  Biso   1.000  H
  H50      1.0000 0.17500  0.03220  0.35610  Biso   1.000  H
  C57      1.0000 0.32510  0.14290  0.64210  Biso   1.000  C
  C58      1.0000 0.67490  0.64290  0.35790  Biso   1.000  C
  H51      1.0000 0.30780  0.10810  0.62950  Biso   1.000  H
  H52      1.0000 0.69220  0.60810  0.37050  Biso   1.000  H
  C59      1.0000 0.22360  0.51680  0.36530  Biso   1.000  C
  C60      1.0000 0.77640  0.01680  0.63470  Biso   1.000  C
  H53      1.0000 0.16250  0.49880  0.38970  Biso   1.000  H
  H54      1.0000 0.83750  0.99880  0.61030  Biso   1.000  H
  C61      1.0000 0.16150  0.33240  0.86300  Biso   1.000  C
  C62      1.0000 0.83850  0.83240  0.13700  Biso   1.000  C
  H55      1.0000 0.17630  0.36790  0.87100  Biso   1.000  H
  H56      1.0000 0.82370  0.86790  0.12900  Biso   1.000  H
  C63      1.0000 0.74460  0.46520  0.77270  Biso   1.000  C
  C64      1.0000 0.25540  0.96520  0.22730  Biso   1.000  C
  C65      1.0000 0.24290  0.43980  0.14760  Biso   1.000  C
  C66      1.0000 0.75710  0.93980  0.85240  Biso   1.000  C
  H57      1.0000 0.32270  0.44320  0.14470  Biso   1.000  H
  H58      1.0000 0.67730  0.94320  0.85530  Biso   1.000  H
  C67      1.0000 0.68330  0.50420  0.70920  Biso   1.000  C
  C68      1.0000 0.31670  0.00420  0.29080  Biso   1.000  C
  C69      1.0000 0.25130  0.50680  0.27410  Biso   1.000  C
  C70      1.0000 0.74870  0.00680  0.72590  Biso   1.000  C
  C71      1.0000 0.18720  0.46860  0.21050  Biso   1.000  C
  C72      1.0000 0.81280  0.96860  0.78950  Biso   1.000  C
  C73      1.0000 0.25780  0.16930  0.70240  Biso   1.000  C
  C74      1.0000 0.74220  0.66930  0.29760  Biso   1.000  C
  H59      1.0000 0.19560  0.15310  0.72880  Biso   1.000  H
  H60      1.0000 0.80440  0.65310  0.27120  Biso   1.000  H
  C75      1.0000 0.23000  0.30540  0.80420  Biso   1.000  C
  C76      1.0000 0.77000  0.80540  0.19580  Biso   1.000  C
  H61      1.0000 0.28640  0.32330  0.77360  Biso   1.000  H
  H62      1.0000 0.71360  0.82330  0.22640  Biso   1.000  H
  C77      1.0000 0.30050  0.15220  0.11950  Biso   1.000  C
  C78      1.0000 0.69950  0.65220  0.88050  Biso   1.000  C
  H63      1.0000 0.30020  0.11600  0.11510  Biso   1.000  H
  H64      1.0000 0.69980  0.61600  0.88490  Biso   1.000  H
  C79      1.0000 0.26300  0.17400  0.20380  Biso   1.000  C
  C80      1.0000 0.73700  0.67400  0.79620  Biso   1.000  C
  H65      1.0000 0.24050  0.15250  0.25240  Biso   1.000  H
  H66      1.0000 0.75950  0.65250  0.74760  Biso   1.000  H
  C81      1.0000 0.21060  0.22820  0.38690  Biso   1.000  C
  C82      1.0000 0.78940  0.72820  0.61310  Biso   1.000  C
  H67      1.0000 0.22890  0.19290  0.39130  Biso   1.000  H
  H68      1.0000 0.77110  0.69290  0.60870  Biso   1.000  H
  C83      1.0000 0.29510  0.25560  0.13720  Biso   1.000  C
  C84      1.0000 0.70490  0.75560  0.86280  Biso   1.000  C
  H69      1.0000 0.29630  0.29190  0.13820  Biso   1.000  H
  H70      1.0000 0.70370  0.79190  0.86180  Biso   1.000  H
  C85      1.0000 0.25990  0.22860  0.21390  Biso   1.000  C
  C86      1.0000 0.74010  0.72860  0.78610  Biso   1.000  C
  C87      1.0000 0.33060  0.22800  0.05460  Biso   1.000  C
  C88      1.0000 0.66940  0.72800  0.94540  Biso   1.000  C
  H71      1.0000 0.35140  0.24750  0.00280  Biso   1.000  H
  H72      1.0000 0.64860  0.74750  0.99720  Biso   1.000  H
  C89      1.0000 0.17560  0.25370  0.46280  Biso   1.000  C
  C90      1.0000 0.82440  0.75370  0.53720  Biso   1.000  C
  H73      1.0000 0.17090  0.23460  0.51850  Biso   1.000  H
  H74      1.0000 0.82910  0.73460  0.48150  Biso   1.000  H
  C91      1.0000 0.19030  0.30890  0.30050  Biso   1.000  C
  C92      1.0000 0.80970  0.80890  0.69950  Biso   1.000  C
  H75      1.0000 0.19280  0.32920  0.24600  Biso   1.000  H
  H76      1.0000 0.80720  0.82920  0.75400  Biso   1.000  H
  C93      1.0000 0.15960  0.32910  0.38020  Biso   1.000  C
  C94      1.0000 0.84040  0.82910  0.61980  Biso   1.000  C
  H77      1.0000 0.14440  0.36470  0.37880  Biso   1.000  H
  H78      1.0000 0.85560  0.86470  0.62120  Biso   1.000  H
  C95      1.0000 0.21970  0.25500  0.29980  Biso   1.000  C
  C96      1.0000 0.78030  0.75500  0.70020  Biso   1.000  C
  C97      1.0000 0.56650  0.23560  0.90250  Biso   1.000  C
  C98      1.0000 0.43350  0.73560  0.09750  Biso   1.000  C
  H79      1.0000 0.53190  0.21290  0.94340  Biso   1.000  H
  H80      1.0000 0.46810  0.71290  0.05660  Biso   1.000  H
  C99      1.0000 0.65010  0.21510  0.84740  Biso   1.000  C
  C100     1.0000 0.34990  0.71510  0.15260  Biso   1.000  C
  H81      1.0000 0.67050  0.18000  0.85160  Biso   1.000  H
  H82      1.0000 0.32950  0.68000  0.14840  Biso   1.000  H
  C101     1.0000 0.91350  0.16280  0.66450  Biso   1.000  C
  C102     1.0000 0.08650  0.66280  0.33550  Biso   1.000  C
  H83      1.0000 0.93490  0.12780  0.66340  Biso   1.000  H
  H84      1.0000 0.06510  0.62780  0.33660  Biso   1.000  H
  C103     1.0000 0.86160  0.26140  0.67490  Biso   1.000  C
  C104     1.0000 0.13840  0.76140  0.32510  Biso   1.000  C
  H85      1.0000 0.85030  0.29720  0.67960  Biso   1.000  H
  H86      1.0000 0.14970  0.79720  0.32040  Biso   1.000  H
  C105     1.0000 0.58470  0.31660  0.83980  Biso   1.000  C
  C106     1.0000 0.41530  0.81660  0.16020  Biso   1.000  C
  H87      1.0000 0.56390  0.35160  0.83560  Biso   1.000  H
  H88      1.0000 0.43610  0.85160  0.16440  Biso   1.000  H
  C107     1.0000 0.82590  0.17430  0.72400  Biso   1.000  C
  C108     1.0000 0.17410  0.67430  0.27600  Biso   1.000  C
  H89      1.0000 0.79020  0.14920  0.75950  Biso   1.000  H
  H90      1.0000 0.20980  0.64920  0.24050  Biso   1.000  H
  C109     1.0000 0.66680  0.29710  0.78500  Biso   1.000  C
  C110     1.0000 0.33320  0.79710  0.21500  Biso   1.000  C
  H91      1.0000 0.70010  0.32010  0.74390  Biso   1.000  H
  H92      1.0000 0.29990  0.82010  0.25610  Biso   1.000  H
  C111     1.0000 0.94450  0.24500  0.61770  Biso   1.000  C
  C112     1.0000 0.05550  0.74500  0.38230  Biso   1.000  C
  H93      1.0000 0.98400  0.26930  0.58330  Biso   1.000  H
  H94      1.0000 0.01600  0.76930  0.41670  Biso   1.000  H
  C113     1.0000 0.79490  0.23050  0.72500  Biso   1.000  C
  C114     1.0000 0.20510  0.73050  0.27500  Biso   1.000  C
  C115     1.0000 0.70290  0.24880  0.78530  Biso   1.000  C
  C116     1.0000 0.29710  0.74880  0.21470  Biso   1.000  C
  C117     1.0000 0.30360  0.89070  0.65160  Biso   1.000  C
  C118     1.0000 0.69640  0.39070  0.34840  Biso   1.000  C
  H95      1.0000 0.33140  0.86720  0.70320  Biso   1.000  H
  H96      1.0000 0.66860  0.36720  0.29680  Biso   1.000  H
  C119     1.0000 0.41130  0.91080  0.60170  Biso   1.000  C
  C120     1.0000 0.58870  0.41080  0.39830  Biso   1.000  C
  C121     1.0000 0.44120  0.86520  0.53400  Biso   1.000  C
  C122     1.0000 0.55880  0.36520  0.46600  Biso   1.000  C
  C123     1.0000 0.31980  0.84870  0.50090  Biso   1.000  C
  C124     1.0000 0.68020  0.34870  0.49910  Biso   1.000  C
  H97      1.0000 0.29400  0.86790  0.44400  Biso   1.000  H
  H98      1.0000 0.70600  0.36790  0.55600  Biso   1.000  H
  H99      1.0000 0.31880  0.81180  0.48560  Biso   1.000  H
  H100     1.0000 0.68120  0.31180  0.51440  Biso   1.000  H
  C125     1.0000 0.23980  0.85910  0.57730  Biso   1.000  C
  C126     1.0000 0.76020  0.35910  0.42270  Biso   1.000  C
  H101     1.0000 0.17180  0.87780  0.55150  Biso   1.000  H
  H102     1.0000 0.82820  0.37780  0.44850  Biso   1.000  H
  H103     1.0000 0.21470  0.82640  0.60410  Biso   1.000  H
  H104     1.0000 0.78530  0.32640  0.39590  Biso   1.000  H
  C127     1.0000 0.38870  0.95830  0.54610  Biso   1.000  C
  C128     1.0000 0.61130  0.45830  0.45390  Biso   1.000  C
  H105     1.0000 0.45810  0.96870  0.51760  Biso   1.000  H
  H106     1.0000 0.54190  0.46870  0.48240  Biso   1.000  H
  H107     1.0000 0.36490  0.98560  0.58700  Biso   1.000  H
  H108     1.0000 0.63510  0.48560  0.41300  Biso   1.000  H
  H109     1.0000 0.32830  0.95180  0.49710  Biso   1.000  H
  H110     1.0000 0.67170  0.45180  0.50290  Biso   1.000  H
  C129     1.0000 0.50090  0.91150  0.67090  Biso   1.000  C
  C130     1.0000 0.49910  0.41150  0.32910  Biso   1.000  C
  H111     1.0000 0.57060  0.92280  0.64380  Biso   1.000  H
  H112     1.0000 0.42940  0.42280  0.35620  Biso   1.000  H
  H113     1.0000 0.51220  0.87710  0.69680  Biso   1.000  H
  H114     1.0000 0.48780  0.37710  0.30320  Biso   1.000  H
  H115     1.0000 0.48280  0.93510  0.72050  Biso   1.000  H
  H116     1.0000 0.51720  0.43510  0.27950  Biso   1.000  H
  C131     1.0000 0.51070  0.88080  0.45500  Biso   1.000  C
  C132     1.0000 0.48930  0.38080  0.54500  Biso   1.000  C
  C133     1.0000 0.23820  0.93320  0.69330  Biso   1.000  C
  C134     1.0000 0.76180  0.43320  0.30670  Biso   1.000  C
  C135     1.0000 0.81290  0.08840  0.15640  Biso   1.000  C
  C136     1.0000 0.18710  0.58840  0.84360  Biso   1.000  C
  C137     1.0000 0.91970  0.06770  0.10900  Biso   1.000  C
  C138     1.0000 0.08030  0.56770  0.89100  Biso   1.000  C
  C139     1.0000 0.94020  0.10320  0.03270  Biso   1.000  C
  C140     1.0000 0.05980  0.60320  0.96730  Biso   1.000  C
  C141     1.0000 0.84080  0.14100  0.01540  Biso   1.000  C
  C142     1.0000 0.15920  0.64100  0.98460  Biso   1.000  C
  H117     1.0000 0.81100  0.13990  0.94930  Biso   1.000  H
  H118     1.0000 0.18900  0.63990  0.05070  Biso   1.000  H
  H119     1.0000 0.86580  0.17630  0.03090  Biso   1.000  H
  H120     1.0000 0.13420  0.67630  0.96910  Biso   1.000  H
  C143     1.0000 0.74510  0.12300  0.08210  Biso   1.000  C
  C144     1.0000 0.25490  0.62300  0.91790  Biso   1.000  C
  H121     1.0000 0.71050  0.15270  0.11200  Biso   1.000  H
  H122     1.0000 0.28950  0.65270  0.88800  Biso   1.000  H
  H123     1.0000 0.68450  0.10330  0.04690  Biso   1.000  H
  H124     1.0000 0.31550  0.60330  0.95310  Biso   1.000  H
  C145     1.0000 0.85890  0.12100  0.23420  Biso   1.000  C
  C146     1.0000 0.14110  0.62100  0.76580  Biso   1.000  C
  H125     1.0000 0.90240  0.14920  0.20960  Biso   1.000  H
  H126     1.0000 0.09760  0.64920  0.79040  Biso   1.000  H
  H127     1.0000 0.90870  0.10050  0.27720  Biso   1.000  H
  H128     1.0000 0.09130  0.60050  0.72280  Biso   1.000  H
  H129     1.0000 0.79610  0.13480  0.26750  Biso   1.000  H
  H130     1.0000 0.20390  0.63480  0.73250  Biso   1.000  H
  C147     1.0000 0.01400  0.04100  0.16800  Biso   1.000  C
  C148     1.0000 0.98600  0.54100  0.83200  Biso   1.000  C
  H131     1.0000 0.04350  0.06400  0.21780  Biso   1.000  H
  H132     1.0000 0.95650  0.56400  0.78220  Biso   1.000  H
  H133     1.0000 0.07540  0.03170  0.12880  Biso   1.000  H
  H134     1.0000 0.92460  0.53170  0.87120  Biso   1.000  H
  H135     1.0000 0.98390  0.01000  0.19540  Biso   1.000  H
  H136     1.0000 0.01610  0.51000  0.80460  Biso   1.000  H
  C149     1.0000 0.74020  0.04170  0.19760  Biso   1.000  C
  C150     1.0000 0.25980  0.54170  0.80240  Biso   1.000  C
  C151     1.0000 0.02860  0.10040  0.96390  Biso   1.000  C
  C152     1.0000 0.97140  0.60040  0.03610  Biso   1.000  C
  O1       1.0000 0.15180  0.95350  0.64570  Biso   1.000  O
  O2       1.0000 0.84820  0.45350  0.35430  Biso   1.000  O
  O3       1.0000 0.08260  0.12400  0.48690  Biso   1.000  O
  O4       1.0000 0.91740  0.62400  0.51310  Biso   1.000  O
  O5       1.0000 0.27450  0.94820  0.77630  Biso   1.000  O
  O6       1.0000 0.72550  0.44820  0.22370  Biso   1.000  O
  O7       1.0000 0.50710  0.02330  0.98870  Biso   1.000  O
  O8       1.0000 0.49290  0.52330  0.01130  Biso   1.000  O
  O9       1.0000 0.61010  0.90230  0.47810  Biso   1.000  O
  O10      1.0000 0.38990  0.40230  0.52190  Biso   1.000  O
  O11      1.0000 0.56830  0.42870  0.07960  Biso   1.000  O
  O12      1.0000 0.43170  0.92870  0.92040  Biso   1.000  O
  O13      1.0000 0.48120  0.86910  0.36890  Biso   1.000  O
  O14      1.0000 0.51880  0.36910  0.63110  Biso   1.000  O
  O15      1.0000 0.96740  0.45770  0.52470  Biso   1.000  O
  O16      1.0000 0.03260  0.95770  0.47530  Biso   1.000  O
  O17      1.0000 0.76670  0.02630  0.28230  Biso   1.000  O
  O18      1.0000 0.23330  0.52630  0.71770  Biso   1.000  O
  O19      1.0000 0.41350  0.11080  0.89910  Biso   1.000  O
  O20      1.0000 0.58650  0.61080  0.10090  Biso   1.000  O
  O21      1.0000 0.65760  0.02370  0.14710  Biso   1.000  O
  O22      1.0000 0.34240  0.52370  0.85290  Biso   1.000  O
  O23      1.0000 0.07580  0.37230  0.61050  Biso   1.000  O
  O24      1.0000 0.92420  0.87230  0.38950  Biso   1.000  O
  O25      1.0000 0.10540  0.06130  0.97190  Biso   1.000  O
  O26      1.0000 0.89460  0.56130  0.02810  Biso   1.000  O
  O27      1.0000 0.22470  0.04820  0.82660  Biso   1.000  O
  O28      1.0000 0.77530  0.54820  0.17340  Biso   1.000  O
  O29      1.0000 0.99550  0.10480  0.88380  Biso   1.000  O
  O30      1.0000 0.00450  0.60480  0.11620  Biso   1.000  O
  O31      1.0000 0.41710  0.35480  0.02250  Biso   1.000  O
  O32      1.0000 0.58290  0.85480  0.97750  Biso   1.000  O
  O33      1.0000 0.92930  0.04920  0.42640  Biso   1.000  O
  O34      1.0000 0.07070  0.54920  0.57360  Biso   1.000  O
  O35      1.0000 0.10660  0.05680  0.65110  Biso   1.000  O
  O36      1.0000 0.89340  0.55680  0.34890  Biso   1.000  O
  O37      1.0000 0.71980  0.92850  0.32450  Biso   1.000  O
  O38      1.0000 0.28020  0.42850  0.67550  Biso   1.000  O
  C153     1.0000 0.49740  0.82260  0.58810  Biso   1.000  C
  C154     1.0000 0.50260  0.32260  0.41190  Biso   1.000  C
  H137     1.0000 0.51370  0.79460  0.54580  Biso   1.000  H
  H138     1.0000 0.48630  0.29460  0.45420  Biso   1.000  H
  H139     1.0000 0.44700  0.81030  0.63450  Biso   1.000  H
  H140     1.0000 0.55300  0.31030  0.36550  Biso   1.000  H
  H141     1.0000 0.56870  0.83490  0.61970  Biso   1.000  H
  H142     1.0000 0.43130  0.33490  0.38030  Biso   1.000  H
  C155     1.0000 0.76650  0.21530  0.38060  Biso   1.000  C
  C156     1.0000 0.23350  0.71530  0.61940  Biso   1.000  C
  H143     1.0000 0.84070  0.22790  0.39760  Biso   1.000  H
  H144     1.0000 0.15930  0.72790  0.60240  Biso   1.000  H
  C157     1.0000 0.28730  0.22410  0.72400  Biso   1.000  C
  C158     1.0000 0.71270  0.72410  0.27600  Biso   1.000  C
  O39      1.0000 0.61260  0.91870  0.14530  Biso   1.000  O
  O40      1.0000 0.38740  0.41870  0.85470  Biso   1.000  O
  C159     1.0000 0.88200  0.02650  0.03500  Biso   1.000  C
  C160     1.0000 0.11800  0.52650  0.96500  Biso   1.000  C
  H145     1.0000 0.81730  0.03930  0.99510  Biso   1.000  H
  H146     1.0000 0.18270  0.53930  0.00490  Biso   1.000  H
  H147     1.0000 0.86020  0.99510  0.06610  Biso   1.000  H
  H148     1.0000 0.13980  0.49510  0.93390  Biso   1.000  H
  H149     1.0000 0.94550  0.01910  0.99620  Biso   1.000  H
  H150     1.0000 0.05450  0.51910  0.00380  Biso   1.000  H
