data_image0
_cell_length_a       9.4013
_cell_length_b       11.6479
_cell_length_c       14.949
_cell_angle_alpha    90
_cell_angle_beta     94.646
_cell_angle_gamma    90

_symmetry_space_group_name_H-M    "P 1"
_symmetry_int_tables_number       1

loop_
  _symmetry_equiv_pos_as_xyz
  'x, y, z'

loop_
  _atom_site_label
  _atom_site_occupancy
  _atom_site_fract_x
  _atom_site_fract_y
  _atom_site_fract_z
  _atom_site_thermal_displace_type
  _atom_site_B_iso_or_equiv
  _atom_site_type_symbol
  I1       1.0000 0.28053  0.41586  0.10966  Biso   1.000  I
  I2       1.0000 0.21947  0.91586  0.39034  Biso   1.000  I
  I3       1.0000 0.71947  0.58414  0.89034  Biso   1.000  I
  I4       1.0000 0.78053  0.08414  0.60966  Biso   1.000  I
  I5       1.0000 0.43302  0.61287  0.34368  Biso   1.000  I
  I6       1.0000 0.06698  0.11287  0.15632  Biso   1.000  I
  I7       1.0000 0.56698  0.38713  0.65632  Biso   1.000  I
  I8       1.0000 0.93302  0.88713  0.84368  Biso   1.000  I
  I9       1.0000 0.43049  0.23613  0.35842  Biso   1.000  I
  I10      1.0000 0.06951  0.73613  0.14158  Biso   1.000  I
  I11      1.0000 0.56951  0.76387  0.64158  Biso   1.000  I
  I12      1.0000 0.93049  0.26387  0.85842  Biso   1.000  I
  Cu1      1.0000 0.21088  0.27888  0.24329  Biso   1.000  Cu
  Cu2      1.0000 0.28912  0.77888  0.25671  Biso   1.000  Cu
  Cu3      1.0000 0.78912  0.72112  0.75671  Biso   1.000  Cu
  Cu4      1.0000 0.71088  0.22112  0.74329  Biso   1.000  Cu
  Cu5      1.0000 0.20706  0.56690  0.23410  Biso   1.000  Cu
  Cu6      1.0000 0.29294  0.06690  0.26590  Biso   1.000  Cu
  Cu7      1.0000 0.79294  0.43310  0.76590  Biso   1.000  Cu
  Cu8      1.0000 0.70706  0.93310  0.73410  Biso   1.000  Cu
  Cu9      1.0000 0.46272  0.41907  0.25686  Biso   1.000  Cu
  Cu10     1.0000 0.03728  0.91907  0.24314  Biso   1.000  Cu
  Cu11     1.0000 0.53728  0.58093  0.74314  Biso   1.000  Cu
  Cu12     1.0000 0.96272  0.08093  0.75686  Biso   1.000  Cu
  N1       1.0000 0.96650  0.33690  0.36397  Biso   1.000  N
  N2       1.0000 0.53350  0.83690  0.13603  Biso   1.000  N
  N3       1.0000 0.03350  0.66310  0.63603  Biso   1.000  N
  N4       1.0000 0.46650  0.16310  0.86397  Biso   1.000  N
  N5       1.0000 0.06450  0.37140  0.30906  Biso   1.000  N
  N6       1.0000 0.43550  0.87140  0.19094  Biso   1.000  N
  N7       1.0000 0.93550  0.62860  0.69094  Biso   1.000  N
  N8       1.0000 0.56450  0.12860  0.80906  Biso   1.000  N
  N9       1.0000 0.06350  0.48440  0.30547  Biso   1.000  N
  N10      1.0000 0.43650  0.98440  0.19453  Biso   1.000  N
  N11      1.0000 0.93650  0.51560  0.69453  Biso   1.000  N
  N12      1.0000 0.56350  0.01560  0.80547  Biso   1.000  N
  C1       1.0000 0.90050  0.42980  0.39750  Biso   1.000  C
  C2       1.0000 0.59950  0.92980  0.10250  Biso   1.000  C
  C3       1.0000 0.09950  0.57020  0.60250  Biso   1.000  C
  C4       1.0000 0.40050  0.07020  0.89750  Biso   1.000  C
  C5       1.0000 0.79500  0.44030  0.45800  Biso   1.000  C
  C6       1.0000 0.70500  0.94030  0.04200  Biso   1.000  C
  C7       1.0000 0.20500  0.55970  0.54200  Biso   1.000  C
  C8       1.0000 0.29500  0.05970  0.95800  Biso   1.000  C
  H1       1.0000 0.75107  0.37554  0.48277  Biso   1.000  H
  H2       1.0000 0.74893  0.87554  0.01723  Biso   1.000  H
  H3       1.0000 0.24893  0.62446  0.51723  Biso   1.000  H
  H4       1.0000 0.25107  0.12446  0.98277  Biso   1.000  H
  C9       1.0000 0.75960  0.55070  0.47890  Biso   1.000  C
  C10      1.0000 0.74040  0.05070  0.02110  Biso   1.000  C
  C11      1.0000 0.24040  0.44930  0.52110  Biso   1.000  C
  C12      1.0000 0.25960  0.94930  0.97890  Biso   1.000  C
  H5       1.0000 0.68927  0.56268  0.52015  Biso   1.000  H
  H6       1.0000 0.81073  0.06268  0.97985  Biso   1.000  H
  H7       1.0000 0.31073  0.43732  0.47985  Biso   1.000  H
  H8       1.0000 0.18927  0.93732  0.02015  Biso   1.000  H
  C13      1.0000 0.82400  0.64760  0.44140  Biso   1.000  C
  C14      1.0000 0.67600  0.14760  0.05860  Biso   1.000  C
  C15      1.0000 0.17600  0.35240  0.55860  Biso   1.000  C
  C16      1.0000 0.32400  0.85240  0.94140  Biso   1.000  C
  H9       1.0000 0.79586  0.72230  0.45833  Biso   1.000  H
  H10      1.0000 0.70414  0.22230  0.04167  Biso   1.000  H
  H11      1.0000 0.20414  0.27770  0.54167  Biso   1.000  H
  H12      1.0000 0.29586  0.77770  0.95833  Biso   1.000  H
  C17      1.0000 0.92560  0.63630  0.38130  Biso   1.000  C
  C18      1.0000 0.57440  0.13630  0.11870  Biso   1.000  C
  C19      1.0000 0.07440  0.36370  0.61870  Biso   1.000  C
  C20      1.0000 0.42560  0.86370  0.88130  Biso   1.000  C
  H13      1.0000 0.96782  0.70135  0.35570  Biso   1.000  H
  H14      1.0000 0.53218  0.20135  0.14430  Biso   1.000  H
  H15      1.0000 0.03218  0.29865  0.64430  Biso   1.000  H
  H16      1.0000 0.46782  0.79865  0.85570  Biso   1.000  H
  C21      1.0000 0.96430  0.52410  0.35960  Biso   1.000  C
  C22      1.0000 0.53570  0.02410  0.14040  Biso   1.000  C
  C23      1.0000 0.03570  0.47590  0.64040  Biso   1.000  C
  C24      1.0000 0.46430  0.97590  0.85960  Biso   1.000  C
  C25      1.0000 0.94160  0.21570  0.38140  Biso   1.000  C
  C26      1.0000 0.55840  0.71570  0.11860  Biso   1.000  C
  C27      1.0000 0.05840  0.78430  0.61860  Biso   1.000  C
  C28      1.0000 0.44160  0.28430  0.88140  Biso   1.000  C
  H17      1.0000 0.86281  0.18777  0.34016  Biso   1.000  H
  H18      1.0000 0.63719  0.68777  0.15984  Biso   1.000  H
  H19      1.0000 0.13719  0.81223  0.65984  Biso   1.000  H
  H20      1.0000 0.36281  0.31223  0.84016  Biso   1.000  H
  H21      1.0000 0.91693  0.20613  0.44344  Biso   1.000  H
  H22      1.0000 0.58307  0.70613  0.05656  Biso   1.000  H
  H23      1.0000 0.08307  0.79387  0.55656  Biso   1.000  H
  H24      1.0000 0.41693  0.29387  0.94344  Biso   1.000  H
  H25      1.0000 0.02812  0.17176  0.37239  Biso   1.000  H
  H26      1.0000 0.47188  0.67176  0.12761  Biso   1.000  H
  H27      1.0000 0.97188  0.82824  0.62761  Biso   1.000  H
  H28      1.0000 0.52812  0.32824  0.87239  Biso   1.000  H
  N13      1.0000 0.65160  0.41850  0.20440  Biso   1.000  N
  N14      1.0000 0.84840  0.91850  0.29560  Biso   1.000  N
  N15      1.0000 0.34840  0.58150  0.79560  Biso   1.000  N
  N16      1.0000 0.15160  0.08150  0.70440  Biso   1.000  N
  C29      1.0000 0.74790  0.42090  0.16240  Biso   1.000  C
  C30      1.0000 0.75210  0.92090  0.33760  Biso   1.000  C
  C31      1.0000 0.25210  0.57910  0.83760  Biso   1.000  C
  C32      1.0000 0.24790  0.07910  0.66240  Biso   1.000  C
  C33      1.0000 0.87030  0.42340  0.10830  Biso   1.000  C
  C34      1.0000 0.62970  0.92340  0.39170  Biso   1.000  C
  C35      1.0000 0.12970  0.57660  0.89170  Biso   1.000  C
  C36      1.0000 0.37030  0.07660  0.60830  Biso   1.000  C
  H29      1.0000 0.93061  0.35612  0.12243  Biso   1.000  H
  H30      1.0000 0.56939  0.85612  0.37757  Biso   1.000  H
  H31      1.0000 0.06939  0.64388  0.87757  Biso   1.000  H
  H32      1.0000 0.43061  0.14388  0.62243  Biso   1.000  H
  H33      1.0000 0.92566  0.49345  0.12162  Biso   1.000  H
  H34      1.0000 0.57434  0.99345  0.37838  Biso   1.000  H
  H35      1.0000 0.07434  0.50655  0.87838  Biso   1.000  H
  H36      1.0000 0.42566  0.00655  0.62162  Biso   1.000  H
  H37      1.0000 0.83672  0.42216  0.04451  Biso   1.000  H
  H38      1.0000 0.66328  0.92216  0.45549  Biso   1.000  H
  H39      1.0000 0.16328  0.57784  0.95549  Biso   1.000  H
  H40      1.0000 0.33672  0.07784  0.54451  Biso   1.000  H
