data_image0
_cell_length_a       8.157
_cell_length_b       18.634
_cell_length_c       11.613
_cell_angle_alpha    90
_cell_angle_beta     90
_cell_angle_gamma    90

_symmetry_space_group_name_H-M    "P 1"
_symmetry_int_tables_number       1

loop_
  _symmetry_equiv_pos_as_xyz
  'x, y, z'

loop_
  _atom_site_label
  _atom_site_occupancy
  _atom_site_fract_x
  _atom_site_fract_y
  _atom_site_fract_z
  _atom_site_thermal_displace_type
  _atom_site_B_iso_or_equiv
  _atom_site_type_symbol
  Cu1      1.0000 0.00000  0.50000  0.75000  Biso   1.000  Cu
  Cu2      1.0000 0.50000  0.00000  0.75000  Biso   1.000  Cu
  Cu3      1.0000 0.00000  0.50000  0.25000  Biso   1.000  Cu
  Cu4      1.0000 0.50000  0.00000  0.25000  Biso   1.000  Cu
  N1       1.0000 0.87360  0.42880  0.16160  Biso   1.000  N
  N2       1.0000 0.12640  0.57120  0.16160  Biso   1.000  N
  N3       1.0000 0.87360  0.57120  0.33840  Biso   1.000  N
  N4       1.0000 0.12640  0.42880  0.33840  Biso   1.000  N
  N5       1.0000 0.37360  0.92880  0.16160  Biso   1.000  N
  N6       1.0000 0.62640  0.07120  0.16160  Biso   1.000  N
  N7       1.0000 0.37360  0.07120  0.33840  Biso   1.000  N
  N8       1.0000 0.62640  0.92880  0.33840  Biso   1.000  N
  N9       1.0000 0.12640  0.57120  0.83840  Biso   1.000  N
  N10      1.0000 0.87360  0.42880  0.83840  Biso   1.000  N
  N11      1.0000 0.12640  0.42880  0.66160  Biso   1.000  N
  N12      1.0000 0.87360  0.57120  0.66160  Biso   1.000  N
  N13      1.0000 0.62640  0.07120  0.83840  Biso   1.000  N
  N14      1.0000 0.37360  0.92880  0.83840  Biso   1.000  N
  N15      1.0000 0.62640  0.92880  0.66160  Biso   1.000  N
  N16      1.0000 0.37360  0.07120  0.66160  Biso   1.000  N
  C1       1.0000 0.83240  0.37650  0.11940  Biso   1.000  C
  C2       1.0000 0.16760  0.62350  0.11940  Biso   1.000  C
  C3       1.0000 0.83240  0.62350  0.38060  Biso   1.000  C
  C4       1.0000 0.16760  0.37650  0.38060  Biso   1.000  C
  C5       1.0000 0.33240  0.87650  0.11940  Biso   1.000  C
  C6       1.0000 0.66760  0.12350  0.11940  Biso   1.000  C
  C7       1.0000 0.33240  0.12350  0.38060  Biso   1.000  C
  C8       1.0000 0.66760  0.87650  0.38060  Biso   1.000  C
  C9       1.0000 0.16760  0.62350  0.88060  Biso   1.000  C
  C10      1.0000 0.83240  0.37650  0.88060  Biso   1.000  C
  C11      1.0000 0.16760  0.37650  0.61940  Biso   1.000  C
  C12      1.0000 0.83240  0.62350  0.61940  Biso   1.000  C
  C13      1.0000 0.66760  0.12350  0.88060  Biso   1.000  C
  C14      1.0000 0.33240  0.87650  0.88060  Biso   1.000  C
  C15      1.0000 0.66760  0.87650  0.61940  Biso   1.000  C
  C16      1.0000 0.33240  0.12350  0.61940  Biso   1.000  C
  C17      1.0000 0.78770  0.31180  0.05970  Biso   1.000  C
  C18      1.0000 0.21230  0.68820  0.05970  Biso   1.000  C
  C19      1.0000 0.78770  0.68820  0.44030  Biso   1.000  C
  C20      1.0000 0.21230  0.31180  0.44030  Biso   1.000  C
  C21      1.0000 0.28770  0.81180  0.05970  Biso   1.000  C
  C22      1.0000 0.71230  0.18820  0.05970  Biso   1.000  C
  C23      1.0000 0.28770  0.18820  0.44030  Biso   1.000  C
  C24      1.0000 0.71230  0.81180  0.44030  Biso   1.000  C
  C25      1.0000 0.21230  0.68820  0.94030  Biso   1.000  C
  C26      1.0000 0.78770  0.31180  0.94030  Biso   1.000  C
  C27      1.0000 0.21230  0.31180  0.55970  Biso   1.000  C
  C28      1.0000 0.78770  0.68820  0.55970  Biso   1.000  C
  C29      1.0000 0.71230  0.18820  0.94030  Biso   1.000  C
  C30      1.0000 0.28770  0.81180  0.94030  Biso   1.000  C
  C31      1.0000 0.71230  0.81180  0.55970  Biso   1.000  C
  C32      1.0000 0.28770  0.18820  0.55970  Biso   1.000  C
  C33      1.0000 0.75000  0.25000  0.12160  Biso   1.000  C
  C34      1.0000 0.25000  0.75000  0.12160  Biso   1.000  C
  C35      1.0000 0.75000  0.75000  0.37840  Biso   1.000  C
  C36      1.0000 0.25000  0.25000  0.37840  Biso   1.000  C
  C37      1.0000 0.25000  0.75000  0.87840  Biso   1.000  C
  C38      1.0000 0.75000  0.25000  0.87840  Biso   1.000  C
  C39      1.0000 0.25000  0.25000  0.62160  Biso   1.000  C
  C40      1.0000 0.75000  0.75000  0.62160  Biso   1.000  C
  P1       1.0000 0.25000  0.25000  0.00000  Biso   1.000  P
  P2       1.0000 0.75000  0.75000  0.00000  Biso   1.000  P
  P3       1.0000 0.25000  0.75000  0.50000  Biso   1.000  P
  P4       1.0000 0.75000  0.25000  0.50000  Biso   1.000  P
  F1       1.0000 0.16080  0.29560  0.09560  Biso   1.000  F
  F2       1.0000 0.83920  0.70440  0.09560  Biso   1.000  F
  F3       1.0000 0.16080  0.70440  0.40440  Biso   1.000  F
  F4       1.0000 0.83920  0.29560  0.40440  Biso   1.000  F
  F5       1.0000 0.66080  0.79560  0.09560  Biso   1.000  F
  F6       1.0000 0.33920  0.20440  0.09560  Biso   1.000  F
  F7       1.0000 0.66080  0.20440  0.40440  Biso   1.000  F
  F8       1.0000 0.33920  0.79560  0.40440  Biso   1.000  F
  F9       1.0000 0.83920  0.70440  0.90440  Biso   1.000  F
  F10      1.0000 0.16080  0.29560  0.90440  Biso   1.000  F
  F11      1.0000 0.83920  0.29560  0.59560  Biso   1.000  F
  F12      1.0000 0.16080  0.70440  0.59560  Biso   1.000  F
  F13      1.0000 0.33920  0.20440  0.90440  Biso   1.000  F
  F14      1.0000 0.66080  0.79560  0.90440  Biso   1.000  F
  F15      1.0000 0.33920  0.79560  0.59560  Biso   1.000  F
  F16      1.0000 0.66080  0.20440  0.59560  Biso   1.000  F
  F17      1.0000 0.09950  0.19820  0.00000  Biso   1.000  F
  F18      1.0000 0.90050  0.80180  0.00000  Biso   1.000  F
  F19      1.0000 0.09950  0.80180  0.50000  Biso   1.000  F
  F20      1.0000 0.90050  0.19820  0.50000  Biso   1.000  F
  F21      1.0000 0.59950  0.69820  0.00000  Biso   1.000  F
  F22      1.0000 0.40050  0.30180  0.00000  Biso   1.000  F
  F23      1.0000 0.59950  0.30180  0.50000  Biso   1.000  F
  F24      1.0000 0.40050  0.69820  0.50000  Biso   1.000  F
  F25      1.0000 0.12500  0.22910  0.09650  Biso   1.000  F
  F26      1.0000 0.87500  0.77090  0.09650  Biso   1.000  F
  F27      1.0000 0.12500  0.77090  0.40350  Biso   1.000  F
  F28      1.0000 0.87500  0.22910  0.40350  Biso   1.000  F
  F29      1.0000 0.62500  0.72910  0.09650  Biso   1.000  F
  F30      1.0000 0.37500  0.27090  0.09650  Biso   1.000  F
  F31      1.0000 0.62500  0.27090  0.40350  Biso   1.000  F
  F32      1.0000 0.37500  0.72910  0.40350  Biso   1.000  F
  F33      1.0000 0.87500  0.77090  0.90350  Biso   1.000  F
  F34      1.0000 0.12500  0.22910  0.90350  Biso   1.000  F
  F35      1.0000 0.87500  0.22910  0.59650  Biso   1.000  F
  F36      1.0000 0.12500  0.77090  0.59650  Biso   1.000  F
  F37      1.0000 0.37500  0.27090  0.90350  Biso   1.000  F
  F38      1.0000 0.62500  0.72910  0.90350  Biso   1.000  F
  F39      1.0000 0.37500  0.72910  0.59650  Biso   1.000  F
  F40      1.0000 0.62500  0.27090  0.59650  Biso   1.000  F
  F41      1.0000 0.16600  0.32740  0.00000  Biso   1.000  F
  F42      1.0000 0.83400  0.67260  0.00000  Biso   1.000  F
  F43      1.0000 0.16600  0.67260  0.50000  Biso   1.000  F
  F44      1.0000 0.83400  0.32740  0.50000  Biso   1.000  F
  F45      1.0000 0.66600  0.82740  0.00000  Biso   1.000  F
  F46      1.0000 0.33400  0.17260  0.00000  Biso   1.000  F
  F47      1.0000 0.66600  0.17260  0.50000  Biso   1.000  F
  F48      1.0000 0.33400  0.82740  0.50000  Biso   1.000  F
  H1       1.0000 0.75000  0.25000  0.20170  Biso   1.000  H
  H2       1.0000 0.25000  0.75000  0.20170  Biso   1.000  H
  H3       1.0000 0.75000  0.75000  0.29830  Biso   1.000  H
  H4       1.0000 0.25000  0.25000  0.29830  Biso   1.000  H
  H5       1.0000 0.25000  0.75000  0.79830  Biso   1.000  H
  H6       1.0000 0.75000  0.25000  0.79830  Biso   1.000  H
  H7       1.0000 0.25000  0.25000  0.70170  Biso   1.000  H
  H8       1.0000 0.75000  0.75000  0.70170  Biso   1.000  H
