data_image0
_cell_length_a       21.617
_cell_length_b       11.127
_cell_length_c       16.294
_cell_angle_alpha    90
_cell_angle_beta     111.61
_cell_angle_gamma    90

_symmetry_space_group_name_H-M    "P 1"
_symmetry_int_tables_number       1

loop_
  _symmetry_equiv_pos_as_xyz
  'x, y, z'

loop_
  _atom_site_label
  _atom_site_occupancy
  _atom_site_fract_x
  _atom_site_fract_y
  _atom_site_fract_z
  _atom_site_thermal_displace_type
  _atom_site_B_iso_or_equiv
  _atom_site_type_symbol
  Cu1      1.0000 0.97536  0.00637  0.67789  Biso   1.000  Cu
  Cu2      1.0000 0.02464  0.50637  0.82211  Biso   1.000  Cu
  Cu3      1.0000 0.02464  0.99363  0.32211  Biso   1.000  Cu
  Cu4      1.0000 0.97536  0.49363  0.17789  Biso   1.000  Cu
  Cu5      1.0000 0.52029  0.00792  0.69666  Biso   1.000  Cu
  Cu6      1.0000 0.47971  0.50792  0.80334  Biso   1.000  Cu
  Cu7      1.0000 0.47971  0.99208  0.30334  Biso   1.000  Cu
  Cu8      1.0000 0.52029  0.49208  0.19666  Biso   1.000  Cu
  C1       1.0000 0.82370  0.33470  0.74370  Biso   1.000  C
  C2       1.0000 0.17630  0.83470  0.75630  Biso   1.000  C
  C3       1.0000 0.17630  0.66530  0.25630  Biso   1.000  C
  C4       1.0000 0.82370  0.16530  0.24370  Biso   1.000  C
  C5       1.0000 0.82050  0.20760  0.73750  Biso   1.000  C
  C6       1.0000 0.17950  0.70760  0.76250  Biso   1.000  C
  C7       1.0000 0.17950  0.79240  0.26250  Biso   1.000  C
  C8       1.0000 0.82050  0.29240  0.23750  Biso   1.000  C
  C9       1.0000 0.76210  0.14910  0.72180  Biso   1.000  C
  C10      1.0000 0.23790  0.64910  0.77820  Biso   1.000  C
  C11      1.0000 0.23790  0.85090  0.27820  Biso   1.000  C
  C12      1.0000 0.76210  0.35090  0.22180  Biso   1.000  C
  C13      1.0000 0.70510  0.21480  0.71070  Biso   1.000  C
  C14      1.0000 0.29490  0.71480  0.78930  Biso   1.000  C
  C15      1.0000 0.29490  0.78520  0.28930  Biso   1.000  C
  C16      1.0000 0.70510  0.28520  0.21070  Biso   1.000  C
  C17      1.0000 0.70700  0.34060  0.71310  Biso   1.000  C
  C18      1.0000 0.29300  0.84060  0.78690  Biso   1.000  C
  C19      1.0000 0.29300  0.65940  0.28690  Biso   1.000  C
  C20      1.0000 0.70700  0.15940  0.21310  Biso   1.000  C
  C21      1.0000 0.76640  0.39990  0.73210  Biso   1.000  C
  C22      1.0000 0.23360  0.89990  0.76790  Biso   1.000  C
  C23      1.0000 0.23360  0.60010  0.26790  Biso   1.000  C
  C24      1.0000 0.76640  0.10010  0.23210  Biso   1.000  C
  C25      1.0000 0.88670  0.39410  0.76260  Biso   1.000  C
  C26      1.0000 0.11330  0.89410  0.73740  Biso   1.000  C
  C27      1.0000 0.11330  0.60590  0.23740  Biso   1.000  C
  C28      1.0000 0.88670  0.10590  0.26260  Biso   1.000  C
  N1       1.0000 0.93770  0.43590  0.78070  Biso   1.000  N
  N2       1.0000 0.06230  0.93590  0.71930  Biso   1.000  N
  N3       1.0000 0.06230  0.56410  0.21930  Biso   1.000  N
  N4       1.0000 0.93770  0.06410  0.28070  Biso   1.000  N
  C29      1.0000 0.87950  0.14150  0.74140  Biso   1.000  C
  C30      1.0000 0.12050  0.64150  0.75860  Biso   1.000  C
  C31      1.0000 0.12050  0.85850  0.25860  Biso   1.000  C
  C32      1.0000 0.87950  0.35850  0.24140  Biso   1.000  C
  N5       1.0000 0.92470  0.08930  0.74010  Biso   1.000  N
  N6       1.0000 0.07530  0.58930  0.75990  Biso   1.000  N
  N7       1.0000 0.07530  0.91070  0.25990  Biso   1.000  N
  N8       1.0000 0.92470  0.41070  0.24010  Biso   1.000  N
  C33      1.0000 0.64310  0.15190  0.69440  Biso   1.000  C
  C34      1.0000 0.35690  0.65190  0.80560  Biso   1.000  C
  C35      1.0000 0.35690  0.84810  0.30560  Biso   1.000  C
  C36      1.0000 0.64310  0.34810  0.19440  Biso   1.000  C
  N9       1.0000 0.59410  0.10360  0.68280  Biso   1.000  N
  N10      1.0000 0.40590  0.60360  0.81720  Biso   1.000  N
  N11      1.0000 0.40590  0.89640  0.31720  Biso   1.000  N
  N12      1.0000 0.59410  0.39640  0.18280  Biso   1.000  N
  C37      1.0000 0.64600  0.40650  0.69980  Biso   1.000  C
  C38      1.0000 0.35400  0.90650  0.80020  Biso   1.000  C
  C39      1.0000 0.35400  0.59350  0.30020  Biso   1.000  C
  C40      1.0000 0.64600  0.09350  0.19980  Biso   1.000  C
  N13      1.0000 0.59690  0.45510  0.68590  Biso   1.000  N
  N14      1.0000 0.40310  0.95510  0.81410  Biso   1.000  N
  N15      1.0000 0.40310  0.54490  0.31410  Biso   1.000  N
  N16      1.0000 0.59690  0.04490  0.18590  Biso   1.000  N
  C41      1.0000 0.79180  0.79800  0.50980  Biso   1.000  C
  C42      1.0000 0.20820  0.29800  0.99020  Biso   1.000  C
  C43      1.0000 0.20820  0.20200  0.49020  Biso   1.000  C
  C44      1.0000 0.79180  0.70200  0.00980  Biso   1.000  C
  C45      1.0000 0.79150  0.67310  0.50590  Biso   1.000  C
  C46      1.0000 0.20850  0.17310  0.99410  Biso   1.000  C
  C47      1.0000 0.20850  0.32690  0.49410  Biso   1.000  C
  C48      1.0000 0.79150  0.82690  0.00590  Biso   1.000  C
  C49      1.0000 0.73400  0.61270  0.45850  Biso   1.000  C
  C50      1.0000 0.26600  0.11270  0.04150  Biso   1.000  C
  C51      1.0000 0.26600  0.38730  0.54150  Biso   1.000  C
  C52      1.0000 0.73400  0.88730  0.95850  Biso   1.000  C
  C53      1.0000 0.67620  0.67610  0.41640  Biso   1.000  C
  C54      1.0000 0.32380  0.17610  0.08360  Biso   1.000  C
  C55      1.0000 0.32380  0.32390  0.58360  Biso   1.000  C
  C56      1.0000 0.67620  0.82390  0.91640  Biso   1.000  C
  C57      1.0000 0.67570  0.80180  0.42250  Biso   1.000  C
  C58      1.0000 0.32430  0.30180  0.07750  Biso   1.000  C
  C59      1.0000 0.32430  0.19820  0.57750  Biso   1.000  C
  C60      1.0000 0.67570  0.69820  0.92250  Biso   1.000  C
  C61      1.0000 0.73380  0.86290  0.46920  Biso   1.000  C
  C62      1.0000 0.26620  0.36290  0.03080  Biso   1.000  C
  C63      1.0000 0.26620  0.13710  0.53080  Biso   1.000  C
  C64      1.0000 0.73380  0.63710  0.96920  Biso   1.000  C
  N17      1.0000 0.90200  0.90850  0.59420  Biso   1.000  N
  N18      1.0000 0.09800  0.40850  0.90580  Biso   1.000  N
  N19      1.0000 0.09800  0.09150  0.40580  Biso   1.000  N
  N20      1.0000 0.90200  0.59150  0.09420  Biso   1.000  N
  C65      1.0000 0.85380  0.86080  0.55760  Biso   1.000  C
  C66      1.0000 0.14620  0.36080  0.94240  Biso   1.000  C
  C67      1.0000 0.14620  0.13920  0.44240  Biso   1.000  C
  C68      1.0000 0.85380  0.63920  0.05760  Biso   1.000  C
  C69      1.0000 0.85180  0.60670  0.55110  Biso   1.000  C
  C70      1.0000 0.14820  0.10670  0.94890  Biso   1.000  C
  C71      1.0000 0.14820  0.39330  0.44890  Biso   1.000  C
  C72      1.0000 0.85180  0.89330  0.05110  Biso   1.000  C
  N21      1.0000 0.90110  0.55690  0.58540  Biso   1.000  N
  N22      1.0000 0.09890  0.05690  0.91460  Biso   1.000  N
  N23      1.0000 0.09890  0.44310  0.41460  Biso   1.000  N
  N24      1.0000 0.90110  0.94310  0.08540  Biso   1.000  N
  C73      1.0000 0.61670  0.61470  0.36000  Biso   1.000  C
  C74      1.0000 0.38330  0.11470  0.14000  Biso   1.000  C
  C75      1.0000 0.38330  0.38530  0.64000  Biso   1.000  C
  C76      1.0000 0.61670  0.88530  0.86000  Biso   1.000  C
  N25      1.0000 0.57100  0.56750  0.31180  Biso   1.000  N
  N26      1.0000 0.42900  0.06750  0.18820  Biso   1.000  N
  N27      1.0000 0.42900  0.43250  0.68820  Biso   1.000  N
  N28      1.0000 0.57100  0.93250  0.81180  Biso   1.000  N
  C77      1.0000 0.61460  0.86850  0.37940  Biso   1.000  C
  C78      1.0000 0.38540  0.36850  0.12060  Biso   1.000  C
  C79      1.0000 0.38540  0.13150  0.62060  Biso   1.000  C
  C80      1.0000 0.61460  0.63150  0.87940  Biso   1.000  C
  N29      1.0000 0.56550  0.91670  0.34750  Biso   1.000  N
  N30      1.0000 0.43450  0.41670  0.15250  Biso   1.000  N
  N31      1.0000 0.43450  0.08330  0.65250  Biso   1.000  N
  N32      1.0000 0.56550  0.58330  0.84750  Biso   1.000  N
  O1       1.0000 0.50820  0.85670  0.61330  Biso   1.000  O
  O2       1.0000 0.49180  0.35670  0.88670  Biso   1.000  O
  O3       1.0000 0.49180  0.14330  0.38670  Biso   1.000  O
  O4       1.0000 0.50820  0.64330  0.11330  Biso   1.000  O
  C81      1.0000 0.53850  0.83630  0.55370  Biso   1.000  C
  C82      1.0000 0.46150  0.33630  0.94630  Biso   1.000  C
  C83      1.0000 0.46150  0.16370  0.44630  Biso   1.000  C
  C84      1.0000 0.53850  0.66370  0.05370  Biso   1.000  C
  C85      1.0000 0.52720  0.71140  0.52060  Biso   1.000  C
  C86      1.0000 0.47280  0.21140  0.97940  Biso   1.000  C
  C87      1.0000 0.47280  0.28860  0.47940  Biso   1.000  C
  C88      1.0000 0.52720  0.78860  0.02060  Biso   1.000  C
  C89      1.0000 0.47200  0.67040  0.54840  Biso   1.000  C
  C90      1.0000 0.52800  0.17040  0.95160  Biso   1.000  C
  C91      1.0000 0.52800  0.32960  0.45160  Biso   1.000  C
  C92      1.0000 0.47200  0.82960  0.04840  Biso   1.000  C
  C93      1.0000 0.47750  0.75040  0.62200  Biso   1.000  C
  C94      1.0000 0.52250  0.25040  0.87800  Biso   1.000  C
  C95      1.0000 0.52250  0.24960  0.37800  Biso   1.000  C
  C96      1.0000 0.47750  0.74960  0.12200  Biso   1.000  C
  O5       1.0000 0.98940  0.15270  0.60330  Biso   1.000  O
  O6       1.0000 0.01060  0.65270  0.89670  Biso   1.000  O
  O7       1.0000 0.01060  0.84730  0.39670  Biso   1.000  O
  O8       1.0000 0.98940  0.34730  0.10330  Biso   1.000  O
  C97      1.0000 0.96090  0.17110  0.51350  Biso   1.000  C
  C98      1.0000 0.03910  0.67110  0.98650  Biso   1.000  C
  C99      1.0000 0.03910  0.82890  0.48650  Biso   1.000  C
  C100     1.0000 0.96090  0.32890  0.01350  Biso   1.000  C
  C101     1.0000 0.97260  0.29310  0.49080  Biso   1.000  C
  C102     1.0000 0.02740  0.79310  0.00920  Biso   1.000  C
  C103     1.0000 0.02740  0.70690  0.50920  Biso   1.000  C
  C104     1.0000 0.97260  0.20690  0.99080  Biso   1.000  C
  C105     1.0000 0.02560  0.33970  0.57290  Biso   1.000  C
  C106     1.0000 0.97440  0.83970  0.92710  Biso   1.000  C
  C107     1.0000 0.97440  0.66030  0.42710  Biso   1.000  C
  C108     1.0000 0.02560  0.16030  0.07290  Biso   1.000  C
  C109     1.0000 0.02330  0.25650  0.64050  Biso   1.000  C
  C110     1.0000 0.97670  0.75650  0.85950  Biso   1.000  C
  C111     1.0000 0.97670  0.74350  0.35950  Biso   1.000  C
  C112     1.0000 0.02330  0.24350  0.14050  Biso   1.000  C
  P1       1.0000 0.24565  0.22460  0.27234  Biso   1.000  P
  P2       1.0000 0.75435  0.72460  0.22766  Biso   1.000  P
  P3       1.0000 0.75435  0.77540  0.72766  Biso   1.000  P
  P4       1.0000 0.24565  0.27540  0.77234  Biso   1.000  P
  F1       1.0000 0.27430  0.12950  0.34680  Biso   1.000  F
  F2       1.0000 0.72570  0.62950  0.15320  Biso   1.000  F
  F3       1.0000 0.72570  0.87050  0.65320  Biso   1.000  F
  F4       1.0000 0.27430  0.37050  0.84680  Biso   1.000  F
  F5       1.0000 0.23040  0.32010  0.19940  Biso   1.000  F
  F6       1.0000 0.76960  0.82010  0.30060  Biso   1.000  F
  F7       1.0000 0.76960  0.67990  0.80060  Biso   1.000  F
  F8       1.0000 0.23040  0.17990  0.69940  Biso   1.000  F
  F9       1.0000 0.31190  0.19500  0.25880  Biso   1.000  F
  F10      1.0000 0.68810  0.69500  0.24120  Biso   1.000  F
  F11      1.0000 0.68810  0.80500  0.74120  Biso   1.000  F
  F12      1.0000 0.31190  0.30500  0.75880  Biso   1.000  F
  F13      1.0000 0.21080  0.13070  0.20030  Biso   1.000  F
  F14      1.0000 0.78920  0.63070  0.29970  Biso   1.000  F
  F15      1.0000 0.78920  0.86930  0.79970  Biso   1.000  F
  F16      1.0000 0.21080  0.36930  0.70030  Biso   1.000  F
  F17      1.0000 0.18040  0.22400  0.28960  Biso   1.000  F
  F18      1.0000 0.81960  0.72400  0.21040  Biso   1.000  F
  F19      1.0000 0.81960  0.77600  0.71040  Biso   1.000  F
  F20      1.0000 0.18040  0.27600  0.78960  Biso   1.000  F
  F21      1.0000 0.27270  0.32270  0.34450  Biso   1.000  F
  F22      1.0000 0.72730  0.82270  0.15550  Biso   1.000  F
  F23      1.0000 0.72730  0.67730  0.65550  Biso   1.000  F
  F24      1.0000 0.27270  0.17730  0.84450  Biso   1.000  F
  F25      1.0000 0.29390  0.24700  0.36930  Biso   1.000  F
  F26      1.0000 0.70610  0.74700  0.13070  Biso   1.000  F
  F27      1.0000 0.70610  0.75300  0.63070  Biso   1.000  F
  F28      1.0000 0.29390  0.25300  0.86930  Biso   1.000  F
  F29      1.0000 0.19710  0.31860  0.28940  Biso   1.000  F
  F30      1.0000 0.80290  0.81860  0.21060  Biso   1.000  F
  F31      1.0000 0.80290  0.68140  0.71060  Biso   1.000  F
  F32      1.0000 0.19710  0.18140  0.78940  Biso   1.000  F
  F33      1.0000 0.28690  0.12530  0.24800  Biso   1.000  F
  F34      1.0000 0.71310  0.62530  0.25200  Biso   1.000  F
  F35      1.0000 0.71310  0.87470  0.75200  Biso   1.000  F
  F36      1.0000 0.28690  0.37470  0.74800  Biso   1.000  F
  F37      1.0000 0.28890  0.31950  0.25060  Biso   1.000  F
  F38      1.0000 0.71110  0.81950  0.24940  Biso   1.000  F
  F39      1.0000 0.71110  0.68050  0.74940  Biso   1.000  F
  F40      1.0000 0.28890  0.18050  0.75060  Biso   1.000  F
  F41      1.0000 0.20930  0.12950  0.30800  Biso   1.000  F
  F42      1.0000 0.79070  0.62950  0.19200  Biso   1.000  F
  F43      1.0000 0.79070  0.87050  0.69200  Biso   1.000  F
  F44      1.0000 0.20930  0.37050  0.80800  Biso   1.000  F
  F45      1.0000 0.19850  0.22700  0.17410  Biso   1.000  F
  F46      1.0000 0.80150  0.72700  0.32590  Biso   1.000  F
  F47      1.0000 0.80150  0.77300  0.82590  Biso   1.000  F
  F48      1.0000 0.19850  0.27300  0.67410  Biso   1.000  F
  P5       1.0000 0.74379  0.23690  0.46971  Biso   1.000  P
  P6       1.0000 0.25621  0.73690  0.03029  Biso   1.000  P
  P7       1.0000 0.25621  0.76310  0.53029  Biso   1.000  P
  P8       1.0000 0.74379  0.26310  0.96971  Biso   1.000  P
  F49      1.0000 0.76700  0.13840  0.42020  Biso   1.000  F
  F50      1.0000 0.23300  0.63840  0.07980  Biso   1.000  F
  F51      1.0000 0.23300  0.86160  0.57980  Biso   1.000  F
  F52      1.0000 0.76700  0.36160  0.92020  Biso   1.000  F
  F53      1.0000 0.72930  0.33530  0.52600  Biso   1.000  F
  F54      1.0000 0.27070  0.83530  0.97400  Biso   1.000  F
  F55      1.0000 0.27070  0.66470  0.47400  Biso   1.000  F
  F56      1.0000 0.72930  0.16470  0.02600  Biso   1.000  F
  F57      1.0000 0.80840  0.20500  0.54990  Biso   1.000  F
  F58      1.0000 0.19160  0.70500  0.95010  Biso   1.000  F
  F59      1.0000 0.19160  0.79500  0.45010  Biso   1.000  F
  F60      1.0000 0.80840  0.29500  0.04990  Biso   1.000  F
  F61      1.0000 0.78130  0.32910  0.43220  Biso   1.000  F
  F62      1.0000 0.21870  0.82910  0.06780  Biso   1.000  F
  F63      1.0000 0.21870  0.67090  0.56780  Biso   1.000  F
  F64      1.0000 0.78130  0.17090  0.93220  Biso   1.000  F
  F65      1.0000 0.68170  0.25900  0.38690  Biso   1.000  F
  F66      1.0000 0.31830  0.75900  0.11310  Biso   1.000  F
  F67      1.0000 0.31830  0.74100  0.61310  Biso   1.000  F
  F68      1.0000 0.68170  0.24100  0.88690  Biso   1.000  F
  F69      1.0000 0.70660  0.14700  0.50970  Biso   1.000  F
  F70      1.0000 0.29340  0.64700  0.99030  Biso   1.000  F
  F71      1.0000 0.29340  0.85300  0.49030  Biso   1.000  F
  F72      1.0000 0.70660  0.35300  0.00970  Biso   1.000  F
  F73      1.0000 0.79080  0.24100  0.41760  Biso   1.000  F
  F74      1.0000 0.20920  0.74100  0.08240  Biso   1.000  F
  F75      1.0000 0.20920  0.75900  0.58240  Biso   1.000  F
  F76      1.0000 0.79080  0.25900  0.91760  Biso   1.000  F
  F77      1.0000 0.78370  0.13790  0.53480  Biso   1.000  F
  F78      1.0000 0.21630  0.63790  0.96520  Biso   1.000  F
  F79      1.0000 0.21630  0.86210  0.46520  Biso   1.000  F
  F80      1.0000 0.78370  0.36210  0.03480  Biso   1.000  F
  F81      1.0000 0.78570  0.33150  0.53490  Biso   1.000  F
  F82      1.0000 0.21430  0.83150  0.96510  Biso   1.000  F
  F83      1.0000 0.21430  0.66850  0.46510  Biso   1.000  F
  F84      1.0000 0.78570  0.16850  0.03490  Biso   1.000  F
  F85      1.0000 0.69850  0.33080  0.40480  Biso   1.000  F
  F86      1.0000 0.30150  0.83080  0.09520  Biso   1.000  F
  F87      1.0000 0.30150  0.66920  0.59520  Biso   1.000  F
  F88      1.0000 0.69850  0.16920  0.90480  Biso   1.000  F
  F89      1.0000 0.70220  0.13840  0.40430  Biso   1.000  F
  F90      1.0000 0.29780  0.63840  0.09570  Biso   1.000  F
  F91      1.0000 0.29780  0.86160  0.59570  Biso   1.000  F
  F92      1.0000 0.70220  0.36160  0.90430  Biso   1.000  F
  F93      1.0000 0.69460  0.23700  0.52000  Biso   1.000  F
  F94      1.0000 0.30540  0.73700  0.98000  Biso   1.000  F
  F95      1.0000 0.30540  0.76300  0.48000  Biso   1.000  F
  F96      1.0000 0.69460  0.26300  0.02000  Biso   1.000  F
