data_image0
_cell_length_a       10.29
_cell_length_b       11.102
_cell_length_c       17.022
_cell_angle_alpha    82.3
_cell_angle_beta     88.41
_cell_angle_gamma    69.13

_symmetry_space_group_name_H-M    "P 1"
_symmetry_int_tables_number       1

loop_
  _symmetry_equiv_pos_as_xyz
  'x, y, z'

loop_
  _atom_site_label
  _atom_site_occupancy
  _atom_site_fract_x
  _atom_site_fract_y
  _atom_site_fract_z
  _atom_site_thermal_displace_type
  _atom_site_B_iso_or_equiv
  _atom_site_type_symbol
  Cu1      1.0000 0.62191  0.96567  0.31269  Biso   1.000  Cu
  Cu2      1.0000 0.37809  0.03433  0.68731  Biso   1.000  Cu
  Cu3      1.0000 0.48138  0.80971  0.32121  Biso   1.000  Cu
  Cu4      1.0000 0.51862  0.19029  0.67879  Biso   1.000  Cu
  Cu5      1.0000 0.70958  0.73607  0.41395  Biso   1.000  Cu
  Cu6      1.0000 0.29042  0.26393  0.58605  Biso   1.000  Cu
  Cu7      1.0000 0.46933  0.93752  0.44019  Biso   1.000  Cu
  Cu8      1.0000 0.53067  0.06248  0.55981  Biso   1.000  Cu
  Cu9      1.0000 0.90442  0.34612  0.07744  Biso   1.000  Cu
  Cu10     1.0000 0.09558  0.65388  0.92256  Biso   1.000  Cu
  Cu11     1.0000 0.86494  0.41477  0.91942  Biso   1.000  Cu
  Cu12     1.0000 0.13506  0.58523  0.08058  Biso   1.000  Cu
  Cu13     1.0000 0.10040  0.41270  0.95610  Biso   1.000  Cu
  Cu14     1.0000 0.89960  0.58730  0.04390  Biso   1.000  Cu
  Cu15     1.0000 0.10880  0.41740  0.92850  Biso   1.000  Cu
  Cu16     1.0000 0.89120  0.58260  0.07150  Biso   1.000  Cu
  Cu17     1.0000 0.10660  0.39720  0.00840  Biso   1.000  Cu
  Cu18     1.0000 0.89340  0.60280  0.99160  Biso   1.000  Cu
  I1       1.0000 0.73792  0.73654  0.25724  Biso   1.000  I
  I2       1.0000 0.26208  0.26346  0.74276  Biso   1.000  I
  I3       1.0000 0.34833  0.07235  0.29983  Biso   1.000  I
  I4       1.0000 0.65167  0.92765  0.70017  Biso   1.000  I
  I5       1.0000 0.72274  0.95802  0.45853  Biso   1.000  I
  I6       1.0000 0.27726  0.04198  0.54147  Biso   1.000  I
  I7       1.0000 0.48544  0.68759  0.46836  Biso   1.000  I
  I8       1.0000 0.51456  0.31241  0.53164  Biso   1.000  I
  I9       1.0000 0.07282  0.19339  0.98057  Biso   1.000  I
  I10      1.0000 0.92718  0.80661  0.01943  Biso   1.000  I
  I11      1.0000 0.67610  0.55039  0.01672  Biso   1.000  I
  I12      1.0000 0.32390  0.44961  0.98328  Biso   1.000  I
  I13      1.0000 0.04869  0.42043  0.17402  Biso   1.000  I
  I14      1.0000 0.95131  0.57957  0.82598  Biso   1.000  I
  N1       1.0000 0.70820  0.08700  0.24270  Biso   1.000  N
  N2       1.0000 0.29180  0.91300  0.75730  Biso   1.000  N
  N3       1.0000 0.81740  0.22900  0.15210  Biso   1.000  N
  N4       1.0000 0.18260  0.77100  0.84790  Biso   1.000  N
  N5       1.0000 0.37320  0.73860  0.25000  Biso   1.000  N
  N6       1.0000 0.62680  0.26140  0.75000  Biso   1.000  N
  N7       1.0000 0.24090  0.65100  0.15700  Biso   1.000  N
  N8       1.0000 0.75910  0.34900  0.84300  Biso   1.000  N
  N9       1.0000 0.88850  0.59150  0.46780  Biso   1.000  N
  N10      1.0000 0.11150  0.40850  0.53220  Biso   1.000  N
  C1       1.0000 0.66420  0.21660  0.26680  Biso   1.000  C
  C2       1.0000 0.33580  0.78340  0.73320  Biso   1.000  C
  H1       1.0000 0.69240  0.21000  0.32160  Biso   1.000  H
  H2       1.0000 0.30760  0.79000  0.67840  Biso   1.000  H
  H3       1.0000 0.56360  0.25620  0.26300  Biso   1.000  H
  H4       1.0000 0.43640  0.74380  0.73700  Biso   1.000  H
  C3       1.0000 0.73070  0.30410  0.21260  Biso   1.000  C
  C4       1.0000 0.26930  0.69590  0.78740  Biso   1.000  C
  H5       1.0000 0.65780  0.38050  0.18660  Biso   1.000  H
  H6       1.0000 0.34220  0.61950  0.81340  Biso   1.000  H
  H7       1.0000 0.78760  0.33280  0.24470  Biso   1.000  H
  H8       1.0000 0.21240  0.66720  0.75530  Biso   1.000  H
  C5       1.0000 0.66600  0.09680  0.16080  Biso   1.000  C
  C6       1.0000 0.33400  0.90320  0.83920  Biso   1.000  C
  H9       1.0000 0.56520  0.13120  0.15620  Biso   1.000  H
  H10      1.0000 0.43480  0.86880  0.84380  Biso   1.000  H
  H11      1.0000 0.69880  0.01100  0.14410  Biso   1.000  H
  H12      1.0000 0.30120  0.98900  0.85590  Biso   1.000  H
  C7       1.0000 0.72640  0.18810  0.10510  Biso   1.000  C
  C8       1.0000 0.27360  0.81190  0.89490  Biso   1.000  C
  H13      1.0000 0.77890  0.14200  0.06320  Biso   1.000  H
  H14      1.0000 0.22110  0.85800  0.93680  Biso   1.000  H
  H15      1.0000 0.65090  0.26380  0.08080  Biso   1.000  H
  H16      1.0000 0.34910  0.73620  0.91920  Biso   1.000  H
  C9       1.0000 0.86010  0.03150  0.24740  Biso   1.000  C
  C10      1.0000 0.13990  0.96850  0.75260  Biso   1.000  C
  H17      1.0000 0.89090  0.94390  0.23340  Biso   1.000  H
  H18      1.0000 0.10910  0.05610  0.76660  Biso   1.000  H
  H19      1.0000 0.89060  0.02580  0.30160  Biso   1.000  H
  H20      1.0000 0.10940  0.97420  0.69840  Biso   1.000  H
  C11      1.0000 0.92750  0.11120  0.19300  Biso   1.000  C
  C12      1.0000 0.07250  0.88880  0.80700  Biso   1.000  C
  H21      1.0000 0.98880  0.13710  0.22370  Biso   1.000  H
  H22      1.0000 0.01120  0.86290  0.77630  Biso   1.000  H
  H23      1.0000 0.98260  0.05930  0.15410  Biso   1.000  H
  H24      1.0000 0.01740  0.94070  0.84590  Biso   1.000  H
  C13      1.0000 0.22660  0.76810  0.27330  Biso   1.000  C
  C14      1.0000 0.77340  0.23190  0.72670  Biso   1.000  C
  H25      1.0000 0.18090  0.86150  0.27170  Biso   1.000  H
  H26      1.0000 0.81910  0.13850  0.72830  Biso   1.000  H
  H27      1.0000 0.22370  0.72810  0.32720  Biso   1.000  H
  H28      1.0000 0.77630  0.27190  0.67280  Biso   1.000  H
  C15      1.0000 0.14810  0.71800  0.21790  Biso   1.000  C
  C16      1.0000 0.85190  0.28200  0.78210  Biso   1.000  C
  H29      1.0000 0.11080  0.65810  0.24880  Biso   1.000  H
  H30      1.0000 0.88920  0.34190  0.75120  Biso   1.000  H
  H31      1.0000 0.07070  0.79040  0.19220  Biso   1.000  H
  H32      1.0000 0.92930  0.20960  0.80780  Biso   1.000  H
  C17      1.0000 0.43990  0.59750  0.25160  Biso   1.000  C
  C18      1.0000 0.56010  0.40250  0.74840  Biso   1.000  C
  H33      1.0000 0.44240  0.55520  0.30550  Biso   1.000  H
  H34      1.0000 0.55760  0.44480  0.69450  Biso   1.000  H
  H35      1.0000 0.53510  0.57720  0.23420  Biso   1.000  H
  H36      1.0000 0.46490  0.42280  0.76580  Biso   1.000  H
  C19      1.0000 0.36070  0.54430  0.19710  Biso   1.000  C
  C20      1.0000 0.63930  0.45570  0.80290  Biso   1.000  C
  H37      1.0000 0.42320  0.50050  0.15770  Biso   1.000  H
  H38      1.0000 0.57680  0.49950  0.84230  Biso   1.000  H
  H39      1.0000 0.32820  0.48140  0.22840  Biso   1.000  H
  H40      1.0000 0.67180  0.51860  0.77160  Biso   1.000  H
  C21      1.0000 0.37170  0.80070  0.16640  Biso   1.000  C
  C22      1.0000 0.62830  0.19930  0.83360  Biso   1.000  C
  H41      1.0000 0.46640  0.78290  0.14890  Biso   1.000  H
  H42      1.0000 0.53360  0.21710  0.85110  Biso   1.000  H
  H43      1.0000 0.32610  0.89420  0.16360  Biso   1.000  H
  H44      1.0000 0.67390  0.10580  0.83640  Biso   1.000  H
  C23      1.0000 0.29480  0.74830  0.11200  Biso   1.000  C
  C24      1.0000 0.70520  0.25170  0.88800  Biso   1.000  C
  H45      1.0000 0.21770  0.82000  0.08560  Biso   1.000  H
  H46      1.0000 0.78230  0.18000  0.91440  Biso   1.000  H
  H47      1.0000 0.35750  0.70780  0.07170  Biso   1.000  H
  H48      1.0000 0.64250  0.29220  0.92830  Biso   1.000  H
  C25      1.0000 0.98600  0.52400  0.40810  Biso   1.000  C
  C26      1.0000 0.01400  0.47600  0.59190  Biso   1.000  C
  C27      1.0000 0.89000  0.46700  0.44140  Biso   1.000  C
  C28      1.0000 0.11000  0.53300  0.55860  Biso   1.000  C
  C29      1.0000 0.97800  0.64800  0.51390  Biso   1.000  C
  C30      1.0000 0.02200  0.35200  0.48610  Biso   1.000  C
  C31      1.0000 0.00790  0.61490  0.43530  Biso   1.000  C
  C32      1.0000 0.99210  0.38510  0.56470  Biso   1.000  C
  C33      1.0000 0.85800  0.49600  0.52650  Biso   1.000  C
  C34      1.0000 0.14200  0.50400  0.47350  Biso   1.000  C
  C35      1.0000 0.87500  0.59200  0.55360  Biso   1.000  C
  C36      1.0000 0.12500  0.40800  0.44640  Biso   1.000  C
