data_image0
_cell_length_a       30.693
_cell_length_b       3.6405
_cell_length_c       6.0918
_cell_angle_alpha    90
_cell_angle_beta     90
_cell_angle_gamma    90

_symmetry_space_group_name_H-M    "P 1"
_symmetry_int_tables_number       1

loop_
  _symmetry_equiv_pos_as_xyz
  'x, y, z'

loop_
  _atom_site_label
  _atom_site_occupancy
  _atom_site_fract_x
  _atom_site_fract_y
  _atom_site_fract_z
  _atom_site_thermal_displace_type
  _atom_site_B_iso_or_equiv
  _atom_site_type_symbol
  Cu1      1.0000 0.50000  0.50000  0.15350  Biso   1.000  Cu
  Cu2      1.0000 0.00000  0.00000  0.84650  Biso   1.000  Cu
  Cl1      1.0000 0.50000  0.00000  0.40440  Biso   1.000  Cl
  Cl2      1.0000 0.00000  0.50000  0.59560  Biso   1.000  Cl
  N1       1.0000 0.44110  0.47240  0.01030  Biso   1.000  N
  N2       1.0000 0.55890  0.52760  0.01030  Biso   1.000  N
  N3       1.0000 0.05890  0.97240  0.98970  Biso   1.000  N
  N4       1.0000 0.94110  0.02760  0.98970  Biso   1.000  N
  C1       1.0000 0.40690  0.36500  0.12770  Biso   1.000  C
  C2       1.0000 0.59310  0.63500  0.12770  Biso   1.000  C
  C3       1.0000 0.09310  0.86500  0.87230  Biso   1.000  C
  C4       1.0000 0.90690  0.13500  0.87230  Biso   1.000  C
  H1       1.0000 0.41160  0.26570  0.26630  Biso   1.000  H
  H2       1.0000 0.58840  0.73430  0.26630  Biso   1.000  H
  H3       1.0000 0.08840  0.76570  0.73370  Biso   1.000  H
  H4       1.0000 0.91160  0.23430  0.73370  Biso   1.000  H
  C5       1.0000 0.36430  0.39540  0.05140  Biso   1.000  C
  C6       1.0000 0.63570  0.60460  0.05140  Biso   1.000  C
  C7       1.0000 0.13570  0.89540  0.94860  Biso   1.000  C
  C8       1.0000 0.86430  0.10460  0.94860  Biso   1.000  C
  N5       1.0000 0.35570  0.54460  0.85330  Biso   1.000  N
  N6       1.0000 0.64430  0.45540  0.85330  Biso   1.000  N
  N7       1.0000 0.14430  0.04460  0.14670  Biso   1.000  N
  N8       1.0000 0.85570  0.95540  0.14670  Biso   1.000  N
  C9       1.0000 0.39010  0.63990  0.73330  Biso   1.000  C
  C10      1.0000 0.60990  0.36010  0.73330  Biso   1.000  C
  C11      1.0000 0.10990  0.13990  0.26670  Biso   1.000  C
  C12      1.0000 0.89010  0.86010  0.26670  Biso   1.000  C
  H5       1.0000 0.38570  0.73180  0.59260  Biso   1.000  H
  H6       1.0000 0.61430  0.26820  0.59260  Biso   1.000  H
  H7       1.0000 0.11430  0.23180  0.40740  Biso   1.000  H
  H8       1.0000 0.88570  0.76820  0.40740  Biso   1.000  H
  C13      1.0000 0.43280  0.60580  0.81250  Biso   1.000  C
  C14      1.0000 0.56720  0.39420  0.81250  Biso   1.000  C
  C15      1.0000 0.06720  0.10580  0.18750  Biso   1.000  C
  C16      1.0000 0.93280  0.89420  0.18750  Biso   1.000  C
  H9       1.0000 0.45590  0.67890  0.72380  Biso   1.000  H
  H10      1.0000 0.54410  0.32110  0.72380  Biso   1.000  H
  H11      1.0000 0.04410  0.17890  0.27620  Biso   1.000  H
  H12      1.0000 0.95590  0.82110  0.27620  Biso   1.000  H
  C17      1.0000 0.32680  0.27420  0.18640  Biso   1.000  C
  C18      1.0000 0.67320  0.72580  0.18640  Biso   1.000  C
  C19      1.0000 0.17320  0.77420  0.81360  Biso   1.000  C
  C20      1.0000 0.82680  0.22580  0.81360  Biso   1.000  C
  O1       1.0000 0.33293  0.10090  0.35880  Biso   1.000  O
  O2       1.0000 0.66707  0.89910  0.35880  Biso   1.000  O
  O3       1.0000 0.16707  0.60090  0.64120  Biso   1.000  O
  O4       1.0000 0.83293  0.39910  0.64120  Biso   1.000  O
  O5       1.0000 0.28930  0.38330  0.11380  Biso   1.000  O
  O6       1.0000 0.71070  0.61670  0.11380  Biso   1.000  O
  O7       1.0000 0.21070  0.88330  0.88620  Biso   1.000  O
  O8       1.0000 0.78930  0.11670  0.88620  Biso   1.000  O
  H13      1.0000 0.26610  0.33800  0.17180  Biso   1.000  H
  H14      1.0000 0.73390  0.66200  0.17180  Biso   1.000  H
  H15      1.0000 0.23390  0.83800  0.82820  Biso   1.000  H
  H16      1.0000 0.76610  0.16200  0.82820  Biso   1.000  H
  O9       1.0000 0.22580  0.19650  0.34550  Biso   1.000  O
  O10      1.0000 0.77420  0.80350  0.34550  Biso   1.000  O
  O11      1.0000 0.27420  0.69650  0.65450  Biso   1.000  O
  O12      1.0000 0.72580  0.30350  0.65450  Biso   1.000  O
  H17      1.0000 0.21760  0.38600  0.40450  Biso   1.000  H
  H18      1.0000 0.78240  0.61400  0.40450  Biso   1.000  H
  H19      1.0000 0.28240  0.88600  0.59550  Biso   1.000  H
  H20      1.0000 0.71760  0.11400  0.59550  Biso   1.000  H
  H21      1.0000 0.20550  0.10560  0.27770  Biso   1.000  H
  H22      1.0000 0.79450  0.89440  0.27770  Biso   1.000  H
  H23      1.0000 0.29450  0.60560  0.72230  Biso   1.000  H
  H24      1.0000 0.70550  0.39440  0.72230  Biso   1.000  H
