data_image0
_cell_length_a       12.9124
_cell_length_b       20.7944
_cell_length_c       4.4457
_cell_angle_alpha    90
_cell_angle_beta     90
_cell_angle_gamma    90

_symmetry_space_group_name_H-M    "P 1"
_symmetry_int_tables_number       1

loop_
  _symmetry_equiv_pos_as_xyz
  'x, y, z'

loop_
  _atom_site_label
  _atom_site_occupancy
  _atom_site_fract_x
  _atom_site_fract_y
  _atom_site_fract_z
  _atom_site_thermal_displace_type
  _atom_site_B_iso_or_equiv
  _atom_site_type_symbol
  I1       1.0000 0.86789  0.95951  0.65334  Biso   1.000  I
  I2       1.0000 0.13211  0.04049  0.15334  Biso   1.000  I
  I3       1.0000 0.36789  0.54049  0.65334  Biso   1.000  I
  I4       1.0000 0.63211  0.45951  0.15334  Biso   1.000  I
  Cu1      1.0000 0.06762  0.97669  0.65490  Biso   1.000  Cu
  Cu2      1.0000 0.93238  0.02331  0.15490  Biso   1.000  Cu
  Cu3      1.0000 0.56762  0.52331  0.65490  Biso   1.000  Cu
  Cu4      1.0000 0.43238  0.47669  0.15490  Biso   1.000  Cu
  S1       1.0000 0.17628  0.88951  0.68950  Biso   1.000  S
  S2       1.0000 0.82372  0.11049  0.18950  Biso   1.000  S
  S3       1.0000 0.67628  0.61049  0.68950  Biso   1.000  S
  S4       1.0000 0.32372  0.38951  0.18950  Biso   1.000  S
  S5       1.0000 0.01659  0.81675  0.32630  Biso   1.000  S
  S6       1.0000 0.98341  0.18325  0.82630  Biso   1.000  S
  S7       1.0000 0.51659  0.68325  0.32630  Biso   1.000  S
  S8       1.0000 0.48341  0.31675  0.82630  Biso   1.000  S
  S9       1.0000 0.21931  0.76309  0.42280  Biso   1.000  S
  S10      1.0000 0.78069  0.23691  0.92280  Biso   1.000  S
  S11      1.0000 0.71931  0.73691  0.42280  Biso   1.000  S
  S12      1.0000 0.28069  0.26309  0.92280  Biso   1.000  S
  S13      1.0000 0.19367  0.64978  0.02740  Biso   1.000  S
  S14      1.0000 0.80633  0.35022  0.52740  Biso   1.000  S
  S15      1.0000 0.69367  0.85022  0.02740  Biso   1.000  S
  S16      1.0000 0.30633  0.14978  0.52740  Biso   1.000  S
  S17      1.0000 0.94158  0.70776  0.94530  Biso   1.000  S
  S18      1.0000 0.05842  0.29224  0.44530  Biso   1.000  S
  S19      1.0000 0.44158  0.79224  0.94530  Biso   1.000  S
  S20      1.0000 0.55842  0.20776  0.44530  Biso   1.000  S
  O1       1.0000 0.99270  0.55090  0.80070  Biso   1.000  O
  O2       1.0000 0.00730  0.44910  0.30070  Biso   1.000  O
  O3       1.0000 0.49270  0.94910  0.80070  Biso   1.000  O
  O4       1.0000 0.50730  0.05090  0.30070  Biso   1.000  O
  C1       1.0000 0.13790  0.82710  0.48440  Biso   1.000  C
  C2       1.0000 0.86210  0.17290  0.98440  Biso   1.000  C
  C3       1.0000 0.63790  0.67290  0.48440  Biso   1.000  C
  C4       1.0000 0.36210  0.32710  0.98440  Biso   1.000  C
  C5       1.0000 0.04200  0.74330  0.15150  Biso   1.000  C
  C6       1.0000 0.95800  0.25670  0.65150  Biso   1.000  C
  C7       1.0000 0.54200  0.75670  0.15150  Biso   1.000  C
  C8       1.0000 0.45800  0.24330  0.65150  Biso   1.000  C
  C9       1.0000 0.13830  0.71830  0.19480  Biso   1.000  C
  C10      1.0000 0.86170  0.28170  0.69480  Biso   1.000  C
  C11      1.0000 0.63830  0.78170  0.19480  Biso   1.000  C
  C12      1.0000 0.36170  0.21830  0.69480  Biso   1.000  C
  C13      1.0000 0.92940  0.63000  0.13500  Biso   1.000  C
  C14      1.0000 0.07060  0.37000  0.63500  Biso   1.000  C
  C15      1.0000 0.42940  0.87000  0.13500  Biso   1.000  C
  C16      1.0000 0.57060  0.13000  0.63500  Biso   1.000  C
  C17      1.0000 0.00960  0.58410  0.01950  Biso   1.000  C
  C18      1.0000 0.99040  0.41590  0.51950  Biso   1.000  C
  C19      1.0000 0.50960  0.91590  0.01950  Biso   1.000  C
  C20      1.0000 0.49040  0.08410  0.51950  Biso   1.000  C
  C21      1.0000 0.11410  0.58360  0.17380  Biso   1.000  C
  C22      1.0000 0.88590  0.41640  0.67380  Biso   1.000  C
  C23      1.0000 0.61410  0.91640  0.17380  Biso   1.000  C
  C24      1.0000 0.38590  0.08360  0.67380  Biso   1.000  C
  H1       1.0000 0.93480  0.63730  0.34100  Biso   1.000  H
  H2       1.0000 0.06520  0.36270  0.84100  Biso   1.000  H
  H3       1.0000 0.43480  0.86270  0.34100  Biso   1.000  H
  H4       1.0000 0.56520  0.13730  0.84100  Biso   1.000  H
  H5       1.0000 0.12110  0.58880  0.41100  Biso   1.000  H
  H6       1.0000 0.87890  0.41120  0.91100  Biso   1.000  H
  H7       1.0000 0.62110  0.91120  0.41100  Biso   1.000  H
  H8       1.0000 0.37890  0.08880  0.91100  Biso   1.000  H
  H9       1.0000 0.14910  0.54970  0.11300  Biso   1.000  H
  H10      1.0000 0.85090  0.45030  0.61300  Biso   1.000  H
  H11      1.0000 0.64910  0.95030  0.11300  Biso   1.000  H
  H12      1.0000 0.35090  0.04970  0.61300  Biso   1.000  H
  H13      1.0000 0.86590  0.62040  0.08500  Biso   1.000  H
  H14      1.0000 0.13410  0.37960  0.58500  Biso   1.000  H
  H15      1.0000 0.36590  0.87960  0.08500  Biso   1.000  H
  H16      1.0000 0.63410  0.12040  0.58500  Biso   1.000  H
