data_image0
_cell_length_a       17.3571
_cell_length_b       17.3571
_cell_length_c       3.8268
_cell_angle_alpha    90
_cell_angle_beta     90
_cell_angle_gamma    90

_symmetry_space_group_name_H-M    "P 1"
_symmetry_int_tables_number       1

loop_
  _symmetry_equiv_pos_as_xyz
  'x, y, z'

loop_
  _atom_site_label
  _atom_site_occupancy
  _atom_site_fract_x
  _atom_site_fract_y
  _atom_site_fract_z
  _atom_site_thermal_displace_type
  _atom_site_B_iso_or_equiv
  _atom_site_type_symbol
  Cu1      1.0000 0.35223  0.23384  0.05246  Biso   1.000  Cu
  Cu2      1.0000 0.76616  0.85223  0.55246  Biso   1.000  Cu
  Cu3      1.0000 0.73384  0.64777  0.55246  Biso   1.000  Cu
  Cu4      1.0000 0.14777  0.26616  0.05246  Biso   1.000  Cu
  Cu5      1.0000 0.64777  0.76616  0.94754  Biso   1.000  Cu
  Cu6      1.0000 0.23384  0.14777  0.44754  Biso   1.000  Cu
  Cu7      1.0000 0.26616  0.35223  0.44754  Biso   1.000  Cu
  Cu8      1.0000 0.85223  0.73384  0.94754  Biso   1.000  Cu
  S1       1.0000 0.29828  0.11539  0.94226  Biso   1.000  S
  S2       1.0000 0.88461  0.79828  0.44226  Biso   1.000  S
  S3       1.0000 0.61539  0.70172  0.44226  Biso   1.000  S
  S4       1.0000 0.20172  0.38461  0.94226  Biso   1.000  S
  S5       1.0000 0.70172  0.88461  0.05774  Biso   1.000  S
  S6       1.0000 0.11539  0.20172  0.55774  Biso   1.000  S
  S7       1.0000 0.38461  0.29828  0.55774  Biso   1.000  S
  S8       1.0000 0.79828  0.61539  0.05774  Biso   1.000  S
  C1       1.0000 0.32484  0.01976  0.83072  Biso   1.000  C
  C2       1.0000 0.98024  0.82484  0.33072  Biso   1.000  C
  C3       1.0000 0.51976  0.67516  0.33072  Biso   1.000  C
  C4       1.0000 0.17516  0.48024  0.83072  Biso   1.000  C
  C5       1.0000 0.67516  0.98024  0.16928  Biso   1.000  C
  C6       1.0000 0.01976  0.17516  0.66928  Biso   1.000  C
  C7       1.0000 0.48024  0.32484  0.66928  Biso   1.000  C
  C8       1.0000 0.82484  0.51976  0.16928  Biso   1.000  C
  C9       1.0000 0.28221  0.95796  0.95707  Biso   1.000  C
  C10      1.0000 0.04204  0.78221  0.45707  Biso   1.000  C
  C11      1.0000 0.45796  0.71779  0.45707  Biso   1.000  C
  C12      1.0000 0.21779  0.54204  0.95707  Biso   1.000  C
  C13      1.0000 0.71779  0.04204  0.04293  Biso   1.000  C
  C14      1.0000 0.95796  0.21779  0.54293  Biso   1.000  C
  C15      1.0000 0.54204  0.28221  0.54293  Biso   1.000  C
  C16      1.0000 0.78221  0.45796  0.04293  Biso   1.000  C
  C17      1.0000 0.30028  0.88334  0.85366  Biso   1.000  C
  C18      1.0000 0.11666  0.80028  0.35366  Biso   1.000  C
  C19      1.0000 0.38334  0.69972  0.35366  Biso   1.000  C
  C20      1.0000 0.19972  0.61666  0.85366  Biso   1.000  C
  C21      1.0000 0.69972  0.11666  0.14634  Biso   1.000  C
  C22      1.0000 0.88334  0.19972  0.64634  Biso   1.000  C
  C23      1.0000 0.61666  0.30028  0.64634  Biso   1.000  C
  C24      1.0000 0.80028  0.38334  0.14634  Biso   1.000  C
  C25      1.0000 0.36128  0.87050  0.62527  Biso   1.000  C
  C26      1.0000 0.12950  0.86128  0.12527  Biso   1.000  C
  C27      1.0000 0.37050  0.63872  0.12527  Biso   1.000  C
  C28      1.0000 0.13872  0.62950  0.62527  Biso   1.000  C
  C29      1.0000 0.63872  0.12950  0.37473  Biso   1.000  C
  C30      1.0000 0.87050  0.13872  0.87473  Biso   1.000  C
  C31      1.0000 0.62950  0.36128  0.87473  Biso   1.000  C
  C32      1.0000 0.86128  0.37050  0.37473  Biso   1.000  C
  C33      1.0000 0.40488  0.93217  0.50453  Biso   1.000  C
  C34      1.0000 0.06783  0.90488  0.00453  Biso   1.000  C
  C35      1.0000 0.43217  0.59512  0.00453  Biso   1.000  C
  C36      1.0000 0.09512  0.56783  0.50453  Biso   1.000  C
  C37      1.0000 0.59512  0.06783  0.49547  Biso   1.000  C
  C38      1.0000 0.93217  0.09512  0.99547  Biso   1.000  C
  C39      1.0000 0.56783  0.40488  0.99547  Biso   1.000  C
  C40      1.0000 0.90488  0.43217  0.49547  Biso   1.000  C
  C41      1.0000 0.38691  0.00677  0.60849  Biso   1.000  C
  C42      1.0000 0.99323  0.88691  0.10849  Biso   1.000  C
  C43      1.0000 0.50677  0.61309  0.10849  Biso   1.000  C
  C44      1.0000 0.11309  0.49323  0.60849  Biso   1.000  C
  C45      1.0000 0.61309  0.99323  0.39151  Biso   1.000  C
  C46      1.0000 0.00677  0.11309  0.89151  Biso   1.000  C
  C47      1.0000 0.49323  0.38691  0.89151  Biso   1.000  C
  C48      1.0000 0.88691  0.50677  0.39151  Biso   1.000  C
  H1       1.0000 0.23939  0.96692  0.11060  Biso   1.000  H
  H2       1.0000 0.03308  0.73939  0.61060  Biso   1.000  H
  H3       1.0000 0.46692  0.76061  0.61060  Biso   1.000  H
  H4       1.0000 0.26061  0.53308  0.11060  Biso   1.000  H
  H5       1.0000 0.76061  0.03308  0.88940  Biso   1.000  H
  H6       1.0000 0.96692  0.26061  0.38940  Biso   1.000  H
  H7       1.0000 0.53308  0.23939  0.38940  Biso   1.000  H
  H8       1.0000 0.73939  0.46692  0.88940  Biso   1.000  H
  H9       1.0000 0.27020  0.84074  0.93729  Biso   1.000  H
  H10      1.0000 0.15926  0.77020  0.43729  Biso   1.000  H
  H11      1.0000 0.34074  0.72980  0.43729  Biso   1.000  H
  H12      1.0000 0.22980  0.65926  0.93729  Biso   1.000  H
  H13      1.0000 0.72980  0.15926  0.06271  Biso   1.000  H
  H14      1.0000 0.84074  0.22980  0.56271  Biso   1.000  H
  H15      1.0000 0.65926  0.27020  0.56271  Biso   1.000  H
  H16      1.0000 0.77020  0.34074  0.06271  Biso   1.000  H
  H17      1.0000 0.37377  0.81896  0.55391  Biso   1.000  H
  H18      1.0000 0.18104  0.87377  0.05391  Biso   1.000  H
  H19      1.0000 0.31896  0.62623  0.05391  Biso   1.000  H
  H20      1.0000 0.12623  0.68104  0.55391  Biso   1.000  H
  H21      1.0000 0.62623  0.18104  0.44609  Biso   1.000  H
  H22      1.0000 0.81896  0.12623  0.94609  Biso   1.000  H
  H23      1.0000 0.68104  0.37377  0.94609  Biso   1.000  H
  H24      1.0000 0.87377  0.31896  0.44609  Biso   1.000  H
  H25      1.0000 0.44749  0.92323  0.34970  Biso   1.000  H
  H26      1.0000 0.07677  0.94749  0.84970  Biso   1.000  H
  H27      1.0000 0.42323  0.55251  0.84970  Biso   1.000  H
  H28      1.0000 0.05251  0.57677  0.34970  Biso   1.000  H
  H29      1.0000 0.55251  0.07677  0.65030  Biso   1.000  H
  H30      1.0000 0.92323  0.05251  0.15030  Biso   1.000  H
  H31      1.0000 0.57677  0.44749  0.15030  Biso   1.000  H
  H32      1.0000 0.94749  0.42323  0.65030  Biso   1.000  H
  H33      1.0000 0.41659  0.04943  0.52257  Biso   1.000  H
  H34      1.0000 0.95057  0.91659  0.02257  Biso   1.000  H
  H35      1.0000 0.54943  0.58341  0.02257  Biso   1.000  H
  H36      1.0000 0.08341  0.45057  0.52257  Biso   1.000  H
  H37      1.0000 0.58341  0.95057  0.47743  Biso   1.000  H
  H38      1.0000 0.04943  0.08341  0.97743  Biso   1.000  H
  H39      1.0000 0.45057  0.41659  0.97743  Biso   1.000  H
  H40      1.0000 0.91659  0.54943  0.47743  Biso   1.000  H
