data_image0
_cell_length_a       26.1
_cell_length_b       13.6983
_cell_length_c       4.15286
_cell_angle_alpha    90
_cell_angle_beta     95.324
_cell_angle_gamma    90

_symmetry_space_group_name_H-M    "P 1"
_symmetry_int_tables_number       1

loop_
  _symmetry_equiv_pos_as_xyz
  'x, y, z'

loop_
  _atom_site_label
  _atom_site_occupancy
  _atom_site_fract_x
  _atom_site_fract_y
  _atom_site_fract_z
  _atom_site_thermal_displace_type
  _atom_site_B_iso_or_equiv
  _atom_site_type_symbol
  Cu1      1.0000 0.56470  0.46560  0.11870  Biso   1.000  Cu
  Cu2      1.0000 0.93530  0.96560  0.38130  Biso   1.000  Cu
  Cu3      1.0000 0.43530  0.53440  0.88130  Biso   1.000  Cu
  Cu4      1.0000 0.06470  0.03440  0.61870  Biso   1.000  Cu
  S1       1.0000 0.50296  0.35209  0.02020  Biso   1.000  S
  S2       1.0000 0.99704  0.85209  0.47980  Biso   1.000  S
  S3       1.0000 0.49704  0.64791  0.97980  Biso   1.000  S
  S4       1.0000 0.00296  0.14791  0.52020  Biso   1.000  S
  O1       1.0000 0.62162  0.98033  0.15546  Biso   1.000  O
  O2       1.0000 0.87838  0.48033  0.34454  Biso   1.000  O
  O3       1.0000 0.37838  0.01967  0.84454  Biso   1.000  O
  O4       1.0000 0.12162  0.51967  0.65546  Biso   1.000  O
  C1       1.0000 0.53787  0.24037  0.05460  Biso   1.000  C
  C2       1.0000 0.96213  0.74037  0.44540  Biso   1.000  C
  C3       1.0000 0.46213  0.75963  0.94540  Biso   1.000  C
  C4       1.0000 0.03787  0.25963  0.55460  Biso   1.000  C
  C5       1.0000 0.58481  0.23233  0.92373  Biso   1.000  C
  C6       1.0000 0.91519  0.73233  0.57627  Biso   1.000  C
  C7       1.0000 0.41519  0.76767  0.07627  Biso   1.000  C
  C8       1.0000 0.08481  0.26767  0.42373  Biso   1.000  C
  C9       1.0000 0.61306  0.14642  0.96187  Biso   1.000  C
  C10      1.0000 0.88694  0.64642  0.53813  Biso   1.000  C
  C11      1.0000 0.38694  0.85358  0.03813  Biso   1.000  C
  C12      1.0000 0.11306  0.35358  0.46187  Biso   1.000  C
  C13      1.0000 0.59393  0.06792  0.12583  Biso   1.000  C
  C14      1.0000 0.90607  0.56792  0.37417  Biso   1.000  C
  C15      1.0000 0.40607  0.93208  0.87417  Biso   1.000  C
  C16      1.0000 0.09393  0.43208  0.62583  Biso   1.000  C
  C17      1.0000 0.54693  0.07588  0.25606  Biso   1.000  C
  C18      1.0000 0.95307  0.57588  0.24394  Biso   1.000  C
  C19      1.0000 0.45307  0.92412  0.74394  Biso   1.000  C
  C20      1.0000 0.04693  0.42412  0.75606  Biso   1.000  C
  C21      1.0000 0.51867  0.16178  0.21777  Biso   1.000  C
  C22      1.0000 0.98133  0.66178  0.28223  Biso   1.000  C
  C23      1.0000 0.48133  0.83822  0.78223  Biso   1.000  C
  C24      1.0000 0.01867  0.33822  0.71777  Biso   1.000  C
  C25      1.0000 0.59129  0.90693  0.30304  Biso   1.000  C
  C26      1.0000 0.90871  0.40693  0.19696  Biso   1.000  C
  C27      1.0000 0.40871  0.09307  0.69696  Biso   1.000  C
  C28      1.0000 0.09129  0.59307  0.80304  Biso   1.000  C
  H1       1.0000 0.59778  0.28621  0.80770  Biso   1.000  H
  H2       1.0000 0.90222  0.78621  0.69230  Biso   1.000  H
  H3       1.0000 0.40222  0.71379  0.19230  Biso   1.000  H
  H4       1.0000 0.09778  0.21379  0.30770  Biso   1.000  H
  H5       1.0000 0.64601  0.14163  0.87780  Biso   1.000  H
  H6       1.0000 0.85399  0.64163  0.62220  Biso   1.000  H
  H7       1.0000 0.35399  0.85837  0.12220  Biso   1.000  H
  H8       1.0000 0.14601  0.35837  0.37780  Biso   1.000  H
  H9       1.0000 0.53422  0.02240  0.37510  Biso   1.000  H
  H10      1.0000 0.96578  0.52240  0.12490  Biso   1.000  H
  H11      1.0000 0.46578  0.97760  0.62490  Biso   1.000  H
  H12      1.0000 0.03422  0.47760  0.87510  Biso   1.000  H
  H13      1.0000 0.48595  0.16690  0.30460  Biso   1.000  H
  H14      1.0000 0.01405  0.66690  0.19540  Biso   1.000  H
  H15      1.0000 0.51405  0.83310  0.69540  Biso   1.000  H
  H16      1.0000 0.98595  0.33310  0.80460  Biso   1.000  H
  H17      1.0000 0.60933  0.84577  0.31046  Biso   1.000  H
  H18      1.0000 0.89067  0.34577  0.18954  Biso   1.000  H
  H19      1.0000 0.39067  0.15423  0.68954  Biso   1.000  H
  H20      1.0000 0.10933  0.65423  0.81046  Biso   1.000  H
  H21      1.0000 0.58574  0.92679  0.51880  Biso   1.000  H
  H22      1.0000 0.91426  0.42679  0.98120  Biso   1.000  H
  H23      1.0000 0.41426  0.07321  0.48120  Biso   1.000  H
  H24      1.0000 0.08574  0.57321  0.01880  Biso   1.000  H
  H25      1.0000 0.55873  0.89962  0.17761  Biso   1.000  H
  H26      1.0000 0.94127  0.39962  0.32239  Biso   1.000  H
  H27      1.0000 0.44127  0.10038  0.82239  Biso   1.000  H
  H28      1.0000 0.05873  0.60038  0.67761  Biso   1.000  H
  Cu5      1.0000 0.48260  0.40220  0.50830  Biso   1.000  Cu
  Cu6      1.0000 0.01740  0.90220  0.99170  Biso   1.000  Cu
  Cu7      1.0000 0.51740  0.59780  0.49170  Biso   1.000  Cu
  Cu8      1.0000 0.98260  0.09780  0.00830  Biso   1.000  Cu
  S5       1.0000 0.58872  0.50967  0.63270  Biso   1.000  S
  S6       1.0000 0.91128  0.00967  0.86730  Biso   1.000  S
  S7       1.0000 0.41128  0.49033  0.36730  Biso   1.000  S
  S8       1.0000 0.08872  0.99033  0.13270  Biso   1.000  S
  O5       1.0000 0.76788  0.77290  0.95157  Biso   1.000  O
  O6       1.0000 0.73212  0.27290  0.54843  Biso   1.000  O
  O7       1.0000 0.23212  0.22710  0.04843  Biso   1.000  O
  O8       1.0000 0.26788  0.72710  0.45157  Biso   1.000  O
  C29      1.0000 0.64326  0.58678  0.71480  Biso   1.000  C
  C30      1.0000 0.85674  0.08678  0.78520  Biso   1.000  C
  C31      1.0000 0.35674  0.41322  0.28520  Biso   1.000  C
  C32      1.0000 0.14326  0.91322  0.21480  Biso   1.000  C
  C33      1.0000 0.68640  0.55271  0.90280  Biso   1.000  C
  C34      1.0000 0.81360  0.05271  0.59720  Biso   1.000  C
  C35      1.0000 0.31360  0.44729  0.09720  Biso   1.000  C
  C36      1.0000 0.18640  0.94729  0.40280  Biso   1.000  C
  C37      1.0000 0.72827  0.61405  0.97642  Biso   1.000  C
  C38      1.0000 0.77173  0.11405  0.52358  Biso   1.000  C
  C39      1.0000 0.27173  0.38595  0.02358  Biso   1.000  C
  C40      1.0000 0.22827  0.88595  0.47642  Biso   1.000  C
  C41      1.0000 0.72693  0.70955  0.86289  Biso   1.000  C
  C42      1.0000 0.77307  0.20955  0.63711  Biso   1.000  C
  C43      1.0000 0.27307  0.29045  0.13711  Biso   1.000  C
  C44      1.0000 0.22693  0.79045  0.36289  Biso   1.000  C
  C45      1.0000 0.68433  0.74284  0.66813  Biso   1.000  C
  C46      1.0000 0.81567  0.24284  0.83187  Biso   1.000  C
  C47      1.0000 0.31567  0.25716  0.33187  Biso   1.000  C
  C48      1.0000 0.18433  0.75716  0.16813  Biso   1.000  C
  C49      1.0000 0.64233  0.68171  0.59613  Biso   1.000  C
  C50      1.0000 0.85767  0.18171  0.90387  Biso   1.000  C
  C51      1.0000 0.35767  0.31829  0.40387  Biso   1.000  C
  C52      1.0000 0.14233  0.81829  0.09613  Biso   1.000  C
  C53      1.0000 0.75468  0.87055  0.83768  Biso   1.000  C
  C54      1.0000 0.74532  0.37055  0.66232  Biso   1.000  C
  C55      1.0000 0.24532  0.12945  0.16232  Biso   1.000  C
  C56      1.0000 0.25468  0.62945  0.33768  Biso   1.000  C
  H29      1.0000 0.68749  0.48651  0.97890  Biso   1.000  H
  H30      1.0000 0.81251  0.98651  0.52110  Biso   1.000  H
  H31      1.0000 0.31251  0.51349  0.02110  Biso   1.000  H
  H32      1.0000 0.18749  0.01349  0.47890  Biso   1.000  H
  H33      1.0000 0.75792  0.59073  0.10810  Biso   1.000  H
  H34      1.0000 0.74208  0.09073  0.39190  Biso   1.000  H
  H35      1.0000 0.24208  0.40927  0.89190  Biso   1.000  H
  H36      1.0000 0.25792  0.90927  0.60810  Biso   1.000  H
  H37      1.0000 0.68414  0.80770  0.58050  Biso   1.000  H
  H38      1.0000 0.81586  0.30770  0.91950  Biso   1.000  H
  H39      1.0000 0.31586  0.19230  0.41950  Biso   1.000  H
  H40      1.0000 0.18414  0.69230  0.08050  Biso   1.000  H
  H41      1.0000 0.61284  0.70479  0.46240  Biso   1.000  H
  H42      1.0000 0.88716  0.20479  0.03760  Biso   1.000  H
  H43      1.0000 0.38716  0.29521  0.53760  Biso   1.000  H
  H44      1.0000 0.11284  0.79521  0.96240  Biso   1.000  H
  H45      1.0000 0.77933  0.91621  0.93554  Biso   1.000  H
  H46      1.0000 0.72067  0.41621  0.56446  Biso   1.000  H
  H47      1.0000 0.22067  0.08379  0.06446  Biso   1.000  H
  H48      1.0000 0.27933  0.58379  0.43554  Biso   1.000  H
  H49      1.0000 0.75499  0.87293  0.60680  Biso   1.000  H
  H50      1.0000 0.74501  0.37293  0.89320  Biso   1.000  H
  H51      1.0000 0.24501  0.12707  0.39320  Biso   1.000  H
  H52      1.0000 0.25499  0.62707  0.10680  Biso   1.000  H
  H53      1.0000 0.72099  0.88719  0.89526  Biso   1.000  H
  H54      1.0000 0.77901  0.38719  0.60474  Biso   1.000  H
  H55      1.0000 0.27901  0.11281  0.10474  Biso   1.000  H
  H56      1.0000 0.22099  0.61281  0.39526  Biso   1.000  H
