data_image0
_cell_length_a       24.8344
_cell_length_b       14.086
_cell_length_c       4.0298
_cell_angle_alpha    90
_cell_angle_beta     97.989
_cell_angle_gamma    90

_symmetry_space_group_name_H-M    "P 1"
_symmetry_int_tables_number       1

loop_
  _symmetry_equiv_pos_as_xyz
  'x, y, z'

loop_
  _atom_site_label
  _atom_site_occupancy
  _atom_site_fract_x
  _atom_site_fract_y
  _atom_site_fract_z
  _atom_site_thermal_displace_type
  _atom_site_B_iso_or_equiv
  _atom_site_type_symbol
  Cu1      1.0000 0.56381  0.46439  0.04280  Biso   1.000  Cu
  Cu2      1.0000 0.93619  0.96439  0.45720  Biso   1.000  Cu
  Cu3      1.0000 0.43619  0.53561  0.95720  Biso   1.000  Cu
  Cu4      1.0000 0.06381  0.03561  0.54280  Biso   1.000  Cu
  S1       1.0000 0.50224  0.34629  0.01850  Biso   1.000  S
  S2       1.0000 0.99776  0.84629  0.48150  Biso   1.000  S
  S3       1.0000 0.49776  0.65371  0.98150  Biso   1.000  S
  S4       1.0000 0.00224  0.15371  0.51850  Biso   1.000  S
  C1       1.0000 0.53877  0.23990  0.05510  Biso   1.000  C
  C2       1.0000 0.96123  0.73990  0.44490  Biso   1.000  C
  C3       1.0000 0.46123  0.76010  0.94490  Biso   1.000  C
  C4       1.0000 0.03877  0.26010  0.55510  Biso   1.000  C
  C5       1.0000 0.58623  0.23131  0.91070  Biso   1.000  C
  C6       1.0000 0.91377  0.73131  0.58930  Biso   1.000  C
  C7       1.0000 0.41377  0.76869  0.08930  Biso   1.000  C
  C8       1.0000 0.08623  0.26869  0.41070  Biso   1.000  C
  C9       1.0000 0.61479  0.14622  0.93490  Biso   1.000  C
  C10      1.0000 0.88521  0.64622  0.56510  Biso   1.000  C
  C11      1.0000 0.38521  0.85378  0.06510  Biso   1.000  C
  C12      1.0000 0.11479  0.35378  0.43490  Biso   1.000  C
  C13      1.0000 0.59583  0.06963  0.10260  Biso   1.000  C
  C14      1.0000 0.90417  0.56963  0.39740  Biso   1.000  C
  C15      1.0000 0.40417  0.93037  0.89740  Biso   1.000  C
  C16      1.0000 0.09583  0.43037  0.60260  Biso   1.000  C
  C17      1.0000 0.54729  0.07707  0.23560  Biso   1.000  C
  C18      1.0000 0.95271  0.57707  0.26440  Biso   1.000  C
  C19      1.0000 0.45271  0.92293  0.76440  Biso   1.000  C
  C20      1.0000 0.04729  0.42293  0.73560  Biso   1.000  C
  C21      1.0000 0.51924  0.16268  0.21690  Biso   1.000  C
  C22      1.0000 0.98076  0.66268  0.28310  Biso   1.000  C
  C23      1.0000 0.48076  0.83732  0.78310  Biso   1.000  C
  C24      1.0000 0.01924  0.33732  0.71690  Biso   1.000  C
  C25      1.0000 0.62786  0.97568  0.13312  Biso   1.000  C
  C26      1.0000 0.87214  0.47568  0.36688  Biso   1.000  C
  C27      1.0000 0.37214  0.02432  0.86688  Biso   1.000  C
  C28      1.0000 0.12786  0.52432  0.63312  Biso   1.000  C
  H1       1.0000 0.59949  0.28440  0.79640  Biso   1.000  H
  H2       1.0000 0.90051  0.78440  0.70360  Biso   1.000  H
  H3       1.0000 0.40051  0.71560  0.20360  Biso   1.000  H
  H4       1.0000 0.09949  0.21560  0.29640  Biso   1.000  H
  H5       1.0000 0.64808  0.14082  0.84050  Biso   1.000  H
  H6       1.0000 0.85192  0.64082  0.65950  Biso   1.000  H
  H7       1.0000 0.35192  0.85918  0.15950  Biso   1.000  H
  H8       1.0000 0.14808  0.35918  0.34050  Biso   1.000  H
  H9       1.0000 0.53400  0.02394  0.34940  Biso   1.000  H
  H10      1.0000 0.96600  0.52394  0.15060  Biso   1.000  H
  H11      1.0000 0.46600  0.97606  0.65060  Biso   1.000  H
  H12      1.0000 0.03400  0.47606  0.84940  Biso   1.000  H
  H13      1.0000 0.48585  0.16796  0.31020  Biso   1.000  H
  H14      1.0000 0.01415  0.66796  0.18980  Biso   1.000  H
  H15      1.0000 0.51415  0.83204  0.68980  Biso   1.000  H
  H16      1.0000 0.98585  0.33204  0.81020  Biso   1.000  H
  H17      1.0000 0.60343  0.92394  0.15500  Biso   1.000  H
  H18      1.0000 0.89657  0.42394  0.34500  Biso   1.000  H
  H19      1.0000 0.39657  0.07606  0.84500  Biso   1.000  H
  H20      1.0000 0.10343  0.57606  0.65500  Biso   1.000  H
  H21      1.0000 0.65501  0.97789  0.32740  Biso   1.000  H
  H22      1.0000 0.84499  0.47789  0.17260  Biso   1.000  H
  H23      1.0000 0.34499  0.02211  0.67260  Biso   1.000  H
  H24      1.0000 0.15501  0.52211  0.82740  Biso   1.000  H
  H25      1.0000 0.64510  0.96654  0.93660  Biso   1.000  H
  H26      1.0000 0.85490  0.46654  0.56340  Biso   1.000  H
  H27      1.0000 0.35490  0.03346  0.06340  Biso   1.000  H
  H28      1.0000 0.14510  0.53346  0.43660  Biso   1.000  H
  Cu5      1.0000 0.47742  0.40224  0.49700  Biso   1.000  Cu
  Cu6      1.0000 0.02258  0.90224  0.00300  Biso   1.000  Cu
  Cu7      1.0000 0.52258  0.59776  0.50300  Biso   1.000  Cu
  Cu8      1.0000 0.97742  0.09776  0.99700  Biso   1.000  Cu
  S5       1.0000 0.59707  0.50481  0.57140  Biso   1.000  S
  S6       1.0000 0.90293  0.00481  0.92860  Biso   1.000  S
  S7       1.0000 0.40293  0.49519  0.42860  Biso   1.000  S
  S8       1.0000 0.09707  0.99519  0.07140  Biso   1.000  S
  C29      1.0000 0.64863  0.58614  0.69710  Biso   1.000  C
  C30      1.0000 0.85137  0.08614  0.80290  Biso   1.000  C
  C31      1.0000 0.35137  0.41386  0.30290  Biso   1.000  C
  C32      1.0000 0.14863  0.91386  0.19710  Biso   1.000  C
  C33      1.0000 0.64390  0.67927  0.58250  Biso   1.000  C
  C34      1.0000 0.85610  0.17927  0.91750  Biso   1.000  C
  C35      1.0000 0.35610  0.32073  0.41750  Biso   1.000  C
  C36      1.0000 0.14390  0.82073  0.08250  Biso   1.000  C
  C37      1.0000 0.68279  0.74620  0.70470  Biso   1.000  C
  C38      1.0000 0.81721  0.24620  0.79530  Biso   1.000  C
  C39      1.0000 0.31721  0.25380  0.29530  Biso   1.000  C
  C40      1.0000 0.18279  0.75380  0.20470  Biso   1.000  C
  C41      1.0000 0.72601  0.72029  0.94450  Biso   1.000  C
  C42      1.0000 0.77399  0.22029  0.55550  Biso   1.000  C
  C43      1.0000 0.27399  0.27971  0.05550  Biso   1.000  C
  C44      1.0000 0.22601  0.77971  0.44450  Biso   1.000  C
  C45      1.0000 0.73152  0.62665  0.05240  Biso   1.000  C
  C46      1.0000 0.76848  0.12665  0.44760  Biso   1.000  C
  C47      1.0000 0.26848  0.37335  0.94760  Biso   1.000  C
  C48      1.0000 0.23152  0.87335  0.55240  Biso   1.000  C
  C49      1.0000 0.69304  0.55942  0.92680  Biso   1.000  C
  C50      1.0000 0.80696  0.05942  0.57320  Biso   1.000  C
  C51      1.0000 0.30696  0.44058  0.07320  Biso   1.000  C
  C52      1.0000 0.19304  0.94058  0.42680  Biso   1.000  C
  C53      1.0000 0.76621  0.79624  0.10313  Biso   1.000  C
  C54      1.0000 0.73379  0.29624  0.39687  Biso   1.000  C
  C55      1.0000 0.23379  0.20376  0.89687  Biso   1.000  C
  C56      1.0000 0.26621  0.70376  0.60313  Biso   1.000  C
  H29      1.0000 0.61310  0.69786  0.42510  Biso   1.000  H
  H30      1.0000 0.88690  0.19786  0.07490  Biso   1.000  H
  H31      1.0000 0.38690  0.30214  0.57490  Biso   1.000  H
  H32      1.0000 0.11310  0.80214  0.92510  Biso   1.000  H
  H33      1.0000 0.67879  0.81101  0.63180  Biso   1.000  H
  H34      1.0000 0.82121  0.31101  0.86820  Biso   1.000  H
  H35      1.0000 0.32121  0.18899  0.36820  Biso   1.000  H
  H36      1.0000 0.17879  0.68899  0.13180  Biso   1.000  H
  H37      1.0000 0.76131  0.60881  0.21860  Biso   1.000  H
  H38      1.0000 0.73869  0.10881  0.28140  Biso   1.000  H
  H39      1.0000 0.23869  0.39119  0.78140  Biso   1.000  H
  H40      1.0000 0.26131  0.89119  0.71860  Biso   1.000  H
  H41      1.0000 0.69618  0.49523  0.00720  Biso   1.000  H
  H42      1.0000 0.80382  0.99523  0.49280  Biso   1.000  H
  H43      1.0000 0.30382  0.50477  0.99280  Biso   1.000  H
  H44      1.0000 0.19618  0.00477  0.50720  Biso   1.000  H
  H45      1.0000 0.79843  0.76589  0.21340  Biso   1.000  H
  H46      1.0000 0.70157  0.26589  0.28660  Biso   1.000  H
  H47      1.0000 0.20157  0.23411  0.78660  Biso   1.000  H
  H48      1.0000 0.29843  0.73411  0.71340  Biso   1.000  H
  H49      1.0000 0.77567  0.83775  0.93140  Biso   1.000  H
  H50      1.0000 0.72433  0.33775  0.56860  Biso   1.000  H
  H51      1.0000 0.22433  0.16225  0.06860  Biso   1.000  H
  H52      1.0000 0.27567  0.66225  0.43140  Biso   1.000  H
  H53      1.0000 0.74958  0.83240  0.26350  Biso   1.000  H
  H54      1.0000 0.75042  0.33240  0.23650  Biso   1.000  H
  H55      1.0000 0.25042  0.16760  0.73650  Biso   1.000  H
  H56      1.0000 0.24958  0.66760  0.76350  Biso   1.000  H
