data_image0
_cell_length_a       19.727
_cell_length_b       19.727
_cell_length_c       3.9685
_cell_angle_alpha    90
_cell_angle_beta     90
_cell_angle_gamma    90

_symmetry_space_group_name_H-M    "P 1"
_symmetry_int_tables_number       1

loop_
  _symmetry_equiv_pos_as_xyz
  'x, y, z'

loop_
  _atom_site_label
  _atom_site_occupancy
  _atom_site_fract_x
  _atom_site_fract_y
  _atom_site_fract_z
  _atom_site_thermal_displace_type
  _atom_site_B_iso_or_equiv
  _atom_site_type_symbol
  Cu1      1.0000 0.25980  0.34440  0.76170  Biso   1.000  Cu
  Cu2      1.0000 0.65560  0.75980  0.26170  Biso   1.000  Cu
  Cu3      1.0000 0.84440  0.74020  0.26170  Biso   1.000  Cu
  Cu4      1.0000 0.24020  0.15560  0.76170  Biso   1.000  Cu
  Cu5      1.0000 0.74020  0.65560  0.23830  Biso   1.000  Cu
  Cu6      1.0000 0.34440  0.24020  0.73830  Biso   1.000  Cu
  Cu7      1.0000 0.15560  0.25980  0.73830  Biso   1.000  Cu
  Cu8      1.0000 0.75980  0.84440  0.23830  Biso   1.000  Cu
  S1       1.0000 0.21758  0.39324  0.26414  Biso   1.000  S
  S2       1.0000 0.60676  0.71758  0.76414  Biso   1.000  S
  S3       1.0000 0.89324  0.78242  0.76414  Biso   1.000  S
  S4       1.0000 0.28242  0.10676  0.26414  Biso   1.000  S
  S5       1.0000 0.78242  0.60676  0.73586  Biso   1.000  S
  S6       1.0000 0.39324  0.28242  0.23586  Biso   1.000  S
  S7       1.0000 0.10676  0.21758  0.23586  Biso   1.000  S
  S8       1.0000 0.71758  0.89324  0.73586  Biso   1.000  S
  N1       1.0000 0.07360  0.65432  0.04660  Biso   1.000  N
  N2       1.0000 0.34568  0.57360  0.54660  Biso   1.000  N
  N3       1.0000 0.15432  0.92640  0.54660  Biso   1.000  N
  N4       1.0000 0.42640  0.84568  0.04660  Biso   1.000  N
  N5       1.0000 0.92640  0.34568  0.95340  Biso   1.000  N
  N6       1.0000 0.65432  0.42640  0.45340  Biso   1.000  N
  N7       1.0000 0.84568  0.07360  0.45340  Biso   1.000  N
  N8       1.0000 0.57360  0.15432  0.95340  Biso   1.000  N
  O1       1.0000 0.10513  0.70402  0.96800  Biso   1.000  O
  O2       1.0000 0.29598  0.60513  0.46800  Biso   1.000  O
  O3       1.0000 0.20402  0.89487  0.46800  Biso   1.000  O
  O4       1.0000 0.39487  0.79598  0.96800  Biso   1.000  O
  O5       1.0000 0.89487  0.29598  0.03200  Biso   1.000  O
  O6       1.0000 0.70402  0.39487  0.53200  Biso   1.000  O
  O7       1.0000 0.79598  0.10513  0.53200  Biso   1.000  O
  O8       1.0000 0.60513  0.20402  0.03200  Biso   1.000  O
  O9       1.0000 0.01311  0.65721  0.07457  Biso   1.000  O
  O10      1.0000 0.34279  0.51311  0.57457  Biso   1.000  O
  O11      1.0000 0.15721  0.98689  0.57457  Biso   1.000  O
  O12      1.0000 0.48689  0.84279  0.07457  Biso   1.000  O
  O13      1.0000 0.98689  0.34279  0.92543  Biso   1.000  O
  O14      1.0000 0.65721  0.48689  0.42543  Biso   1.000  O
  O15      1.0000 0.84279  0.01311  0.42543  Biso   1.000  O
  O16      1.0000 0.51311  0.15721  0.92543  Biso   1.000  O
  C1       1.0000 0.17480  0.47113  0.20207  Biso   1.000  C
  C2       1.0000 0.52887  0.67480  0.70207  Biso   1.000  C
  C3       1.0000 0.97113  0.82520  0.70207  Biso   1.000  C
  C4       1.0000 0.32520  0.02887  0.20207  Biso   1.000  C
  C5       1.0000 0.82520  0.52887  0.79793  Biso   1.000  C
  C6       1.0000 0.47113  0.32520  0.29793  Biso   1.000  C
  C7       1.0000 0.02887  0.17480  0.29793  Biso   1.000  C
  C8       1.0000 0.67480  0.97113  0.79793  Biso   1.000  C
  C9       1.0000 0.20954  0.52669  0.06994  Biso   1.000  C
  C10      1.0000 0.47331  0.70954  0.56994  Biso   1.000  C
  C11      1.0000 0.02669  0.79046  0.56994  Biso   1.000  C
  C12      1.0000 0.29046  0.97331  0.06994  Biso   1.000  C
  C13      1.0000 0.79046  0.47331  0.93006  Biso   1.000  C
  C14      1.0000 0.52669  0.29046  0.43006  Biso   1.000  C
  C15      1.0000 0.97331  0.20954  0.43006  Biso   1.000  C
  C16      1.0000 0.70954  0.02669  0.93006  Biso   1.000  C
  C17      1.0000 0.17492  0.58691  0.00364  Biso   1.000  C
  C18      1.0000 0.41309  0.67492  0.50364  Biso   1.000  C
  C19      1.0000 0.08691  0.82508  0.50364  Biso   1.000  C
  C20      1.0000 0.32508  0.91309  0.00364  Biso   1.000  C
  C21      1.0000 0.82508  0.41309  0.99636  Biso   1.000  C
  C22      1.0000 0.58691  0.32508  0.49636  Biso   1.000  C
  C23      1.0000 0.91309  0.17492  0.49636  Biso   1.000  C
  C24      1.0000 0.67492  0.08691  0.99636  Biso   1.000  C
  C25      1.0000 0.10680  0.59317  0.09227  Biso   1.000  C
  C26      1.0000 0.40683  0.60680  0.59227  Biso   1.000  C
  C27      1.0000 0.09317  0.89320  0.59227  Biso   1.000  C
  C28      1.0000 0.39320  0.90683  0.09227  Biso   1.000  C
  C29      1.0000 0.89320  0.40683  0.90773  Biso   1.000  C
  C30      1.0000 0.59317  0.39320  0.40773  Biso   1.000  C
  C31      1.0000 0.90683  0.10680  0.40773  Biso   1.000  C
  C32      1.0000 0.60680  0.09317  0.90773  Biso   1.000  C
  C33      1.0000 0.07252  0.53823  0.23387  Biso   1.000  C
  C34      1.0000 0.46177  0.57252  0.73387  Biso   1.000  C
  C35      1.0000 0.03823  0.92748  0.73387  Biso   1.000  C
  C36      1.0000 0.42748  0.96177  0.23387  Biso   1.000  C
  C37      1.0000 0.92748  0.46177  0.76613  Biso   1.000  C
  C38      1.0000 0.53823  0.42748  0.26613  Biso   1.000  C
  C39      1.0000 0.96177  0.07252  0.26613  Biso   1.000  C
  C40      1.0000 0.57252  0.03823  0.76613  Biso   1.000  C
  C41      1.0000 0.10624  0.47682  0.28315  Biso   1.000  C
  C42      1.0000 0.52318  0.60624  0.78315  Biso   1.000  C
  C43      1.0000 0.97682  0.89376  0.78315  Biso   1.000  C
  C44      1.0000 0.39376  0.02318  0.28315  Biso   1.000  C
  C45      1.0000 0.89376  0.52318  0.71685  Biso   1.000  C
  C46      1.0000 0.47682  0.39376  0.21685  Biso   1.000  C
  C47      1.0000 0.02318  0.10624  0.21685  Biso   1.000  C
  C48      1.0000 0.60624  0.97682  0.71685  Biso   1.000  C
  H1       1.0000 0.25760  0.52417  0.03437  Biso   1.000  H
  H2       1.0000 0.47583  0.75760  0.53437  Biso   1.000  H
  H3       1.0000 0.02417  0.74240  0.53437  Biso   1.000  H
  H4       1.0000 0.24240  0.97583  0.03437  Biso   1.000  H
  H5       1.0000 0.74240  0.47583  0.96563  Biso   1.000  H
  H6       1.0000 0.52417  0.24240  0.46563  Biso   1.000  H
  H7       1.0000 0.97583  0.25760  0.46563  Biso   1.000  H
  H8       1.0000 0.75760  0.02417  0.96563  Biso   1.000  H
  H9       1.0000 0.19739  0.62322  0.88800  Biso   1.000  H
  H10      1.0000 0.37678  0.69739  0.38800  Biso   1.000  H
  H11      1.0000 0.12322  0.80261  0.38800  Biso   1.000  H
  H12      1.0000 0.30261  0.87678  0.88800  Biso   1.000  H
  H13      1.0000 0.80261  0.37678  0.11200  Biso   1.000  H
  H14      1.0000 0.62322  0.30261  0.61200  Biso   1.000  H
  H15      1.0000 0.87678  0.19739  0.61200  Biso   1.000  H
  H16      1.0000 0.69739  0.12322  0.11200  Biso   1.000  H
  H17      1.0000 0.02637  0.54327  0.30650  Biso   1.000  H
  H18      1.0000 0.45673  0.52637  0.80650  Biso   1.000  H
  H19      1.0000 0.04327  0.97363  0.80650  Biso   1.000  H
  H20      1.0000 0.47363  0.95673  0.30650  Biso   1.000  H
  H21      1.0000 0.97363  0.45673  0.69350  Biso   1.000  H
  H22      1.0000 0.54327  0.47363  0.19350  Biso   1.000  H
  H23      1.0000 0.95673  0.02637  0.19350  Biso   1.000  H
  H24      1.0000 0.52637  0.04327  0.69350  Biso   1.000  H
  H25      1.0000 0.08198  0.43821  0.36770  Biso   1.000  H
  H26      1.0000 0.56179  0.58198  0.86770  Biso   1.000  H
  H27      1.0000 0.93821  0.91802  0.86770  Biso   1.000  H
  H28      1.0000 0.41802  0.06179  0.36770  Biso   1.000  H
  H29      1.0000 0.91802  0.56179  0.63230  Biso   1.000  H
  H30      1.0000 0.43821  0.41802  0.13230  Biso   1.000  H
  H31      1.0000 0.06179  0.08198  0.13230  Biso   1.000  H
  H32      1.0000 0.58198  0.93821  0.63230  Biso   1.000  H
