data_image0
_cell_length_a       11.3812
_cell_length_b       15.574
_cell_length_c       9.3119
_cell_angle_alpha    90
_cell_angle_beta     104.361
_cell_angle_gamma    90

_symmetry_space_group_name_H-M    "P 1"
_symmetry_int_tables_number       1

loop_
  _symmetry_equiv_pos_as_xyz
  'x, y, z'

loop_
  _atom_site_label
  _atom_site_occupancy
  _atom_site_fract_x
  _atom_site_fract_y
  _atom_site_fract_z
  _atom_site_thermal_displace_type
  _atom_site_B_iso_or_equiv
  _atom_site_type_symbol
  C1       1.0000 0.41142  0.93951  0.01940  Biso   1.000  C
  C2       1.0000 0.58858  0.43951  0.48060  Biso   1.000  C
  C3       1.0000 0.58858  0.06049  0.98060  Biso   1.000  C
  C4       1.0000 0.41142  0.56049  0.51940  Biso   1.000  C
  C5       1.0000 0.32240  0.87827  0.03440  Biso   1.000  C
  C6       1.0000 0.67760  0.37827  0.46560  Biso   1.000  C
  C7       1.0000 0.67760  0.12173  0.96560  Biso   1.000  C
  C8       1.0000 0.32240  0.62173  0.53440  Biso   1.000  C
  H1       1.0000 0.28810  0.88160  0.11740  Biso   1.000  H
  H2       1.0000 0.71190  0.38160  0.38260  Biso   1.000  H
  H3       1.0000 0.71190  0.11840  0.88260  Biso   1.000  H
  H4       1.0000 0.28810  0.61840  0.61740  Biso   1.000  H
  C9       1.0000 0.28540  0.81484  0.93200  Biso   1.000  C
  C10      1.0000 0.71460  0.31484  0.56800  Biso   1.000  C
  C11      1.0000 0.71460  0.18516  0.06800  Biso   1.000  C
  C12      1.0000 0.28540  0.68516  0.43200  Biso   1.000  C
  H5       1.0000 0.22670  0.77410  0.94490  Biso   1.000  H
  H6       1.0000 0.77330  0.27410  0.55510  Biso   1.000  H
  H7       1.0000 0.77330  0.22590  0.05510  Biso   1.000  H
  H8       1.0000 0.22670  0.72590  0.44490  Biso   1.000  H
  C13      1.0000 0.33470  0.80978  0.80600  Biso   1.000  C
  C14      1.0000 0.66530  0.30978  0.69400  Biso   1.000  C
  C15      1.0000 0.66530  0.19022  0.19400  Biso   1.000  C
  C16      1.0000 0.33470  0.69022  0.30600  Biso   1.000  C
  H9       1.0000 0.30900  0.76550  0.73510  Biso   1.000  H
  H10      1.0000 0.69100  0.26550  0.76490  Biso   1.000  H
  H11      1.0000 0.69100  0.23450  0.26490  Biso   1.000  H
  H12      1.0000 0.30900  0.73450  0.23510  Biso   1.000  H
  C17      1.0000 0.41830  0.86811  0.78670  Biso   1.000  C
  C18      1.0000 0.58170  0.36811  0.71330  Biso   1.000  C
  C19      1.0000 0.58170  0.13189  0.21330  Biso   1.000  C
  C20      1.0000 0.41830  0.63189  0.28670  Biso   1.000  C
  H13      1.0000 0.44920  0.86460  0.70110  Biso   1.000  H
  H14      1.0000 0.55080  0.36460  0.79890  Biso   1.000  H
  H15      1.0000 0.55080  0.13540  0.29890  Biso   1.000  H
  H16      1.0000 0.44920  0.63540  0.20110  Biso   1.000  H
  C21      1.0000 0.46030  0.93431  0.89230  Biso   1.000  C
  C22      1.0000 0.53970  0.43431  0.60770  Biso   1.000  C
  C23      1.0000 0.53970  0.06569  0.10770  Biso   1.000  C
  C24      1.0000 0.46030  0.56569  0.39230  Biso   1.000  C
  C25      1.0000 0.45170  0.00490  0.12610  Biso   1.000  C
  C26      1.0000 0.54830  0.50490  0.37390  Biso   1.000  C
  C27      1.0000 0.54830  0.99510  0.87390  Biso   1.000  C
  C28      1.0000 0.45170  0.49510  0.62610  Biso   1.000  C
  C29      1.0000 0.40210  0.00903  0.25380  Biso   1.000  C
  C30      1.0000 0.59790  0.50903  0.24620  Biso   1.000  C
  C31      1.0000 0.59790  0.99097  0.74620  Biso   1.000  C
  C32      1.0000 0.40210  0.49097  0.75380  Biso   1.000  C
  C33      1.0000 0.35810  0.01007  0.35730  Biso   1.000  C
  C34      1.0000 0.64190  0.51007  0.14270  Biso   1.000  C
  C35      1.0000 0.64190  0.98993  0.64270  Biso   1.000  C
  C36      1.0000 0.35810  0.48993  0.85730  Biso   1.000  C
  C37      1.0000 0.29620  0.01253  0.47430  Biso   1.000  C
  C38      1.0000 0.70380  0.51253  0.02570  Biso   1.000  C
  C39      1.0000 0.70380  0.98747  0.52570  Biso   1.000  C
  C40      1.0000 0.29620  0.48747  0.97430  Biso   1.000  C
  C41      1.0000 0.31640  0.07978  0.57820  Biso   1.000  C
  C42      1.0000 0.68360  0.57978  0.92180  Biso   1.000  C
  C43      1.0000 0.68360  0.92022  0.42180  Biso   1.000  C
  C44      1.0000 0.31640  0.42022  0.07820  Biso   1.000  C
  H17      1.0000 0.37540  0.12240  0.57540  Biso   1.000  H
  H18      1.0000 0.62460  0.62240  0.92460  Biso   1.000  H
  H19      1.0000 0.62460  0.87760  0.42460  Biso   1.000  H
  H20      1.0000 0.37540  0.37760  0.07540  Biso   1.000  H
  C45      1.0000 0.25040  0.08411  0.68460  Biso   1.000  C
  C46      1.0000 0.74960  0.58411  0.81540  Biso   1.000  C
  C47      1.0000 0.74960  0.91589  0.31540  Biso   1.000  C
  C48      1.0000 0.25040  0.41589  0.18460  Biso   1.000  C
  C49      1.0000 0.16360  0.02099  0.69030  Biso   1.000  C
  C50      1.0000 0.83640  0.52099  0.80970  Biso   1.000  C
  C51      1.0000 0.83640  0.97901  0.30970  Biso   1.000  C
  C52      1.0000 0.16360  0.47901  0.19030  Biso   1.000  C
  C53      1.0000 0.14610  0.95287  0.59040  Biso   1.000  C
  C54      1.0000 0.85390  0.45287  0.90960  Biso   1.000  C
  C55      1.0000 0.85390  0.04713  0.40960  Biso   1.000  C
  C56      1.0000 0.14610  0.54713  0.09040  Biso   1.000  C
  H21      1.0000 0.08920  0.90910  0.59580  Biso   1.000  H
  H22      1.0000 0.91080  0.40910  0.90420  Biso   1.000  H
  H23      1.0000 0.91080  0.09090  0.40420  Biso   1.000  H
  H24      1.0000 0.08920  0.59090  0.09580  Biso   1.000  H
  C57      1.0000 0.21120  0.94864  0.48310  Biso   1.000  C
  C58      1.0000 0.78880  0.44864  0.01690  Biso   1.000  C
  C59      1.0000 0.78880  0.05136  0.51690  Biso   1.000  C
  C60      1.0000 0.21120  0.55136  0.98310  Biso   1.000  C
  H25      1.0000 0.19830  0.90210  0.41500  Biso   1.000  H
  H26      1.0000 0.80170  0.40210  0.08500  Biso   1.000  H
  H27      1.0000 0.80170  0.09790  0.58500  Biso   1.000  H
  H28      1.0000 0.19830  0.59790  0.91500  Biso   1.000  H
  C61      1.0000 0.32410  0.25513  0.72710  Biso   1.000  C
  C62      1.0000 0.67590  0.75513  0.77290  Biso   1.000  C
  C63      1.0000 0.67590  0.74487  0.27290  Biso   1.000  C
  C64      1.0000 0.32410  0.24487  0.22710  Biso   1.000  C
  H29      1.0000 0.40690  0.24300  0.71970  Biso   1.000  H
  H30      1.0000 0.59310  0.74300  0.78030  Biso   1.000  H
  H31      1.0000 0.59310  0.75700  0.28030  Biso   1.000  H
  H32      1.0000 0.40690  0.25700  0.21970  Biso   1.000  H
  H33      1.0000 0.32370  0.30800  0.78410  Biso   1.000  H
  H34      1.0000 0.67630  0.80800  0.71590  Biso   1.000  H
  H35      1.0000 0.67630  0.69200  0.21590  Biso   1.000  H
  H36      1.0000 0.32370  0.19200  0.28410  Biso   1.000  H
  H37      1.0000 0.27100  0.26220  0.62740  Biso   1.000  H
  H38      1.0000 0.72900  0.76220  0.87260  Biso   1.000  H
  H39      1.0000 0.72900  0.73780  0.37260  Biso   1.000  H
  H40      1.0000 0.27100  0.23780  0.12740  Biso   1.000  H
  C65      1.0000 0.98070  0.94348  0.79670  Biso   1.000  C
  C66      1.0000 0.01930  0.44348  0.70330  Biso   1.000  C
  C67      1.0000 0.01930  0.05652  0.20330  Biso   1.000  C
  C68      1.0000 0.98070  0.55652  0.29670  Biso   1.000  C
  H41      1.0000 0.93650  0.94080  0.69210  Biso   1.000  H
  H42      1.0000 0.06350  0.44080  0.80790  Biso   1.000  H
  H43      1.0000 0.06350  0.05920  0.30790  Biso   1.000  H
  H44      1.0000 0.93650  0.55920  0.19210  Biso   1.000  H
  H45      1.0000 0.92280  0.94910  0.85850  Biso   1.000  H
  H46      1.0000 0.07720  0.44910  0.64150  Biso   1.000  H
  H47      1.0000 0.07720  0.05090  0.14150  Biso   1.000  H
  H48      1.0000 0.92280  0.55090  0.35850  Biso   1.000  H
  H49      1.0000 0.02830  0.89090  0.82370  Biso   1.000  H
  H50      1.0000 0.97170  0.39090  0.67630  Biso   1.000  H
  H51      1.0000 0.97170  0.10910  0.17630  Biso   1.000  H
  H52      1.0000 0.02830  0.60910  0.32370  Biso   1.000  H
  Cu1      1.0000 0.04415  0.20241  0.78555  Biso   1.000  Cu
  Cu2      1.0000 0.95585  0.70241  0.71445  Biso   1.000  Cu
  Cu3      1.0000 0.95585  0.79759  0.21445  Biso   1.000  Cu
  Cu4      1.0000 0.04415  0.29759  0.28555  Biso   1.000  Cu
  C69      1.0000 0.01750  0.24590  0.96380  Biso   1.000  C
  C70      1.0000 0.98250  0.74590  0.53620  Biso   1.000  C
  C71      1.0000 0.98250  0.75410  0.03620  Biso   1.000  C
  C72      1.0000 0.01750  0.25410  0.46380  Biso   1.000  C
  N1       1.0000 0.01256  0.27265  0.07800  Biso   1.000  N
  N2       1.0000 0.98744  0.77265  0.42200  Biso   1.000  N
  N3       1.0000 0.98744  0.72735  0.92200  Biso   1.000  N
  N4       1.0000 0.01256  0.22735  0.57800  Biso   1.000  N
  S1       1.0000 0.08071  0.03480  0.82586  Biso   1.000  S
  S2       1.0000 0.91929  0.53480  0.67414  Biso   1.000  S
  S3       1.0000 0.91929  0.96520  0.17414  Biso   1.000  S
  S4       1.0000 0.08071  0.46520  0.32586  Biso   1.000  S
  S5       1.0000 0.27030  0.16722  0.81910  Biso   1.000  S
  S6       1.0000 0.72970  0.66722  0.68090  Biso   1.000  S
  S7       1.0000 0.72970  0.83278  0.18090  Biso   1.000  S
  S8       1.0000 0.27030  0.33278  0.31910  Biso   1.000  S
