data_image0
_cell_length_a       12.1026
_cell_length_b       14.1634
_cell_length_c       9.3756
_cell_angle_alpha    90
_cell_angle_beta     90
_cell_angle_gamma    90

_symmetry_space_group_name_H-M    "P 1"
_symmetry_int_tables_number       1

loop_
  _symmetry_equiv_pos_as_xyz
  'x, y, z'

loop_
  _atom_site_label
  _atom_site_occupancy
  _atom_site_fract_x
  _atom_site_fract_y
  _atom_site_fract_z
  _atom_site_thermal_displace_type
  _atom_site_B_iso_or_equiv
  _atom_site_type_symbol
  Cu1      1.0000 0.19892  0.05181  0.00000  Biso   1.000  Cu
  Cu2      1.0000 0.69892  0.55181  0.00000  Biso   1.000  Cu
  Cu3      1.0000 0.80108  0.94819  0.00000  Biso   1.000  Cu
  Cu4      1.0000 0.80108  0.05181  0.50000  Biso   1.000  Cu
  Cu5      1.0000 0.19892  0.94819  0.50000  Biso   1.000  Cu
  Cu6      1.0000 0.30108  0.44819  0.00000  Biso   1.000  Cu
  Cu7      1.0000 0.30108  0.55181  0.50000  Biso   1.000  Cu
  Cu8      1.0000 0.69892  0.44819  0.50000  Biso   1.000  Cu
  Cu9      1.0000 0.33016  0.90743  0.00000  Biso   1.000  Cu
  Cu10     1.0000 0.83016  0.40743  0.00000  Biso   1.000  Cu
  Cu11     1.0000 0.66984  0.09257  0.00000  Biso   1.000  Cu
  Cu12     1.0000 0.66984  0.90743  0.50000  Biso   1.000  Cu
  Cu13     1.0000 0.33016  0.09257  0.50000  Biso   1.000  Cu
  Cu14     1.0000 0.16984  0.59257  0.00000  Biso   1.000  Cu
  Cu15     1.0000 0.16984  0.40743  0.50000  Biso   1.000  Cu
  Cu16     1.0000 0.83016  0.59257  0.50000  Biso   1.000  Cu
  N1       1.0000 0.20459  0.01096  0.19120  Biso   1.000  N
  N2       1.0000 0.70459  0.51096  0.19120  Biso   1.000  N
  N3       1.0000 0.79541  0.98904  0.19120  Biso   1.000  N
  N4       1.0000 0.79541  0.01096  0.30880  Biso   1.000  N
  N5       1.0000 0.20459  0.98904  0.30880  Biso   1.000  N
  N6       1.0000 0.29541  0.48904  0.19120  Biso   1.000  N
  N7       1.0000 0.29541  0.51096  0.30880  Biso   1.000  N
  N8       1.0000 0.70459  0.48904  0.30880  Biso   1.000  N
  N9       1.0000 0.79541  0.98904  0.80880  Biso   1.000  N
  N10      1.0000 0.29541  0.48904  0.80880  Biso   1.000  N
  N11      1.0000 0.20459  0.01096  0.80880  Biso   1.000  N
  N12      1.0000 0.20459  0.98904  0.69120  Biso   1.000  N
  N13      1.0000 0.79541  0.01096  0.69120  Biso   1.000  N
  N14      1.0000 0.70459  0.51096  0.80880  Biso   1.000  N
  N15      1.0000 0.70459  0.48904  0.69120  Biso   1.000  N
  N16      1.0000 0.29541  0.51096  0.69120  Biso   1.000  N
  N17      1.0000 0.45890  0.97970  0.00000  Biso   1.000  N
  N18      1.0000 0.95890  0.47970  0.00000  Biso   1.000  N
  N19      1.0000 0.54110  0.02030  0.00000  Biso   1.000  N
  N20      1.0000 0.54110  0.97970  0.50000  Biso   1.000  N
  N21      1.0000 0.45890  0.02030  0.50000  Biso   1.000  N
  N22      1.0000 0.04110  0.52030  0.00000  Biso   1.000  N
  N23      1.0000 0.04110  0.47970  0.50000  Biso   1.000  N
  N24      1.0000 0.95890  0.52030  0.50000  Biso   1.000  N
  N25      1.0000 0.26520  0.78840  0.00000  Biso   1.000  N
  N26      1.0000 0.76520  0.28840  0.00000  Biso   1.000  N
  N27      1.0000 0.73480  0.21160  0.00000  Biso   1.000  N
  N28      1.0000 0.73480  0.78840  0.50000  Biso   1.000  N
  N29      1.0000 0.26520  0.21160  0.50000  Biso   1.000  N
  N30      1.0000 0.23480  0.71160  0.00000  Biso   1.000  N
  N31      1.0000 0.23480  0.28840  0.50000  Biso   1.000  N
  N32      1.0000 0.76520  0.71160  0.50000  Biso   1.000  N
  N33      1.0000 0.14890  0.19466  0.00000  Biso   1.000  N
  N34      1.0000 0.64890  0.69466  0.00000  Biso   1.000  N
  N35      1.0000 0.85110  0.80534  0.00000  Biso   1.000  N
  N36      1.0000 0.85110  0.19466  0.50000  Biso   1.000  N
  N37      1.0000 0.14890  0.80534  0.50000  Biso   1.000  N
  N38      1.0000 0.35110  0.30534  0.00000  Biso   1.000  N
  N39      1.0000 0.35110  0.69466  0.50000  Biso   1.000  N
  N40      1.0000 0.64890  0.30534  0.50000  Biso   1.000  N
  C1       1.0000 0.18787  0.24604  0.12800  Biso   1.000  C
  C2       1.0000 0.68787  0.74604  0.12800  Biso   1.000  C
  C3       1.0000 0.81213  0.75396  0.12800  Biso   1.000  C
  C4       1.0000 0.81213  0.24604  0.37200  Biso   1.000  C
  C5       1.0000 0.18787  0.75396  0.37200  Biso   1.000  C
  C6       1.0000 0.31213  0.25396  0.12800  Biso   1.000  C
  C7       1.0000 0.31213  0.74604  0.37200  Biso   1.000  C
  C8       1.0000 0.68787  0.25396  0.37200  Biso   1.000  C
  C9       1.0000 0.81213  0.75396  0.87200  Biso   1.000  C
  C10      1.0000 0.31213  0.25396  0.87200  Biso   1.000  C
  C11      1.0000 0.18787  0.24604  0.87200  Biso   1.000  C
  C12      1.0000 0.18787  0.75396  0.62800  Biso   1.000  C
  C13      1.0000 0.81213  0.24604  0.62800  Biso   1.000  C
  C14      1.0000 0.68787  0.74604  0.87200  Biso   1.000  C
  C15      1.0000 0.68787  0.25396  0.62800  Biso   1.000  C
  C16      1.0000 0.31213  0.74604  0.62800  Biso   1.000  C
  C17      1.0000 0.02720  0.19090  0.00000  Biso   1.000  C
  C18      1.0000 0.52720  0.69090  0.00000  Biso   1.000  C
  C19      1.0000 0.97280  0.80910  0.00000  Biso   1.000  C
  C20      1.0000 0.97280  0.19090  0.50000  Biso   1.000  C
  C21      1.0000 0.02720  0.80910  0.50000  Biso   1.000  C
  C22      1.0000 0.47280  0.30910  0.00000  Biso   1.000  C
  C23      1.0000 0.47280  0.69090  0.50000  Biso   1.000  C
  C24      1.0000 0.52720  0.30910  0.50000  Biso   1.000  C
  H1       1.0000 0.16410  0.21440  0.21100  Biso   1.000  H
  H2       1.0000 0.66410  0.71440  0.21100  Biso   1.000  H
  H3       1.0000 0.83590  0.78560  0.21100  Biso   1.000  H
  H4       1.0000 0.83590  0.21440  0.28900  Biso   1.000  H
  H5       1.0000 0.16410  0.78560  0.28900  Biso   1.000  H
  H6       1.0000 0.33590  0.28560  0.21100  Biso   1.000  H
  H7       1.0000 0.33590  0.71440  0.28900  Biso   1.000  H
  H8       1.0000 0.66410  0.28560  0.28900  Biso   1.000  H
  H9       1.0000 0.83590  0.78560  0.78900  Biso   1.000  H
  H10      1.0000 0.33590  0.28560  0.78900  Biso   1.000  H
  H11      1.0000 0.16410  0.21440  0.78900  Biso   1.000  H
  H12      1.0000 0.16410  0.78560  0.71100  Biso   1.000  H
  H13      1.0000 0.83590  0.21440  0.71100  Biso   1.000  H
  H14      1.0000 0.66410  0.71440  0.78900  Biso   1.000  H
  H15      1.0000 0.66410  0.28560  0.71100  Biso   1.000  H
  H16      1.0000 0.33590  0.71440  0.71100  Biso   1.000  H
  H17      1.0000 0.15700  0.30620  0.12900  Biso   1.000  H
  H18      1.0000 0.65700  0.80620  0.12900  Biso   1.000  H
  H19      1.0000 0.84300  0.69380  0.12900  Biso   1.000  H
  H20      1.0000 0.84300  0.30620  0.37100  Biso   1.000  H
  H21      1.0000 0.15700  0.69380  0.37100  Biso   1.000  H
  H22      1.0000 0.34300  0.19380  0.12900  Biso   1.000  H
  H23      1.0000 0.34300  0.80620  0.37100  Biso   1.000  H
  H24      1.0000 0.65700  0.19380  0.37100  Biso   1.000  H
  H25      1.0000 0.84300  0.69380  0.87100  Biso   1.000  H
  H26      1.0000 0.34300  0.19380  0.87100  Biso   1.000  H
  H27      1.0000 0.15700  0.30620  0.87100  Biso   1.000  H
  H28      1.0000 0.15700  0.69380  0.62900  Biso   1.000  H
  H29      1.0000 0.84300  0.30620  0.62900  Biso   1.000  H
  H30      1.0000 0.65700  0.80620  0.87100  Biso   1.000  H
  H31      1.0000 0.65700  0.19380  0.62900  Biso   1.000  H
  H32      1.0000 0.34300  0.80620  0.62900  Biso   1.000  H
  H33      1.0000 0.99800  0.25400  0.00000  Biso   1.000  H
  H34      1.0000 0.49800  0.75400  0.00000  Biso   1.000  H
  H35      1.0000 0.00200  0.74600  0.00000  Biso   1.000  H
  H36      1.0000 0.00200  0.25400  0.50000  Biso   1.000  H
  H37      1.0000 0.99800  0.74600  0.50000  Biso   1.000  H
  H38      1.0000 0.50200  0.24600  0.00000  Biso   1.000  H
  H39      1.0000 0.50200  0.75400  0.50000  Biso   1.000  H
  H40      1.0000 0.49800  0.24600  0.50000  Biso   1.000  H
  H41      1.0000 0.00300  0.15840  0.08500  Biso   1.000  H
  H42      1.0000 0.50300  0.65840  0.08500  Biso   1.000  H
  H43      1.0000 0.99700  0.84160  0.08500  Biso   1.000  H
  H44      1.0000 0.99700  0.15840  0.41500  Biso   1.000  H
  H45      1.0000 0.00300  0.84160  0.41500  Biso   1.000  H
  H46      1.0000 0.49700  0.34160  0.08500  Biso   1.000  H
  H47      1.0000 0.49700  0.65840  0.41500  Biso   1.000  H
  H48      1.0000 0.50300  0.34160  0.41500  Biso   1.000  H
  H49      1.0000 0.99700  0.84160  0.91500  Biso   1.000  H
  H50      1.0000 0.49700  0.34160  0.91500  Biso   1.000  H
  H51      1.0000 0.00300  0.15840  0.91500  Biso   1.000  H
  H52      1.0000 0.00300  0.84160  0.58500  Biso   1.000  H
  H53      1.0000 0.99700  0.15840  0.58500  Biso   1.000  H
  H54      1.0000 0.50300  0.65840  0.91500  Biso   1.000  H
  H55      1.0000 0.50300  0.34160  0.58500  Biso   1.000  H
  H56      1.0000 0.49700  0.65840  0.58500  Biso   1.000  H
