data_image0
_cell_length_a       7.0745
_cell_length_b       29.9449
_cell_length_c       14.742
_cell_angle_alpha    90
_cell_angle_beta     92.703
_cell_angle_gamma    90

_symmetry_space_group_name_H-M    "P 1"
_symmetry_int_tables_number       1

loop_
  _symmetry_equiv_pos_as_xyz
  'x, y, z'

loop_
  _atom_site_label
  _atom_site_occupancy
  _atom_site_fract_x
  _atom_site_fract_y
  _atom_site_fract_z
  _atom_site_thermal_displace_type
  _atom_site_B_iso_or_equiv
  _atom_site_type_symbol
  Cu1      1.0000 0.07051  0.39212  0.84277  Biso   1.000  Cu
  Cu2      1.0000 0.92949  0.89212  0.65723  Biso   1.000  Cu
  Cu3      1.0000 0.92949  0.60788  0.15723  Biso   1.000  Cu
  Cu4      1.0000 0.07051  0.10788  0.34277  Biso   1.000  Cu
  Cu5      1.0000 0.02185  0.31329  0.87913  Biso   1.000  Cu
  Cu6      1.0000 0.97815  0.81329  0.62087  Biso   1.000  Cu
  Cu7      1.0000 0.97815  0.68671  0.12087  Biso   1.000  Cu
  Cu8      1.0000 0.02185  0.18671  0.37913  Biso   1.000  Cu
  Cu9      1.0000 0.34905  0.29312  0.60171  Biso   1.000  Cu
  Cu10     1.0000 0.65095  0.79312  0.89829  Biso   1.000  Cu
  Cu11     1.0000 0.65095  0.70688  0.39829  Biso   1.000  Cu
  Cu12     1.0000 0.34905  0.20688  0.10171  Biso   1.000  Cu
  Cu13     1.0000 0.63134  0.69042  0.55960  Biso   1.000  Cu
  Cu14     1.0000 0.36866  0.19042  0.94040  Biso   1.000  Cu
  Cu15     1.0000 0.36866  0.30958  0.44040  Biso   1.000  Cu
  Cu16     1.0000 0.63134  0.80958  0.05960  Biso   1.000  Cu
  Cu17     1.0000 0.07162  0.64306  0.80933  Biso   1.000  Cu
  Cu18     1.0000 0.92838  0.14306  0.69067  Biso   1.000  Cu
  Cu19     1.0000 0.92838  0.35694  0.19067  Biso   1.000  Cu
  Cu20     1.0000 0.07162  0.85694  0.30933  Biso   1.000  Cu
  Cu21     1.0000 0.09374  0.58139  0.69238  Biso   1.000  Cu
  Cu22     1.0000 0.90626  0.08139  0.80762  Biso   1.000  Cu
  Cu23     1.0000 0.90626  0.41861  0.30762  Biso   1.000  Cu
  Cu24     1.0000 0.09374  0.91861  0.19238  Biso   1.000  Cu
  Cu25     1.0000 0.49844  0.36900  0.01831  Biso   1.000  Cu
  Cu26     1.0000 0.50156  0.86900  0.48169  Biso   1.000  Cu
  Cu27     1.0000 0.50156  0.63100  0.98169  Biso   1.000  Cu
  Cu28     1.0000 0.49844  0.13100  0.51831  Biso   1.000  Cu
  Cu29     1.0000 0.49830  0.46649  0.55373  Biso   1.000  Cu
  Cu30     1.0000 0.50170  0.96649  0.94627  Biso   1.000  Cu
  Cu31     1.0000 0.50170  0.53351  0.44627  Biso   1.000  Cu
  Cu32     1.0000 0.49830  0.03351  0.05373  Biso   1.000  Cu
  Cu33     1.0000 0.50473  0.47452  0.06332  Biso   1.000  Cu
  Cu34     1.0000 0.49527  0.97452  0.43668  Biso   1.000  Cu
  Cu35     1.0000 0.49527  0.52548  0.93668  Biso   1.000  Cu
  Cu36     1.0000 0.50473  0.02548  0.56332  Biso   1.000  Cu
  Cu37     1.0000 0.93292  0.37434  0.53598  Biso   1.000  Cu
  Cu38     1.0000 0.06708  0.87434  0.96402  Biso   1.000  Cu
  Cu39     1.0000 0.06708  0.62566  0.46402  Biso   1.000  Cu
  Cu40     1.0000 0.93292  0.12566  0.03598  Biso   1.000  Cu
  N1       1.0000 0.25190  0.43303  0.91360  Biso   1.000  N
  N2       1.0000 0.74810  0.93303  0.58640  Biso   1.000  N
  N3       1.0000 0.74810  0.56697  0.08640  Biso   1.000  N
  N4       1.0000 0.25190  0.06697  0.41360  Biso   1.000  N
  C1       1.0000 0.35080  0.45626  0.95560  Biso   1.000  C
  C2       1.0000 0.64920  0.95626  0.54440  Biso   1.000  C
  C3       1.0000 0.64920  0.54374  0.04440  Biso   1.000  C
  C4       1.0000 0.35080  0.04374  0.45560  Biso   1.000  C
  N5       1.0000 0.81000  0.65349  0.62670  Biso   1.000  N
  N6       1.0000 0.19000  0.15349  0.87330  Biso   1.000  N
  N7       1.0000 0.19000  0.34651  0.37330  Biso   1.000  N
  N8       1.0000 0.81000  0.84651  0.12670  Biso   1.000  N
  C5       1.0000 0.92070  0.62876  0.65960  Biso   1.000  C
  C6       1.0000 0.07930  0.12876  0.84040  Biso   1.000  C
  C7       1.0000 0.07930  0.37124  0.34040  Biso   1.000  C
  C8       1.0000 0.92070  0.87124  0.15960  Biso   1.000  C
  N9       1.0000 0.32540  0.56466  0.86930  Biso   1.000  N
  N10      1.0000 0.67460  0.06466  0.63070  Biso   1.000  N
  N11      1.0000 0.67460  0.43534  0.13070  Biso   1.000  N
  N12      1.0000 0.32540  0.93534  0.36930  Biso   1.000  N
  C9       1.0000 0.23470  0.58895  0.82430  Biso   1.000  C
  C10      1.0000 0.76530  0.08895  0.67570  Biso   1.000  C
  C11      1.0000 0.76530  0.41105  0.17570  Biso   1.000  C
  C12      1.0000 0.23470  0.91105  0.32430  Biso   1.000  C
  C13      1.0000 0.15320  0.35257  0.12440  Biso   1.000  C
  C14      1.0000 0.84680  0.85257  0.37560  Biso   1.000  C
  C15      1.0000 0.84680  0.64743  0.87560  Biso   1.000  C
  C16      1.0000 0.15320  0.14743  0.62440  Biso   1.000  C
  N13      1.0000 0.28940  0.35763  0.08550  Biso   1.000  N
  N14      1.0000 0.71060  0.85763  0.41450  Biso   1.000  N
  N15      1.0000 0.71060  0.64237  0.91450  Biso   1.000  N
  N16      1.0000 0.28940  0.14237  0.58550  Biso   1.000  N
  N17      1.0000 0.14160  0.40990  0.55440  Biso   1.000  N
  N18      1.0000 0.85840  0.90990  0.94560  Biso   1.000  N
  N19      1.0000 0.85840  0.59010  0.44560  Biso   1.000  N
  N20      1.0000 0.14160  0.09010  0.05440  Biso   1.000  N
  C17      1.0000 0.27580  0.43190  0.56540  Biso   1.000  C
  C18      1.0000 0.72420  0.93190  0.93460  Biso   1.000  C
  C19      1.0000 0.72420  0.56810  0.43460  Biso   1.000  C
  C20      1.0000 0.27580  0.06810  0.06540  Biso   1.000  C
  C21      1.0000 0.35070  0.53959  0.55060  Biso   1.000  C
  C22      1.0000 0.64930  0.03959  0.94940  Biso   1.000  C
  C23      1.0000 0.64930  0.46041  0.44940  Biso   1.000  C
  C24      1.0000 0.35070  0.96041  0.05060  Biso   1.000  C
  N21      1.0000 0.26030  0.55460  0.60740  Biso   1.000  N
  N22      1.0000 0.73970  0.05460  0.89260  Biso   1.000  N
  N23      1.0000 0.73970  0.44540  0.39260  Biso   1.000  N
  N24      1.0000 0.26030  0.94540  0.10740  Biso   1.000  N
  N25      1.0000 0.71700  0.36631  0.95490  Biso   1.000  N
  N26      1.0000 0.28300  0.86631  0.54510  Biso   1.000  N
  N27      1.0000 0.28300  0.63369  0.04510  Biso   1.000  N
  N28      1.0000 0.71700  0.13369  0.45490  Biso   1.000  N
  C25      1.0000 0.86190  0.36465  0.92090  Biso   1.000  C
  C26      1.0000 0.13810  0.86465  0.57910  Biso   1.000  C
  C27      1.0000 0.13810  0.63535  0.07910  Biso   1.000  C
  C28      1.0000 0.86190  0.13535  0.42090  Biso   1.000  C
  N29      1.0000 0.22290  0.32684  0.69810  Biso   1.000  N
  N30      1.0000 0.77710  0.82684  0.80190  Biso   1.000  N
  N31      1.0000 0.77710  0.67316  0.30190  Biso   1.000  N
  N32      1.0000 0.22290  0.17316  0.19810  Biso   1.000  N
  C29      1.0000 0.16490  0.34763  0.75680  Biso   1.000  C
  C30      1.0000 0.83510  0.84763  0.74320  Biso   1.000  C
  C31      1.0000 0.83510  0.65237  0.24320  Biso   1.000  C
  C32      1.0000 0.16490  0.15237  0.25680  Biso   1.000  C
  N33      1.0000 0.15710  0.27159  0.95920  Biso   1.000  N
  N34      1.0000 0.84290  0.77159  0.54080  Biso   1.000  N
  N35      1.0000 0.84290  0.72841  0.04080  Biso   1.000  N
  N36      1.0000 0.15710  0.22841  0.45920  Biso   1.000  N
  C33      1.0000 0.22360  0.24696  0.01260  Biso   1.000  C
  C34      1.0000 0.77640  0.74696  0.48740  Biso   1.000  C
  C35      1.0000 0.77640  0.75304  0.98740  Biso   1.000  C
  C36      1.0000 0.22360  0.25304  0.51260  Biso   1.000  C
  N37      1.0000 0.70770  0.34379  0.53810  Biso   1.000  N
  N38      1.0000 0.29230  0.84379  0.96190  Biso   1.000  N
  N39      1.0000 0.29230  0.65621  0.46190  Biso   1.000  N
  N40      1.0000 0.70770  0.15621  0.03810  Biso   1.000  N
  C37      1.0000 0.55770  0.32862  0.53890  Biso   1.000  C
  C38      1.0000 0.44230  0.82862  0.96110  Biso   1.000  C
  C39      1.0000 0.44230  0.67138  0.46110  Biso   1.000  C
  C40      1.0000 0.55770  0.17138  0.03890  Biso   1.000  C
  N41      1.0000 0.90190  0.44858  0.78590  Biso   1.000  N
  N42      1.0000 0.09810  0.94858  0.71410  Biso   1.000  N
  N43      1.0000 0.09810  0.55142  0.21410  Biso   1.000  N
  N44      1.0000 0.90190  0.05142  0.28590  Biso   1.000  N
  N45      1.0000 0.92050  0.52614  0.73240  Biso   1.000  N
  N46      1.0000 0.07950  0.02614  0.76760  Biso   1.000  N
  N47      1.0000 0.07950  0.47386  0.26760  Biso   1.000  N
  N48      1.0000 0.92050  0.97386  0.23240  Biso   1.000  N
  N49      1.0000 0.66510  0.47776  0.67340  Biso   1.000  N
  N50      1.0000 0.33490  0.97776  0.82660  Biso   1.000  N
  N51      1.0000 0.33490  0.52224  0.32660  Biso   1.000  N
  N52      1.0000 0.66510  0.02224  0.17340  Biso   1.000  N
  N53      1.0000 0.66860  0.50402  0.83080  Biso   1.000  N
  N54      1.0000 0.33140  0.00402  0.66920  Biso   1.000  N
  N55      1.0000 0.33140  0.49598  0.16920  Biso   1.000  N
  N56      1.0000 0.66860  0.99598  0.33080  Biso   1.000  N
  N57      1.0000 0.80810  0.27041  0.81440  Biso   1.000  N
  N58      1.0000 0.19190  0.77041  0.68560  Biso   1.000  N
  N59      1.0000 0.19190  0.72959  0.18560  Biso   1.000  N
  N60      1.0000 0.80810  0.22959  0.31440  Biso   1.000  N
  N61      1.0000 0.54610  0.21966  0.84560  Biso   1.000  N
  N62      1.0000 0.45390  0.71966  0.65440  Biso   1.000  N
  N63      1.0000 0.45390  0.78034  0.15440  Biso   1.000  N
  N64      1.0000 0.54610  0.28034  0.34560  Biso   1.000  N
  N65      1.0000 0.54860  0.25950  0.70000  Biso   1.000  N
  N66      1.0000 0.45140  0.75950  0.80000  Biso   1.000  N
  N67      1.0000 0.45140  0.74050  0.30000  Biso   1.000  N
  N68      1.0000 0.54860  0.24050  0.20000  Biso   1.000  N
  N69      1.0000 0.77630  0.19912  0.73340  Biso   1.000  N
  N70      1.0000 0.22370  0.69912  0.76660  Biso   1.000  N
  N71      1.0000 0.22370  0.80088  0.26660  Biso   1.000  N
  N72      1.0000 0.77630  0.30088  0.23340  Biso   1.000  N
  C41      1.0000 0.79730  0.51465  0.65260  Biso   1.000  C
  C42      1.0000 0.20270  0.01465  0.84740  Biso   1.000  C
  C43      1.0000 0.20270  0.48535  0.34740  Biso   1.000  C
  C44      1.0000 0.79730  0.98535  0.15260  Biso   1.000  C
  H1       1.0000 0.87630  0.50550  0.60210  Biso   1.000  H
  H2       1.0000 0.12370  0.00550  0.89790  Biso   1.000  H
  H3       1.0000 0.12370  0.49450  0.39790  Biso   1.000  H
  H4       1.0000 0.87630  0.99450  0.10210  Biso   1.000  H
  H5       1.0000 0.72360  0.54130  0.63280  Biso   1.000  H
  H6       1.0000 0.27640  0.04130  0.86720  Biso   1.000  H
  H7       1.0000 0.27640  0.45870  0.36720  Biso   1.000  H
  H8       1.0000 0.72360  0.95870  0.13280  Biso   1.000  H
  C45      1.0000 0.77750  0.43828  0.70480  Biso   1.000  C
  C46      1.0000 0.22250  0.93828  0.79520  Biso   1.000  C
  C47      1.0000 0.22250  0.56172  0.29520  Biso   1.000  C
  C48      1.0000 0.77750  0.06172  0.20480  Biso   1.000  C
  H9       1.0000 0.69040  0.41370  0.71950  Biso   1.000  H
  H10      1.0000 0.30960  0.91370  0.78050  Biso   1.000  H
  H11      1.0000 0.30960  0.58630  0.28050  Biso   1.000  H
  H12      1.0000 0.69040  0.08630  0.21950  Biso   1.000  H
  H13      1.0000 0.85610  0.42790  0.65510  Biso   1.000  H
  H14      1.0000 0.14390  0.92790  0.84490  Biso   1.000  H
  H15      1.0000 0.14390  0.57210  0.34490  Biso   1.000  H
  H16      1.0000 0.85610  0.07210  0.15510  Biso   1.000  H
  C49      1.0000 0.54960  0.49227  0.74930  Biso   1.000  C
  C50      1.0000 0.45040  0.99227  0.75070  Biso   1.000  C
  C51      1.0000 0.45040  0.50773  0.25070  Biso   1.000  C
  C52      1.0000 0.54960  0.00773  0.24930  Biso   1.000  C
  H17      1.0000 0.47270  0.51850  0.73000  Biso   1.000  H
  H18      1.0000 0.52730  0.01850  0.77000  Biso   1.000  H
  H19      1.0000 0.52730  0.48150  0.27000  Biso   1.000  H
  H20      1.0000 0.47270  0.98150  0.23000  Biso   1.000  H
  H21      1.0000 0.46190  0.46790  0.76460  Biso   1.000  H
  H22      1.0000 0.53810  0.96790  0.73540  Biso   1.000  H
  H23      1.0000 0.53810  0.53210  0.23540  Biso   1.000  H
  H24      1.0000 0.46190  0.03210  0.26460  Biso   1.000  H
  C53      1.0000 0.78140  0.46433  0.85900  Biso   1.000  C
  C54      1.0000 0.21860  0.96433  0.64100  Biso   1.000  C
  C55      1.0000 0.21860  0.53567  0.14100  Biso   1.000  C
  C56      1.0000 0.78140  0.03567  0.35900  Biso   1.000  C
  H25      1.0000 0.69490  0.44000  0.87570  Biso   1.000  H
  H26      1.0000 0.30510  0.94000  0.62430  Biso   1.000  H
  H27      1.0000 0.30510  0.56000  0.12430  Biso   1.000  H
  H28      1.0000 0.69490  0.06000  0.37570  Biso   1.000  H
  H29      1.0000 0.86260  0.47180  0.91340  Biso   1.000  H
  H30      1.0000 0.13740  0.97180  0.58660  Biso   1.000  H
  H31      1.0000 0.13740  0.52820  0.08660  Biso   1.000  H
  H32      1.0000 0.86260  0.02820  0.41340  Biso   1.000  H
  C57      1.0000 0.02930  0.48611  0.76190  Biso   1.000  C
  C58      1.0000 0.97070  0.98611  0.73810  Biso   1.000  C
  C59      1.0000 0.97070  0.51389  0.23810  Biso   1.000  C
  C60      1.0000 0.02930  0.01389  0.26190  Biso   1.000  C
  H33      1.0000 0.11310  0.49370  0.81540  Biso   1.000  H
  H34      1.0000 0.88690  0.99370  0.68460  Biso   1.000  H
  H35      1.0000 0.88690  0.50630  0.18460  Biso   1.000  H
  H36      1.0000 0.11310  0.00630  0.31540  Biso   1.000  H
  H37      1.0000 0.11010  0.47650  0.71250  Biso   1.000  H
  H38      1.0000 0.88990  0.97650  0.78750  Biso   1.000  H
  H39      1.0000 0.88990  0.52350  0.28750  Biso   1.000  H
  H40      1.0000 0.11010  0.02350  0.21250  Biso   1.000  H
  C61      1.0000 0.80000  0.54008  0.80680  Biso   1.000  C
  C62      1.0000 0.20000  0.04008  0.69320  Biso   1.000  C
  C63      1.0000 0.20000  0.45992  0.19320  Biso   1.000  C
  C64      1.0000 0.80000  0.95992  0.30680  Biso   1.000  C
  H41      1.0000 0.88120  0.54810  0.86090  Biso   1.000  H
  H42      1.0000 0.11880  0.04810  0.63910  Biso   1.000  H
  H43      1.0000 0.11880  0.45190  0.13910  Biso   1.000  H
  H44      1.0000 0.88120  0.95190  0.36090  Biso   1.000  H
  H45      1.0000 0.72640  0.56690  0.78780  Biso   1.000  H
  H46      1.0000 0.27360  0.06690  0.71220  Biso   1.000  H
  H47      1.0000 0.27360  0.43310  0.21220  Biso   1.000  H
  H48      1.0000 0.72640  0.93310  0.28780  Biso   1.000  H
  C65      1.0000 0.90950  0.23269  0.77360  Biso   1.000  C
  C66      1.0000 0.09050  0.73269  0.72640  Biso   1.000  C
  C67      1.0000 0.09050  0.76731  0.22640  Biso   1.000  C
  C68      1.0000 0.90950  0.26731  0.27360  Biso   1.000  C
  H49      1.0000 0.99260  0.21820  0.82090  Biso   1.000  H
  H50      1.0000 0.00740  0.71820  0.67910  Biso   1.000  H
  H51      1.0000 0.00740  0.78180  0.17910  Biso   1.000  H
  H52      1.0000 0.99260  0.28180  0.32090  Biso   1.000  H
  H53      1.0000 0.99050  0.24420  0.72590  Biso   1.000  H
  H54      1.0000 0.00950  0.74420  0.77410  Biso   1.000  H
  H55      1.0000 0.00950  0.75580  0.27410  Biso   1.000  H
  H56      1.0000 0.99050  0.25580  0.22590  Biso   1.000  H
  C69      1.0000 0.68570  0.29178  0.74250  Biso   1.000  C
  C70      1.0000 0.31430  0.79178  0.75750  Biso   1.000  C
  C71      1.0000 0.31430  0.70822  0.25750  Biso   1.000  C
  C72      1.0000 0.68570  0.20822  0.24250  Biso   1.000  C
  H57      1.0000 0.76570  0.30420  0.69530  Biso   1.000  H
  H58      1.0000 0.23430  0.80420  0.80470  Biso   1.000  H
  H59      1.0000 0.23430  0.69580  0.30470  Biso   1.000  H
  H60      1.0000 0.76570  0.19580  0.19530  Biso   1.000  H
  H61      1.0000 0.61560  0.31680  0.76910  Biso   1.000  H
  H62      1.0000 0.38440  0.81680  0.73090  Biso   1.000  H
  H63      1.0000 0.38440  0.68320  0.23090  Biso   1.000  H
  H64      1.0000 0.61560  0.18320  0.26910  Biso   1.000  H
  C73      1.0000 0.65590  0.22179  0.66140  Biso   1.000  C
  C74      1.0000 0.34410  0.72179  0.83860  Biso   1.000  C
  C75      1.0000 0.34410  0.77821  0.33860  Biso   1.000  C
  C76      1.0000 0.65590  0.27821  0.16140  Biso   1.000  C
  H65      1.0000 0.73700  0.23320  0.61360  Biso   1.000  H
  H66      1.0000 0.26300  0.73320  0.88640  Biso   1.000  H
  H67      1.0000 0.26300  0.76680  0.38640  Biso   1.000  H
  H68      1.0000 0.73700  0.26680  0.11360  Biso   1.000  H
  H69      1.0000 0.56610  0.20000  0.63320  Biso   1.000  H
  H70      1.0000 0.43390  0.70000  0.86680  Biso   1.000  H
  H71      1.0000 0.43390  0.80000  0.36680  Biso   1.000  H
  H72      1.0000 0.56610  0.30000  0.13320  Biso   1.000  H
  C77      1.0000 0.65300  0.18246  0.80490  Biso   1.000  C
  C78      1.0000 0.34700  0.68246  0.69510  Biso   1.000  C
  C79      1.0000 0.34700  0.81754  0.19510  Biso   1.000  C
  C80      1.0000 0.65300  0.31754  0.30490  Biso   1.000  C
  H73      1.0000 0.73170  0.16740  0.85300  Biso   1.000  H
  H74      1.0000 0.26830  0.66740  0.64700  Biso   1.000  H
  H75      1.0000 0.26830  0.83260  0.14700  Biso   1.000  H
  H76      1.0000 0.73170  0.33260  0.35300  Biso   1.000  H
  H77      1.0000 0.56270  0.16030  0.77810  Biso   1.000  H
  H78      1.0000 0.43730  0.66030  0.72190  Biso   1.000  H
  H79      1.0000 0.43730  0.83970  0.22190  Biso   1.000  H
  H80      1.0000 0.56270  0.33970  0.27810  Biso   1.000  H
  C81      1.0000 0.68510  0.25256  0.88460  Biso   1.000  C
  C82      1.0000 0.31490  0.75256  0.61540  Biso   1.000  C
  C83      1.0000 0.31490  0.74744  0.11540  Biso   1.000  C
  C84      1.0000 0.68510  0.24744  0.38460  Biso   1.000  C
  H81      1.0000 0.61640  0.27750  0.91220  Biso   1.000  H
  H82      1.0000 0.38360  0.77750  0.58780  Biso   1.000  H
  H83      1.0000 0.38360  0.72250  0.08780  Biso   1.000  H
  H84      1.0000 0.61640  0.22250  0.41220  Biso   1.000  H
  H85      1.0000 0.76460  0.23800  0.93310  Biso   1.000  H
  H86      1.0000 0.23540  0.73800  0.56690  Biso   1.000  H
  H87      1.0000 0.23540  0.76200  0.06690  Biso   1.000  H
  H88      1.0000 0.76460  0.26200  0.43310  Biso   1.000  H
  C85      1.0000 0.43010  0.24160  0.77180  Biso   1.000  C
  C86      1.0000 0.56990  0.74160  0.72820  Biso   1.000  C
  C87      1.0000 0.56990  0.75840  0.22820  Biso   1.000  C
  C88      1.0000 0.43010  0.25840  0.27180  Biso   1.000  C
  H89      1.0000 0.33910  0.21970  0.74460  Biso   1.000  H
  H90      1.0000 0.66090  0.71970  0.75540  Biso   1.000  H
  H91      1.0000 0.66090  0.78030  0.25540  Biso   1.000  H
  H92      1.0000 0.33910  0.28030  0.24460  Biso   1.000  H
  H93      1.0000 0.35670  0.26630  0.79760  Biso   1.000  H
  H94      1.0000 0.64330  0.76630  0.70240  Biso   1.000  H
  H95      1.0000 0.64330  0.73370  0.20240  Biso   1.000  H
  H96      1.0000 0.35670  0.23370  0.29760  Biso   1.000  H
