data_image0
_cell_length_a       13.8422
_cell_length_b       9.4132
_cell_length_c       21.6258
_cell_angle_alpha    90
_cell_angle_beta     101.911
_cell_angle_gamma    90

_symmetry_space_group_name_H-M    "P 1"
_symmetry_int_tables_number       1

loop_
  _symmetry_equiv_pos_as_xyz
  'x, y, z'

loop_
  _atom_site_label
  _atom_site_occupancy
  _atom_site_fract_x
  _atom_site_fract_y
  _atom_site_fract_z
  _atom_site_thermal_displace_type
  _atom_site_B_iso_or_equiv
  _atom_site_type_symbol
  Cu1      1.0000 0.48015  0.50000  0.38559  Biso   1.000  Cu
  Cu2      1.0000 0.98015  0.00000  0.38559  Biso   1.000  Cu
  Cu3      1.0000 0.51985  0.50000  0.61441  Biso   1.000  Cu
  Cu4      1.0000 0.01985  0.00000  0.61441  Biso   1.000  Cu
  Cu5      1.0000 0.67981  0.50000  0.22503  Biso   1.000  Cu
  Cu6      1.0000 0.17981  0.00000  0.22503  Biso   1.000  Cu
  Cu7      1.0000 0.32019  0.50000  0.77497  Biso   1.000  Cu
  Cu8      1.0000 0.82019  0.00000  0.77497  Biso   1.000  Cu
  Cu9      1.0000 0.93011  0.50000  0.09508  Biso   1.000  Cu
  Cu10     1.0000 0.43011  0.00000  0.09508  Biso   1.000  Cu
  Cu11     1.0000 0.06989  0.50000  0.90492  Biso   1.000  Cu
  Cu12     1.0000 0.56989  0.00000  0.90492  Biso   1.000  Cu
  Cu13     1.0000 0.28109  0.50000  0.37085  Biso   1.000  Cu
  Cu14     1.0000 0.78109  0.00000  0.37085  Biso   1.000  Cu
  Cu15     1.0000 0.71891  0.50000  0.62915  Biso   1.000  Cu
  Cu16     1.0000 0.21891  0.00000  0.62915  Biso   1.000  Cu
  Cu17     1.0000 0.35491  0.00000  0.33036  Biso   1.000  Cu
  Cu18     1.0000 0.85491  0.50000  0.33036  Biso   1.000  Cu
  Cu19     1.0000 0.64509  0.00000  0.66964  Biso   1.000  Cu
  Cu20     1.0000 0.14509  0.50000  0.66964  Biso   1.000  Cu
  Cu21     1.0000 0.10937  0.50000  0.16830  Biso   1.000  Cu
  Cu22     1.0000 0.60937  0.00000  0.16830  Biso   1.000  Cu
  Cu23     1.0000 0.89063  0.50000  0.83170  Biso   1.000  Cu
  Cu24     1.0000 0.39063  0.00000  0.83170  Biso   1.000  Cu
  Cu25     1.0000 0.00334  0.00000  0.13585  Biso   1.000  Cu
  Cu26     1.0000 0.50334  0.50000  0.13585  Biso   1.000  Cu
  Cu27     1.0000 0.99666  0.00000  0.86415  Biso   1.000  Cu
  Cu28     1.0000 0.49666  0.50000  0.86415  Biso   1.000  Cu
  N1       1.0000 0.49350  0.50000  0.47300  Biso   1.000  N
  N2       1.0000 0.99350  0.00000  0.47300  Biso   1.000  N
  N3       1.0000 0.50650  0.50000  0.52700  Biso   1.000  N
  N4       1.0000 0.00650  0.00000  0.52700  Biso   1.000  N
  N5       1.0000 0.98130  0.50000  0.02135  Biso   1.000  N
  N6       1.0000 0.48130  0.00000  0.02135  Biso   1.000  N
  N7       1.0000 0.01870  0.50000  0.97865  Biso   1.000  N
  N8       1.0000 0.51870  0.00000  0.97865  Biso   1.000  N
  C1       1.0000 0.54480  0.50000  0.31834  Biso   1.000  C
  C2       1.0000 0.04480  0.00000  0.31834  Biso   1.000  C
  C3       1.0000 0.45520  0.50000  0.68166  Biso   1.000  C
  C4       1.0000 0.95520  0.00000  0.68166  Biso   1.000  C
  N9       1.0000 0.59740  0.50000  0.28347  Biso   1.000  N
  N10      1.0000 0.09740  0.00000  0.28347  Biso   1.000  N
  N11      1.0000 0.40260  0.50000  0.71653  Biso   1.000  N
  N12      1.0000 0.90260  0.00000  0.71653  Biso   1.000  N
  C5       1.0000 0.77800  0.50000  0.17748  Biso   1.000  C
  C6       1.0000 0.27800  0.00000  0.17748  Biso   1.000  C
  C7       1.0000 0.22200  0.50000  0.82252  Biso   1.000  C
  C8       1.0000 0.72200  0.00000  0.82252  Biso   1.000  C
  N13      1.0000 0.83620  0.50000  0.14625  Biso   1.000  N
  N14      1.0000 0.33620  0.00000  0.14625  Biso   1.000  N
  N15      1.0000 0.16380  0.50000  0.85375  Biso   1.000  N
  N16      1.0000 0.66380  0.00000  0.85375  Biso   1.000  N
  C9       1.0000 0.31490  0.30950  0.35548  Biso   1.000  C
  C10      1.0000 0.81490  0.80950  0.35548  Biso   1.000  C
  C11      1.0000 0.68510  0.30950  0.64452  Biso   1.000  C
  C12      1.0000 0.18510  0.80950  0.64452  Biso   1.000  C
  C13      1.0000 0.68510  0.69050  0.64452  Biso   1.000  C
  C14      1.0000 0.18510  0.19050  0.64452  Biso   1.000  C
  C15      1.0000 0.31490  0.69050  0.35548  Biso   1.000  C
  C16      1.0000 0.81490  0.19050  0.35548  Biso   1.000  C
  N17      1.0000 0.32690  0.19220  0.34555  Biso   1.000  N
  N18      1.0000 0.82690  0.69220  0.34555  Biso   1.000  N
  N19      1.0000 0.67310  0.19220  0.65445  Biso   1.000  N
  N20      1.0000 0.17310  0.69220  0.65445  Biso   1.000  N
  N21      1.0000 0.67310  0.80780  0.65445  Biso   1.000  N
  N22      1.0000 0.17310  0.30780  0.65445  Biso   1.000  N
  N23      1.0000 0.32690  0.80780  0.34555  Biso   1.000  N
  N24      1.0000 0.82690  0.30780  0.34555  Biso   1.000  N
  N25      1.0000 0.56397  0.19020  0.15589  Biso   1.000  N
  N26      1.0000 0.06397  0.69020  0.15589  Biso   1.000  N
  N27      1.0000 0.43603  0.19020  0.84411  Biso   1.000  N
  N28      1.0000 0.93603  0.69020  0.84411  Biso   1.000  N
  N29      1.0000 0.43603  0.80980  0.84411  Biso   1.000  N
  N30      1.0000 0.93603  0.30980  0.84411  Biso   1.000  N
  N31      1.0000 0.56397  0.80980  0.15589  Biso   1.000  N
  N32      1.0000 0.06397  0.30980  0.15589  Biso   1.000  N
  C17      1.0000 0.54406  0.30850  0.14741  Biso   1.000  C
  C18      1.0000 0.04406  0.80850  0.14741  Biso   1.000  C
  C19      1.0000 0.45594  0.30850  0.85259  Biso   1.000  C
  C20      1.0000 0.95594  0.80850  0.85259  Biso   1.000  C
  C21      1.0000 0.45594  0.69150  0.85259  Biso   1.000  C
  C22      1.0000 0.95594  0.19150  0.85259  Biso   1.000  C
  C23      1.0000 0.54406  0.69150  0.14741  Biso   1.000  C
  C24      1.0000 0.04406  0.19150  0.14741  Biso   1.000  C
  N33      1.0000 0.26200  0.50000  0.20575  Biso   1.000  N
  N34      1.0000 0.76200  0.00000  0.20575  Biso   1.000  N
  N35      1.0000 0.73800  0.50000  0.79425  Biso   1.000  N
  N36      1.0000 0.23800  0.00000  0.79425  Biso   1.000  N
  H1       1.0000 0.27100  0.50000  0.24860  Biso   1.000  H
  H2       1.0000 0.77100  0.00000  0.24860  Biso   1.000  H
  H3       1.0000 0.72900  0.50000  0.75140  Biso   1.000  H
  H4       1.0000 0.22900  0.00000  0.75140  Biso   1.000  H
  N37      1.0000 0.34760  0.50000  0.09529  Biso   1.000  N
  N38      1.0000 0.84760  0.00000  0.09529  Biso   1.000  N
  N39      1.0000 0.65240  0.50000  0.90471  Biso   1.000  N
  N40      1.0000 0.15240  0.00000  0.90471  Biso   1.000  N
  N41      1.0000 0.99130  0.50000  0.29686  Biso   1.000  N
  N42      1.0000 0.49130  0.00000  0.29686  Biso   1.000  N
  N43      1.0000 0.00870  0.50000  0.70314  Biso   1.000  N
  N44      1.0000 0.50870  0.00000  0.70314  Biso   1.000  N
  H5       1.0000 0.97480  0.50000  0.25390  Biso   1.000  H
  H6       1.0000 0.47480  0.00000  0.25390  Biso   1.000  H
  H7       1.0000 0.02520  0.50000  0.74610  Biso   1.000  H
  H8       1.0000 0.52520  0.00000  0.74610  Biso   1.000  H
  N45      1.0000 0.14810  0.50000  0.40697  Biso   1.000  N
  N46      1.0000 0.64810  0.00000  0.40697  Biso   1.000  N
  N47      1.0000 0.85190  0.50000  0.59303  Biso   1.000  N
  N48      1.0000 0.35190  0.00000  0.59303  Biso   1.000  N
  C25      1.0000 0.31020  0.62770  0.18679  Biso   1.000  C
  C26      1.0000 0.81020  0.12770  0.18679  Biso   1.000  C
  C27      1.0000 0.68980  0.62770  0.81321  Biso   1.000  C
  C28      1.0000 0.18980  0.12770  0.81321  Biso   1.000  C
  C29      1.0000 0.68980  0.37230  0.81321  Biso   1.000  C
  C30      1.0000 0.18980  0.87230  0.81321  Biso   1.000  C
  C31      1.0000 0.31020  0.37230  0.18679  Biso   1.000  C
  C32      1.0000 0.81020  0.87230  0.18679  Biso   1.000  C
  H9       1.0000 0.37930  0.62850  0.20750  Biso   1.000  H
  H10      1.0000 0.87930  0.12850  0.20750  Biso   1.000  H
  H11      1.0000 0.62070  0.62850  0.79250  Biso   1.000  H
  H12      1.0000 0.12070  0.12850  0.79250  Biso   1.000  H
  H13      1.0000 0.62070  0.37150  0.79250  Biso   1.000  H
  H14      1.0000 0.12070  0.87150  0.79250  Biso   1.000  H
  H15      1.0000 0.37930  0.37150  0.20750  Biso   1.000  H
  H16      1.0000 0.87930  0.87150  0.20750  Biso   1.000  H
  H17      1.0000 0.27930  0.71220  0.19950  Biso   1.000  H
  H18      1.0000 0.77930  0.21220  0.19950  Biso   1.000  H
  H19      1.0000 0.72070  0.71220  0.80050  Biso   1.000  H
  H20      1.0000 0.22070  0.21220  0.80050  Biso   1.000  H
  H21      1.0000 0.72070  0.28780  0.80050  Biso   1.000  H
  H22      1.0000 0.22070  0.78780  0.80050  Biso   1.000  H
  H23      1.0000 0.27930  0.28780  0.19950  Biso   1.000  H
  H24      1.0000 0.77930  0.78780  0.19950  Biso   1.000  H
  C33      1.0000 0.30080  0.62740  0.11598  Biso   1.000  C
  C34      1.0000 0.80080  0.12740  0.11598  Biso   1.000  C
  C35      1.0000 0.69920  0.62740  0.88402  Biso   1.000  C
  C36      1.0000 0.19920  0.12740  0.88402  Biso   1.000  C
  C37      1.0000 0.69920  0.37260  0.88402  Biso   1.000  C
  C38      1.0000 0.19920  0.87260  0.88402  Biso   1.000  C
  C39      1.0000 0.30080  0.37260  0.11598  Biso   1.000  C
  C40      1.0000 0.80080  0.87260  0.11598  Biso   1.000  C
  H25      1.0000 0.23150  0.62950  0.09550  Biso   1.000  H
  H26      1.0000 0.73150  0.12950  0.09550  Biso   1.000  H
  H27      1.0000 0.76850  0.62950  0.90450  Biso   1.000  H
  H28      1.0000 0.26850  0.12950  0.90450  Biso   1.000  H
  H29      1.0000 0.76850  0.37050  0.90450  Biso   1.000  H
  H30      1.0000 0.26850  0.87050  0.90450  Biso   1.000  H
  H31      1.0000 0.23150  0.37050  0.09550  Biso   1.000  H
  H32      1.0000 0.73150  0.87050  0.09550  Biso   1.000  H
  H33      1.0000 0.33190  0.71200  0.10340  Biso   1.000  H
  H34      1.0000 0.83190  0.21200  0.10340  Biso   1.000  H
  H35      1.0000 0.66810  0.71200  0.89660  Biso   1.000  H
  H36      1.0000 0.16810  0.21200  0.89660  Biso   1.000  H
  H37      1.0000 0.66810  0.28800  0.89660  Biso   1.000  H
  H38      1.0000 0.16810  0.78800  0.89660  Biso   1.000  H
  H39      1.0000 0.33190  0.28800  0.10340  Biso   1.000  H
  H40      1.0000 0.83190  0.78800  0.10340  Biso   1.000  H
  C41      1.0000 0.33280  0.50000  0.02520  Biso   1.000  C
  C42      1.0000 0.83280  0.00000  0.02520  Biso   1.000  C
  C43      1.0000 0.66720  0.50000  0.97480  Biso   1.000  C
  C44      1.0000 0.16720  0.00000  0.97480  Biso   1.000  C
  H41      1.0000 0.35590  0.58920  0.01240  Biso   1.000  H
  H42      1.0000 0.85590  0.08920  0.01240  Biso   1.000  H
  H43      1.0000 0.64410  0.58920  0.98760  Biso   1.000  H
  H44      1.0000 0.14410  0.08920  0.98760  Biso   1.000  H
  H45      1.0000 0.64410  0.41080  0.98760  Biso   1.000  H
  H46      1.0000 0.14410  0.91080  0.98760  Biso   1.000  H
  H47      1.0000 0.35590  0.41080  0.01240  Biso   1.000  H
  H48      1.0000 0.85590  0.91080  0.01240  Biso   1.000  H
  H49      1.0000 0.26310  0.50000  0.00810  Biso   1.000  H
  H50      1.0000 0.76310  0.00000  0.00810  Biso   1.000  H
  H51      1.0000 0.73690  0.50000  0.99190  Biso   1.000  H
  H52      1.0000 0.23690  0.00000  0.99190  Biso   1.000  H
  C45      1.0000 0.37780  0.39220  0.99580  Biso   1.000  C
  C46      1.0000 0.87780  0.89220  0.99580  Biso   1.000  C
  C47      1.0000 0.62220  0.39220  0.00420  Biso   1.000  C
  C48      1.0000 0.12220  0.89220  0.00420  Biso   1.000  C
  C49      1.0000 0.62220  0.60780  0.00420  Biso   1.000  C
  C50      1.0000 0.12220  0.10780  0.00420  Biso   1.000  C
  C51      1.0000 0.37780  0.60780  0.99580  Biso   1.000  C
  C52      1.0000 0.87780  0.10780  0.99580  Biso   1.000  C
  H53      1.0000 0.36300  0.40320  0.95070  Biso   1.000  H
  H54      1.0000 0.86300  0.90320  0.95070  Biso   1.000  H
  H55      1.0000 0.63700  0.40320  0.04930  Biso   1.000  H
  H56      1.0000 0.13700  0.90320  0.04930  Biso   1.000  H
  H57      1.0000 0.63700  0.59680  0.04930  Biso   1.000  H
  H58      1.0000 0.13700  0.09680  0.04930  Biso   1.000  H
  H59      1.0000 0.36300  0.59680  0.95070  Biso   1.000  H
  H60      1.0000 0.86300  0.09680  0.95070  Biso   1.000  H
  H61      1.0000 0.44800  0.39700  0.01110  Biso   1.000  H
  H62      1.0000 0.94800  0.89700  0.01110  Biso   1.000  H
  H63      1.0000 0.55200  0.39700  0.98890  Biso   1.000  H
  H64      1.0000 0.05200  0.89700  0.98890  Biso   1.000  H
  H65      1.0000 0.55200  0.60300  0.98890  Biso   1.000  H
  H66      1.0000 0.05200  0.10300  0.98890  Biso   1.000  H
  H67      1.0000 0.44800  0.60300  0.01110  Biso   1.000  H
  H68      1.0000 0.94800  0.10300  0.01110  Biso   1.000  H
  H69      1.0000 0.35390  0.30180  0.00670  Biso   1.000  H
  H70      1.0000 0.85390  0.80180  0.00670  Biso   1.000  H
  H71      1.0000 0.64610  0.30180  0.99330  Biso   1.000  H
  H72      1.0000 0.14610  0.80180  0.99330  Biso   1.000  H
  H73      1.0000 0.64610  0.69820  0.99330  Biso   1.000  H
  H74      1.0000 0.14610  0.19820  0.99330  Biso   1.000  H
  H75      1.0000 0.35390  0.69820  0.00670  Biso   1.000  H
  H76      1.0000 0.85390  0.19820  0.00670  Biso   1.000  H
  C53      1.0000 0.05160  0.62650  0.31547  Biso   1.000  C
  C54      1.0000 0.55160  0.12650  0.31547  Biso   1.000  C
  C55      1.0000 0.94840  0.62650  0.68453  Biso   1.000  C
  C56      1.0000 0.44840  0.12650  0.68453  Biso   1.000  C
  C57      1.0000 0.94840  0.37350  0.68453  Biso   1.000  C
  C58      1.0000 0.44840  0.87350  0.68453  Biso   1.000  C
  C59      1.0000 0.05160  0.37350  0.31547  Biso   1.000  C
  C60      1.0000 0.55160  0.87350  0.31547  Biso   1.000  C
  H77      1.0000 0.01260  0.71110  0.30260  Biso   1.000  H
  H78      1.0000 0.51260  0.21110  0.30260  Biso   1.000  H
  H79      1.0000 0.98740  0.71110  0.69740  Biso   1.000  H
  H80      1.0000 0.48740  0.21110  0.69740  Biso   1.000  H
  H81      1.0000 0.98740  0.28890  0.69740  Biso   1.000  H
  H82      1.0000 0.48740  0.78890  0.69740  Biso   1.000  H
  H83      1.0000 0.01260  0.28890  0.30260  Biso   1.000  H
  H84      1.0000 0.51260  0.78890  0.30260  Biso   1.000  H
  H85      1.0000 0.10730  0.62680  0.29470  Biso   1.000  H
  H86      1.0000 0.60730  0.12680  0.29470  Biso   1.000  H
  H87      1.0000 0.89270  0.62680  0.70530  Biso   1.000  H
  H88      1.0000 0.39270  0.12680  0.70530  Biso   1.000  H
  H89      1.0000 0.89270  0.37320  0.70530  Biso   1.000  H
  H90      1.0000 0.39270  0.87320  0.70530  Biso   1.000  H
  H91      1.0000 0.10730  0.37320  0.29470  Biso   1.000  H
  H92      1.0000 0.60730  0.87320  0.29470  Biso   1.000  H
  C61      1.0000 0.08770  0.62710  0.38554  Biso   1.000  C
  C62      1.0000 0.58770  0.12710  0.38554  Biso   1.000  C
  C63      1.0000 0.91230  0.62710  0.61446  Biso   1.000  C
  C64      1.0000 0.41230  0.12710  0.61446  Biso   1.000  C
  C65      1.0000 0.91230  0.37290  0.61446  Biso   1.000  C
  C66      1.0000 0.41230  0.87290  0.61446  Biso   1.000  C
  C67      1.0000 0.08770  0.37290  0.38554  Biso   1.000  C
  C68      1.0000 0.58770  0.87290  0.38554  Biso   1.000  C
  H93      1.0000 0.12690  0.71190  0.39780  Biso   1.000  H
  H94      1.0000 0.62690  0.21190  0.39780  Biso   1.000  H
  H95      1.0000 0.87310  0.71190  0.60220  Biso   1.000  H
  H96      1.0000 0.37310  0.21190  0.60220  Biso   1.000  H
  H97      1.0000 0.87310  0.28810  0.60220  Biso   1.000  H
  H98      1.0000 0.37310  0.78810  0.60220  Biso   1.000  H
  H99      1.0000 0.12690  0.28810  0.39780  Biso   1.000  H
  H100     1.0000 0.62690  0.78810  0.39780  Biso   1.000  H
  H101     1.0000 0.03170  0.62980  0.40600  Biso   1.000  H
  H102     1.0000 0.53170  0.12980  0.40600  Biso   1.000  H
  H103     1.0000 0.96830  0.62980  0.59400  Biso   1.000  H
  H104     1.0000 0.46830  0.12980  0.59400  Biso   1.000  H
  H105     1.0000 0.96830  0.37020  0.59400  Biso   1.000  H
  H106     1.0000 0.46830  0.87020  0.59400  Biso   1.000  H
  H107     1.0000 0.03170  0.37020  0.40600  Biso   1.000  H
  H108     1.0000 0.53170  0.87020  0.40600  Biso   1.000  H
  C69      1.0000 0.17520  0.45900  0.47740  Biso   1.000  C
  C70      1.0000 0.67520  0.95900  0.47740  Biso   1.000  C
  C71      1.0000 0.82480  0.45900  0.52260  Biso   1.000  C
  C72      1.0000 0.32480  0.95900  0.52260  Biso   1.000  C
  C73      1.0000 0.82480  0.54100  0.52260  Biso   1.000  C
  C74      1.0000 0.32480  0.04100  0.52260  Biso   1.000  C
  C75      1.0000 0.17520  0.54100  0.47740  Biso   1.000  C
  C76      1.0000 0.67520  0.04100  0.47740  Biso   1.000  C
  H109     1.0000 0.20920  0.36950  0.48230  Biso   1.000  H
  H110     1.0000 0.70920  0.86950  0.48230  Biso   1.000  H
  H111     1.0000 0.79080  0.36950  0.51770  Biso   1.000  H
  H112     1.0000 0.29080  0.86950  0.51770  Biso   1.000  H
  H113     1.0000 0.79080  0.63050  0.51770  Biso   1.000  H
  H114     1.0000 0.29080  0.13050  0.51770  Biso   1.000  H
  H115     1.0000 0.20920  0.63050  0.48230  Biso   1.000  H
  H116     1.0000 0.70920  0.13050  0.48230  Biso   1.000  H
  H117     1.0000 0.11650  0.45040  0.49420  Biso   1.000  H
  H118     1.0000 0.61650  0.95040  0.49420  Biso   1.000  H
  H119     1.0000 0.88350  0.45040  0.50580  Biso   1.000  H
  H120     1.0000 0.38350  0.95040  0.50580  Biso   1.000  H
  H121     1.0000 0.88350  0.54960  0.50580  Biso   1.000  H
  H122     1.0000 0.38350  0.04960  0.50580  Biso   1.000  H
  H123     1.0000 0.11650  0.54960  0.49420  Biso   1.000  H
  H124     1.0000 0.61650  0.04960  0.49420  Biso   1.000  H
  C77      1.0000 0.24110  0.57140  0.51250  Biso   1.000  C
  C78      1.0000 0.74110  0.07140  0.51250  Biso   1.000  C
  C79      1.0000 0.75890  0.57140  0.48750  Biso   1.000  C
  C80      1.0000 0.25890  0.07140  0.48750  Biso   1.000  C
  C81      1.0000 0.75890  0.42860  0.48750  Biso   1.000  C
  C82      1.0000 0.25890  0.92860  0.48750  Biso   1.000  C
  C83      1.0000 0.24110  0.42860  0.51250  Biso   1.000  C
  C84      1.0000 0.74110  0.92860  0.51250  Biso   1.000  C
  H125     1.0000 0.25920  0.54860  0.55670  Biso   1.000  H
  H126     1.0000 0.75920  0.04860  0.55670  Biso   1.000  H
  H127     1.0000 0.74080  0.54860  0.44330  Biso   1.000  H
  H128     1.0000 0.24080  0.04860  0.44330  Biso   1.000  H
  H129     1.0000 0.74080  0.45140  0.44330  Biso   1.000  H
  H130     1.0000 0.24080  0.95140  0.44330  Biso   1.000  H
  H131     1.0000 0.25920  0.45140  0.55670  Biso   1.000  H
  H132     1.0000 0.75920  0.95140  0.55670  Biso   1.000  H
  H133     1.0000 0.29960  0.57880  0.49530  Biso   1.000  H
  H134     1.0000 0.79960  0.07880  0.49530  Biso   1.000  H
  H135     1.0000 0.70040  0.57880  0.50470  Biso   1.000  H
  H136     1.0000 0.20040  0.07880  0.50470  Biso   1.000  H
  H137     1.0000 0.70040  0.42120  0.50470  Biso   1.000  H
  H138     1.0000 0.20040  0.92120  0.50470  Biso   1.000  H
  H139     1.0000 0.29960  0.42120  0.49530  Biso   1.000  H
  H140     1.0000 0.79960  0.92120  0.49530  Biso   1.000  H
  H141     1.0000 0.20630  0.33980  0.50730  Biso   1.000  H
  H142     1.0000 0.70630  0.83980  0.50730  Biso   1.000  H
  H143     1.0000 0.79370  0.33980  0.49270  Biso   1.000  H
  H144     1.0000 0.29370  0.83980  0.49270  Biso   1.000  H
  H145     1.0000 0.79370  0.66020  0.49270  Biso   1.000  H
  H146     1.0000 0.29370  0.16020  0.49270  Biso   1.000  H
  H147     1.0000 0.20630  0.66020  0.50730  Biso   1.000  H
  H148     1.0000 0.70630  0.16020  0.50730  Biso   1.000  H
