data_image0
_cell_length_a       13.1088
_cell_length_b       9.3972
_cell_length_c       9.5547
_cell_angle_alpha    90
_cell_angle_beta     133.129
_cell_angle_gamma    90

_symmetry_space_group_name_H-M    "P 1"
_symmetry_int_tables_number       1

loop_
  _symmetry_equiv_pos_as_xyz
  'x, y, z'

loop_
  _atom_site_label
  _atom_site_occupancy
  _atom_site_fract_x
  _atom_site_fract_y
  _atom_site_fract_z
  _atom_site_thermal_displace_type
  _atom_site_B_iso_or_equiv
  _atom_site_type_symbol
  Cu1      1.0000 0.22675  0.00000  0.40325  Biso   1.000  Cu
  Cu2      1.0000 0.72675  0.50000  0.40325  Biso   1.000  Cu
  Cu3      1.0000 0.77325  0.00000  0.59675  Biso   1.000  Cu
  Cu4      1.0000 0.27325  0.50000  0.59675  Biso   1.000  Cu
  Cu5      1.0000 0.25280  0.00000  0.70605  Biso   1.000  Cu
  Cu6      1.0000 0.75280  0.50000  0.70605  Biso   1.000  Cu
  Cu7      1.0000 0.74720  0.00000  0.29395  Biso   1.000  Cu
  Cu8      1.0000 0.24720  0.50000  0.29395  Biso   1.000  Cu
  N1       1.0000 0.24694  0.19102  0.48170  Biso   1.000  N
  N2       1.0000 0.74694  0.69102  0.48170  Biso   1.000  N
  N3       1.0000 0.75306  0.19102  0.51830  Biso   1.000  N
  N4       1.0000 0.25306  0.69102  0.51830  Biso   1.000  N
  N5       1.0000 0.75306  0.80898  0.51830  Biso   1.000  N
  N6       1.0000 0.25306  0.30898  0.51830  Biso   1.000  N
  N7       1.0000 0.24694  0.80898  0.48170  Biso   1.000  N
  N8       1.0000 0.74694  0.30898  0.48170  Biso   1.000  N
  N9       1.0000 0.44230  0.00000  0.93070  Biso   1.000  N
  N10      1.0000 0.94230  0.50000  0.93070  Biso   1.000  N
  N11      1.0000 0.55770  0.00000  0.06930  Biso   1.000  N
  N12      1.0000 0.05770  0.50000  0.06930  Biso   1.000  N
  N13      1.0000 0.05980  0.00000  0.55130  Biso   1.000  N
  N14      1.0000 0.55980  0.50000  0.55130  Biso   1.000  N
  N15      1.0000 0.94020  0.00000  0.44870  Biso   1.000  N
  N16      1.0000 0.44020  0.50000  0.44870  Biso   1.000  N
  N17      1.0000 0.15140  0.00000  0.12210  Biso   1.000  N
  N18      1.0000 0.65140  0.50000  0.12210  Biso   1.000  N
  N19      1.0000 0.84860  0.00000  0.87790  Biso   1.000  N
  N20      1.0000 0.34860  0.50000  0.87790  Biso   1.000  N
  C1       1.0000 0.06390  0.12689  0.01390  Biso   1.000  C
  C2       1.0000 0.56390  0.62689  0.01390  Biso   1.000  C
  C3       1.0000 0.93610  0.12689  0.98610  Biso   1.000  C
  C4       1.0000 0.43610  0.62689  0.98610  Biso   1.000  C
  C5       1.0000 0.93610  0.87311  0.98610  Biso   1.000  C
  C6       1.0000 0.43610  0.37311  0.98610  Biso   1.000  C
  C7       1.0000 0.06390  0.87311  0.01390  Biso   1.000  C
  C8       1.0000 0.56390  0.37311  0.01390  Biso   1.000  C
  H1       1.0000 0.03540  0.12830  0.88970  Biso   1.000  H
  H2       1.0000 0.53540  0.62830  0.88970  Biso   1.000  H
  H3       1.0000 0.96460  0.12830  0.11030  Biso   1.000  H
  H4       1.0000 0.46460  0.62830  0.11030  Biso   1.000  H
  H5       1.0000 0.96460  0.87170  0.11030  Biso   1.000  H
  H6       1.0000 0.46460  0.37170  0.11030  Biso   1.000  H
  H7       1.0000 0.03540  0.87170  0.88970  Biso   1.000  H
  H8       1.0000 0.53540  0.37170  0.88970  Biso   1.000  H
  H9       1.0000 0.11830  0.21210  0.08290  Biso   1.000  H
  H10      1.0000 0.61830  0.71210  0.08290  Biso   1.000  H
  H11      1.0000 0.88170  0.21210  0.91710  Biso   1.000  H
  H12      1.0000 0.38170  0.71210  0.91710  Biso   1.000  H
  H13      1.0000 0.88170  0.78790  0.91710  Biso   1.000  H
  H14      1.0000 0.38170  0.28790  0.91710  Biso   1.000  H
  H15      1.0000 0.11830  0.78790  0.08290  Biso   1.000  H
  H16      1.0000 0.61830  0.28790  0.08290  Biso   1.000  H
  C9       1.0000 0.27190  0.00000  0.13830  Biso   1.000  C
  C10      1.0000 0.77190  0.50000  0.13830  Biso   1.000  C
  C11      1.0000 0.72810  0.00000  0.86170  Biso   1.000  C
  C12      1.0000 0.22810  0.50000  0.86170  Biso   1.000  C
  H17      1.0000 0.24000  0.00000  0.01310  Biso   1.000  H
  H18      1.0000 0.74000  0.50000  0.01310  Biso   1.000  H
  H19      1.0000 0.76000  0.00000  0.98690  Biso   1.000  H
  H20      1.0000 0.26000  0.50000  0.98690  Biso   1.000  H
  H21      1.0000 0.32730  0.08340  0.20700  Biso   1.000  H
  H22      1.0000 0.82730  0.58340  0.20700  Biso   1.000  H
  H23      1.0000 0.67270  0.08340  0.79300  Biso   1.000  H
  H24      1.0000 0.17270  0.58340  0.79300  Biso   1.000  H
  H25      1.0000 0.67270  0.91660  0.79300  Biso   1.000  H
  H26      1.0000 0.17270  0.41660  0.79300  Biso   1.000  H
  H27      1.0000 0.32730  0.91660  0.20700  Biso   1.000  H
  H28      1.0000 0.82730  0.41660  0.20700  Biso   1.000  H
  C13      1.0000 0.37900  0.11050  0.25690  Biso   1.000  C
  C14      1.0000 0.87900  0.61050  0.25690  Biso   1.000  C
  C15      1.0000 0.62100  0.11050  0.74310  Biso   1.000  C
  C16      1.0000 0.12100  0.61050  0.74310  Biso   1.000  C
  C17      1.0000 0.62100  0.88950  0.74310  Biso   1.000  C
  C18      1.0000 0.12100  0.38950  0.74310  Biso   1.000  C
  C19      1.0000 0.37900  0.88950  0.25690  Biso   1.000  C
  C20      1.0000 0.87900  0.38950  0.25690  Biso   1.000  C
  H29      1.0000 0.45200  0.09820  0.25740  Biso   1.000  H
  H30      1.0000 0.95200  0.59820  0.25740  Biso   1.000  H
  H31      1.0000 0.54800  0.09820  0.74260  Biso   1.000  H
  H32      1.0000 0.04800  0.59820  0.74260  Biso   1.000  H
  H33      1.0000 0.54800  0.90180  0.74260  Biso   1.000  H
  H34      1.0000 0.04800  0.40180  0.74260  Biso   1.000  H
  H35      1.0000 0.45200  0.90180  0.25740  Biso   1.000  H
  H36      1.0000 0.95200  0.40180  0.25740  Biso   1.000  H
  H37      1.0000 0.41790  0.10460  0.38580  Biso   1.000  H
  H38      1.0000 0.91790  0.60460  0.38580  Biso   1.000  H
  H39      1.0000 0.58210  0.10460  0.61420  Biso   1.000  H
  H40      1.0000 0.08210  0.60460  0.61420  Biso   1.000  H
  H41      1.0000 0.58210  0.89540  0.61420  Biso   1.000  H
  H42      1.0000 0.08210  0.39540  0.61420  Biso   1.000  H
  H43      1.0000 0.41790  0.89540  0.38580  Biso   1.000  H
  H44      1.0000 0.91790  0.39540  0.38580  Biso   1.000  H
  H45      1.0000 0.33600  0.20190  0.20390  Biso   1.000  H
  H46      1.0000 0.83600  0.70190  0.20390  Biso   1.000  H
  H47      1.0000 0.66400  0.20190  0.79610  Biso   1.000  H
  H48      1.0000 0.16400  0.70190  0.79610  Biso   1.000  H
  H49      1.0000 0.66400  0.79810  0.79610  Biso   1.000  H
  H50      1.0000 0.16400  0.29810  0.79610  Biso   1.000  H
  H51      1.0000 0.33600  0.79810  0.20390  Biso   1.000  H
  H52      1.0000 0.83600  0.29810  0.20390  Biso   1.000  H
