data_image0
_cell_length_a       21.7147
_cell_length_b       6.9228
_cell_length_c       15.6273
_cell_angle_alpha    90
_cell_angle_beta     111.294
_cell_angle_gamma    90

_symmetry_space_group_name_H-M    "P 1"
_symmetry_int_tables_number       1

loop_
  _symmetry_equiv_pos_as_xyz
  'x, y, z'

loop_
  _atom_site_label
  _atom_site_occupancy
  _atom_site_fract_x
  _atom_site_fract_y
  _atom_site_fract_z
  _atom_site_thermal_displace_type
  _atom_site_B_iso_or_equiv
  _atom_site_type_symbol
  Cu1      1.0000 0.76150  0.59369  0.55346  Biso   1.000  Cu
  Cu2      1.0000 0.26150  0.09369  0.55346  Biso   1.000  Cu
  Cu3      1.0000 0.23850  0.59369  0.94654  Biso   1.000  Cu
  Cu4      1.0000 0.73850  0.09369  0.94654  Biso   1.000  Cu
  Cu5      1.0000 0.23850  0.40631  0.44654  Biso   1.000  Cu
  Cu6      1.0000 0.73850  0.90631  0.44654  Biso   1.000  Cu
  Cu7      1.0000 0.76150  0.40631  0.05346  Biso   1.000  Cu
  Cu8      1.0000 0.26150  0.90631  0.05346  Biso   1.000  Cu
  Cu9      1.0000 0.94050  0.52236  0.46269  Biso   1.000  Cu
  Cu10     1.0000 0.44050  0.02236  0.46269  Biso   1.000  Cu
  Cu11     1.0000 0.05950  0.52236  0.03731  Biso   1.000  Cu
  Cu12     1.0000 0.55950  0.02236  0.03731  Biso   1.000  Cu
  Cu13     1.0000 0.05950  0.47764  0.53731  Biso   1.000  Cu
  Cu14     1.0000 0.55950  0.97764  0.53731  Biso   1.000  Cu
  Cu15     1.0000 0.94050  0.47764  0.96269  Biso   1.000  Cu
  Cu16     1.0000 0.44050  0.97764  0.96269  Biso   1.000  Cu
  Cu17     1.0000 0.00000  0.12143  0.75000  Biso   1.000  Cu
  Cu18     1.0000 0.50000  0.62143  0.75000  Biso   1.000  Cu
  Cu19     1.0000 0.00000  0.87857  0.25000  Biso   1.000  Cu
  Cu20     1.0000 0.50000  0.37857  0.25000  Biso   1.000  Cu
  C1       1.0000 0.81879  0.74530  0.46758  Biso   1.000  C
  C2       1.0000 0.31879  0.24530  0.46758  Biso   1.000  C
  C3       1.0000 0.18121  0.74530  0.03242  Biso   1.000  C
  C4       1.0000 0.68121  0.24530  0.03242  Biso   1.000  C
  C5       1.0000 0.18121  0.25470  0.53242  Biso   1.000  C
  C6       1.0000 0.68121  0.75470  0.53242  Biso   1.000  C
  C7       1.0000 0.81879  0.25470  0.96758  Biso   1.000  C
  C8       1.0000 0.31879  0.75470  0.96758  Biso   1.000  C
  N1       1.0000 0.86657  0.67570  0.46496  Biso   1.000  N
  N2       1.0000 0.36657  0.17570  0.46496  Biso   1.000  N
  N3       1.0000 0.13343  0.67570  0.03504  Biso   1.000  N
  N4       1.0000 0.63343  0.17570  0.03504  Biso   1.000  N
  N5       1.0000 0.13343  0.32430  0.53504  Biso   1.000  N
  N6       1.0000 0.63343  0.82430  0.53504  Biso   1.000  N
  N7       1.0000 0.86657  0.32430  0.96496  Biso   1.000  N
  N8       1.0000 0.36657  0.82430  0.96496  Biso   1.000  N
  C9       1.0000 0.98212  0.35150  0.57461  Biso   1.000  C
  C10      1.0000 0.48212  0.85150  0.57461  Biso   1.000  C
  C11      1.0000 0.01788  0.35150  0.92539  Biso   1.000  C
  C12      1.0000 0.51788  0.85150  0.92539  Biso   1.000  C
  C13      1.0000 0.01788  0.64850  0.42539  Biso   1.000  C
  C14      1.0000 0.51788  0.14850  0.42539  Biso   1.000  C
  C15      1.0000 0.98212  0.64850  0.07461  Biso   1.000  C
  C16      1.0000 0.48212  0.14850  0.07461  Biso   1.000  C
  N9       1.0000 0.97946  0.26060  0.63522  Biso   1.000  N
  N10      1.0000 0.47946  0.76060  0.63522  Biso   1.000  N
  N11      1.0000 0.02054  0.26060  0.86478  Biso   1.000  N
  N12      1.0000 0.52054  0.76060  0.86478  Biso   1.000  N
  N13      1.0000 0.02054  0.73940  0.36478  Biso   1.000  N
  N14      1.0000 0.52054  0.23940  0.36478  Biso   1.000  N
  N15      1.0000 0.97946  0.73940  0.13522  Biso   1.000  N
  N16      1.0000 0.47946  0.23940  0.13522  Biso   1.000  N
  N17      1.0000 0.75496  0.32780  0.51505  Biso   1.000  N
  N18      1.0000 0.25496  0.82780  0.51505  Biso   1.000  N
  N19      1.0000 0.24504  0.32780  0.98495  Biso   1.000  N
  N20      1.0000 0.74504  0.82780  0.98495  Biso   1.000  N
  N21      1.0000 0.24504  0.67220  0.48495  Biso   1.000  N
  N22      1.0000 0.74504  0.17220  0.48495  Biso   1.000  N
  N23      1.0000 0.75496  0.67220  0.01505  Biso   1.000  N
  N24      1.0000 0.25496  0.17220  0.01505  Biso   1.000  N
  N25      1.0000 0.82913  0.71470  0.68312  Biso   1.000  N
  N26      1.0000 0.32913  0.21470  0.68312  Biso   1.000  N
  N27      1.0000 0.17087  0.71470  0.81688  Biso   1.000  N
  N28      1.0000 0.67087  0.21470  0.81688  Biso   1.000  N
  N29      1.0000 0.17087  0.28530  0.31688  Biso   1.000  N
  N30      1.0000 0.67087  0.78530  0.31688  Biso   1.000  N
  N31      1.0000 0.82913  0.28530  0.18312  Biso   1.000  N
  N32      1.0000 0.32913  0.78530  0.18312  Biso   1.000  N
  N33      1.0000 0.89839  0.32870  0.34716  Biso   1.000  N
  N34      1.0000 0.39839  0.82870  0.34716  Biso   1.000  N
  N35      1.0000 0.10161  0.32870  0.15284  Biso   1.000  N
  N36      1.0000 0.60161  0.82870  0.15284  Biso   1.000  N
  N37      1.0000 0.10161  0.67130  0.65284  Biso   1.000  N
  N38      1.0000 0.60161  0.17130  0.65284  Biso   1.000  N
  N39      1.0000 0.89839  0.67130  0.84716  Biso   1.000  N
  N40      1.0000 0.39839  0.17130  0.84716  Biso   1.000  N
  N41      1.0000 0.07773  0.93520  0.74117  Biso   1.000  N
  N42      1.0000 0.57773  0.43520  0.74117  Biso   1.000  N
  N43      1.0000 0.92227  0.93520  0.75883  Biso   1.000  N
  N44      1.0000 0.42227  0.43520  0.75883  Biso   1.000  N
  N45      1.0000 0.92227  0.06480  0.25883  Biso   1.000  N
  N46      1.0000 0.42227  0.56480  0.25883  Biso   1.000  N
  N47      1.0000 0.07773  0.06480  0.24117  Biso   1.000  N
  N48      1.0000 0.57773  0.56480  0.24117  Biso   1.000  N
  N49      1.0000 0.82284  0.94640  0.79881  Biso   1.000  N
  N50      1.0000 0.32284  0.44640  0.79881  Biso   1.000  N
  N51      1.0000 0.17716  0.94640  0.70119  Biso   1.000  N
  N52      1.0000 0.67716  0.44640  0.70119  Biso   1.000  N
  N53      1.0000 0.17716  0.05360  0.20119  Biso   1.000  N
  N54      1.0000 0.67716  0.55360  0.20119  Biso   1.000  N
  N55      1.0000 0.82284  0.05360  0.29881  Biso   1.000  N
  N56      1.0000 0.32284  0.55360  0.29881  Biso   1.000  N
  C17      1.0000 0.88305  0.83380  0.67251  Biso   1.000  C
  C18      1.0000 0.38305  0.33380  0.67251  Biso   1.000  C
  C19      1.0000 0.11695  0.83380  0.82749  Biso   1.000  C
  C20      1.0000 0.61695  0.33380  0.82749  Biso   1.000  C
  C21      1.0000 0.11695  0.16620  0.32749  Biso   1.000  C
  C22      1.0000 0.61695  0.66620  0.32749  Biso   1.000  C
  C23      1.0000 0.88305  0.16620  0.17251  Biso   1.000  C
  C24      1.0000 0.38305  0.66620  0.17251  Biso   1.000  C
  H1       1.0000 0.91270  0.74940  0.65370  Biso   1.000  H
  H2       1.0000 0.41270  0.24940  0.65370  Biso   1.000  H
  H3       1.0000 0.08730  0.74940  0.84630  Biso   1.000  H
  H4       1.0000 0.58730  0.24940  0.84630  Biso   1.000  H
  H5       1.0000 0.08730  0.25060  0.34630  Biso   1.000  H
  H6       1.0000 0.58730  0.75060  0.34630  Biso   1.000  H
  H7       1.0000 0.91270  0.25060  0.15370  Biso   1.000  H
  H8       1.0000 0.41270  0.75060  0.15370  Biso   1.000  H
  H9       1.0000 0.86360  0.93020  0.62330  Biso   1.000  H
  H10      1.0000 0.36360  0.43020  0.62330  Biso   1.000  H
  H11      1.0000 0.13640  0.93020  0.87670  Biso   1.000  H
  H12      1.0000 0.63640  0.43020  0.87670  Biso   1.000  H
  H13      1.0000 0.13640  0.06980  0.37670  Biso   1.000  H
  H14      1.0000 0.63640  0.56980  0.37670  Biso   1.000  H
  H15      1.0000 0.86360  0.06980  0.12330  Biso   1.000  H
  H16      1.0000 0.36360  0.56980  0.12330  Biso   1.000  H
  C25      1.0000 0.86028  0.57390  0.75852  Biso   1.000  C
  C26      1.0000 0.36028  0.07390  0.75852  Biso   1.000  C
  C27      1.0000 0.13972  0.57390  0.74148  Biso   1.000  C
  C28      1.0000 0.63972  0.07390  0.74148  Biso   1.000  C
  C29      1.0000 0.13972  0.42610  0.24148  Biso   1.000  C
  C30      1.0000 0.63972  0.92610  0.24148  Biso   1.000  C
  C31      1.0000 0.86028  0.42610  0.25852  Biso   1.000  C
  C32      1.0000 0.36028  0.92610  0.25852  Biso   1.000  C
  H17      1.0000 0.89030  0.48840  0.74100  Biso   1.000  H
  H18      1.0000 0.39030  0.98840  0.74100  Biso   1.000  H
  H19      1.0000 0.10970  0.48840  0.75900  Biso   1.000  H
  H20      1.0000 0.60970  0.98840  0.75900  Biso   1.000  H
  H21      1.0000 0.10970  0.51160  0.25900  Biso   1.000  H
  H22      1.0000 0.60970  0.01160  0.25900  Biso   1.000  H
  H23      1.0000 0.89030  0.51160  0.24100  Biso   1.000  H
  H24      1.0000 0.39030  0.01160  0.24100  Biso   1.000  H
  H25      1.0000 0.82540  0.49240  0.76690  Biso   1.000  H
  H26      1.0000 0.32540  0.99240  0.76690  Biso   1.000  H
  H27      1.0000 0.17460  0.49240  0.73310  Biso   1.000  H
  H28      1.0000 0.67460  0.99240  0.73310  Biso   1.000  H
  H29      1.0000 0.17460  0.50760  0.23310  Biso   1.000  H
  H30      1.0000 0.67460  0.00760  0.23310  Biso   1.000  H
  H31      1.0000 0.82540  0.50760  0.26690  Biso   1.000  H
  H32      1.0000 0.32540  0.00760  0.26690  Biso   1.000  H
  C33      1.0000 0.78596  0.84510  0.71348  Biso   1.000  C
  C34      1.0000 0.28596  0.34510  0.71348  Biso   1.000  C
  C35      1.0000 0.21404  0.84510  0.78652  Biso   1.000  C
  C36      1.0000 0.71404  0.34510  0.78652  Biso   1.000  C
  C37      1.0000 0.21404  0.15490  0.28652  Biso   1.000  C
  C38      1.0000 0.71404  0.65490  0.28652  Biso   1.000  C
  C39      1.0000 0.78596  0.15490  0.21348  Biso   1.000  C
  C40      1.0000 0.28596  0.65490  0.21348  Biso   1.000  C
  H33      1.0000 0.76490  0.94110  0.66460  Biso   1.000  H
  H34      1.0000 0.26490  0.44110  0.66460  Biso   1.000  H
  H35      1.0000 0.23510  0.94110  0.83540  Biso   1.000  H
  H36      1.0000 0.73510  0.44110  0.83540  Biso   1.000  H
  H37      1.0000 0.23510  0.05890  0.33540  Biso   1.000  H
  H38      1.0000 0.73510  0.55890  0.33540  Biso   1.000  H
  H39      1.0000 0.76490  0.05890  0.16460  Biso   1.000  H
  H40      1.0000 0.26490  0.55890  0.16460  Biso   1.000  H
  H41      1.0000 0.75040  0.76770  0.72240  Biso   1.000  H
  H42      1.0000 0.25040  0.26770  0.72240  Biso   1.000  H
  H43      1.0000 0.24960  0.76770  0.77760  Biso   1.000  H
  H44      1.0000 0.74960  0.26770  0.77760  Biso   1.000  H
  H45      1.0000 0.24960  0.23230  0.27760  Biso   1.000  H
  H46      1.0000 0.74960  0.73230  0.27760  Biso   1.000  H
  H47      1.0000 0.75040  0.23230  0.22240  Biso   1.000  H
  H48      1.0000 0.25040  0.73230  0.22240  Biso   1.000  H
  C41      1.0000 0.12442  0.05930  0.71484  Biso   1.000  C
  C42      1.0000 0.62442  0.55930  0.71484  Biso   1.000  C
  C43      1.0000 0.87558  0.05930  0.78516  Biso   1.000  C
  C44      1.0000 0.37558  0.55930  0.78516  Biso   1.000  C
  C45      1.0000 0.87558  0.94070  0.28516  Biso   1.000  C
  C46      1.0000 0.37558  0.44070  0.28516  Biso   1.000  C
  C47      1.0000 0.12442  0.94070  0.21484  Biso   1.000  C
  C48      1.0000 0.62442  0.44070  0.21484  Biso   1.000  C
  H49      1.0000 0.09950  0.12930  0.65740  Biso   1.000  H
  H50      1.0000 0.59950  0.62930  0.65740  Biso   1.000  H
  H51      1.0000 0.90050  0.12930  0.84260  Biso   1.000  H
  H52      1.0000 0.40050  0.62930  0.84260  Biso   1.000  H
  H53      1.0000 0.90050  0.87070  0.34260  Biso   1.000  H
  H54      1.0000 0.40050  0.37070  0.34260  Biso   1.000  H
  H55      1.0000 0.09950  0.87070  0.15740  Biso   1.000  H
  H56      1.0000 0.59950  0.37070  0.15740  Biso   1.000  H
  H57      1.0000 0.14430  0.15640  0.76360  Biso   1.000  H
  H58      1.0000 0.64430  0.65640  0.76360  Biso   1.000  H
  H59      1.0000 0.85570  0.15640  0.73640  Biso   1.000  H
  H60      1.0000 0.35570  0.65640  0.73640  Biso   1.000  H
  H61      1.0000 0.85570  0.84360  0.23640  Biso   1.000  H
  H62      1.0000 0.35570  0.34360  0.23640  Biso   1.000  H
  H63      1.0000 0.14430  0.84360  0.26360  Biso   1.000  H
  H64      1.0000 0.64430  0.34360  0.26360  Biso   1.000  H
  C49      1.0000 0.95021  0.21030  0.33209  Biso   1.000  C
  C50      1.0000 0.45021  0.71030  0.33209  Biso   1.000  C
  C51      1.0000 0.04979  0.21030  0.16791  Biso   1.000  C
  C52      1.0000 0.54979  0.71030  0.16791  Biso   1.000  C
  C53      1.0000 0.04979  0.78970  0.66791  Biso   1.000  C
  C54      1.0000 0.54979  0.28970  0.66791  Biso   1.000  C
  C55      1.0000 0.95021  0.78970  0.83209  Biso   1.000  C
  C56      1.0000 0.45021  0.28970  0.83209  Biso   1.000  C
  H65      1.0000 0.98050  0.29600  0.31530  Biso   1.000  H
  H66      1.0000 0.48050  0.79600  0.31530  Biso   1.000  H
  H67      1.0000 0.01950  0.29600  0.18470  Biso   1.000  H
  H68      1.0000 0.51950  0.79600  0.18470  Biso   1.000  H
  H69      1.0000 0.01950  0.70400  0.68470  Biso   1.000  H
  H70      1.0000 0.51950  0.20400  0.68470  Biso   1.000  H
  H71      1.0000 0.98050  0.70400  0.81530  Biso   1.000  H
  H72      1.0000 0.48050  0.20400  0.81530  Biso   1.000  H
  H73      1.0000 0.97630  0.14380  0.39000  Biso   1.000  H
  H74      1.0000 0.47630  0.64380  0.39000  Biso   1.000  H
  H75      1.0000 0.02370  0.14380  0.11000  Biso   1.000  H
  H76      1.0000 0.52370  0.64380  0.11000  Biso   1.000  H
  H77      1.0000 0.02370  0.85620  0.61000  Biso   1.000  H
  H78      1.0000 0.52370  0.35620  0.61000  Biso   1.000  H
  H79      1.0000 0.97630  0.85620  0.89000  Biso   1.000  H
  H80      1.0000 0.47630  0.35620  0.89000  Biso   1.000  H
  C57      1.0000 0.85282  0.19670  0.37125  Biso   1.000  C
  C58      1.0000 0.35282  0.69670  0.37125  Biso   1.000  C
  C59      1.0000 0.14718  0.19670  0.12875  Biso   1.000  C
  C60      1.0000 0.64718  0.69670  0.12875  Biso   1.000  C
  C61      1.0000 0.14718  0.80330  0.62875  Biso   1.000  C
  C62      1.0000 0.64718  0.30330  0.62875  Biso   1.000  C
  C63      1.0000 0.85282  0.80330  0.87125  Biso   1.000  C
  C64      1.0000 0.35282  0.30330  0.87125  Biso   1.000  C
  H81      1.0000 0.81750  0.27370  0.38100  Biso   1.000  H
  H82      1.0000 0.31750  0.77370  0.38100  Biso   1.000  H
  H83      1.0000 0.18250  0.27370  0.11900  Biso   1.000  H
  H84      1.0000 0.68250  0.77370  0.11900  Biso   1.000  H
  H85      1.0000 0.18250  0.72630  0.61900  Biso   1.000  H
  H86      1.0000 0.68250  0.22630  0.61900  Biso   1.000  H
  H87      1.0000 0.81750  0.72630  0.88100  Biso   1.000  H
  H88      1.0000 0.31750  0.22630  0.88100  Biso   1.000  H
  H89      1.0000 0.87770  0.12910  0.42940  Biso   1.000  H
  H90      1.0000 0.37770  0.62910  0.42940  Biso   1.000  H
  H91      1.0000 0.12230  0.12910  0.07060  Biso   1.000  H
  H92      1.0000 0.62230  0.62910  0.07060  Biso   1.000  H
  H93      1.0000 0.12230  0.87090  0.57060  Biso   1.000  H
  H94      1.0000 0.62230  0.37090  0.57060  Biso   1.000  H
  H95      1.0000 0.87770  0.87090  0.92940  Biso   1.000  H
  H96      1.0000 0.37770  0.37090  0.92940  Biso   1.000  H
