data_image0
_cell_length_a       13.9138
_cell_length_b       9.4197
_cell_length_c       21.1231
_cell_angle_alpha    90
_cell_angle_beta     105.947
_cell_angle_gamma    90

_symmetry_space_group_name_H-M    "P 1"
_symmetry_int_tables_number       1

loop_
  _symmetry_equiv_pos_as_xyz
  'x, y, z'

loop_
  _atom_site_label
  _atom_site_occupancy
  _atom_site_fract_x
  _atom_site_fract_y
  _atom_site_fract_z
  _atom_site_thermal_displace_type
  _atom_site_B_iso_or_equiv
  _atom_site_type_symbol
  Cu1      1.0000 0.44403  0.00000  0.09984  Biso   1.000  Cu
  Cu2      1.0000 0.94403  0.50000  0.09984  Biso   1.000  Cu
  Cu3      1.0000 0.55597  0.00000  0.90016  Biso   1.000  Cu
  Cu4      1.0000 0.05597  0.50000  0.90016  Biso   1.000  Cu
  Cu5      1.0000 0.20000  0.00000  0.22743  Biso   1.000  Cu
  Cu6      1.0000 0.70000  0.50000  0.22743  Biso   1.000  Cu
  Cu7      1.0000 0.80000  0.00000  0.77257  Biso   1.000  Cu
  Cu8      1.0000 0.30000  0.50000  0.77257  Biso   1.000  Cu
  Cu9      1.0000 0.00232  0.00000  0.38500  Biso   1.000  Cu
  Cu10     1.0000 0.50232  0.50000  0.38500  Biso   1.000  Cu
  Cu11     1.0000 0.99768  0.00000  0.61500  Biso   1.000  Cu
  Cu12     1.0000 0.49768  0.50000  0.61500  Biso   1.000  Cu
  Cu13     1.0000 0.63275  0.00000  0.16510  Biso   1.000  Cu
  Cu14     1.0000 0.13275  0.50000  0.16510  Biso   1.000  Cu
  Cu15     1.0000 0.36725  0.00000  0.83490  Biso   1.000  Cu
  Cu16     1.0000 0.86725  0.50000  0.83490  Biso   1.000  Cu
  Cu17     1.0000 0.52368  0.50000  0.12982  Biso   1.000  Cu
  Cu18     1.0000 0.02368  0.00000  0.12982  Biso   1.000  Cu
  Cu19     1.0000 0.47632  0.50000  0.87018  Biso   1.000  Cu
  Cu20     1.0000 0.97632  0.00000  0.87018  Biso   1.000  Cu
  Cu21     1.0000 0.88290  0.50000  0.33267  Biso   1.000  Cu
  Cu22     1.0000 0.38290  0.00000  0.33267  Biso   1.000  Cu
  Cu23     1.0000 0.11710  0.50000  0.66733  Biso   1.000  Cu
  Cu24     1.0000 0.61710  0.00000  0.66733  Biso   1.000  Cu
  Cu25     1.0000 0.80801  0.00000  0.36953  Biso   1.000  Cu
  Cu26     1.0000 0.30801  0.50000  0.36953  Biso   1.000  Cu
  Cu27     1.0000 0.19199  0.00000  0.63047  Biso   1.000  Cu
  Cu28     1.0000 0.69199  0.50000  0.63047  Biso   1.000  Cu
  N1       1.0000 0.48240  0.00000  0.02212  Biso   1.000  N
  N2       1.0000 0.98240  0.50000  0.02212  Biso   1.000  N
  N3       1.0000 0.51760  0.00000  0.97788  Biso   1.000  N
  N4       1.0000 0.01760  0.50000  0.97788  Biso   1.000  N
  N5       1.0000 0.00030  0.00000  0.47285  Biso   1.000  N
  N6       1.0000 0.50030  0.50000  0.47285  Biso   1.000  N
  N7       1.0000 0.99970  0.00000  0.52715  Biso   1.000  N
  N8       1.0000 0.49970  0.50000  0.52715  Biso   1.000  N
  C1       1.0000 0.29630  0.00000  0.18124  Biso   1.000  C
  C2       1.0000 0.79630  0.50000  0.18124  Biso   1.000  C
  C3       1.0000 0.70370  0.00000  0.81876  Biso   1.000  C
  C4       1.0000 0.20370  0.50000  0.81876  Biso   1.000  C
  N9       1.0000 0.35380  0.00000  0.15071  Biso   1.000  N
  N10      1.0000 0.85380  0.50000  0.15071  Biso   1.000  N
  N11      1.0000 0.64620  0.00000  0.84929  Biso   1.000  N
  N12      1.0000 0.14620  0.50000  0.84929  Biso   1.000  N
  N13      1.0000 0.11840  0.00000  0.28427  Biso   1.000  N
  N14      1.0000 0.61840  0.50000  0.28427  Biso   1.000  N
  N15      1.0000 0.88160  0.00000  0.71573  Biso   1.000  N
  N16      1.0000 0.38160  0.50000  0.71573  Biso   1.000  N
  C5       1.0000 0.06750  0.00000  0.31951  Biso   1.000  C
  C6       1.0000 0.56750  0.50000  0.31951  Biso   1.000  C
  C7       1.0000 0.93250  0.00000  0.68049  Biso   1.000  C
  C8       1.0000 0.43250  0.50000  0.68049  Biso   1.000  C
  N17      1.0000 0.56453  0.69200  0.14196  Biso   1.000  N
  N18      1.0000 0.06453  0.19200  0.14196  Biso   1.000  N
  N19      1.0000 0.43547  0.69200  0.85804  Biso   1.000  N
  N20      1.0000 0.93547  0.19200  0.85804  Biso   1.000  N
  N21      1.0000 0.43547  0.30800  0.85804  Biso   1.000  N
  N22      1.0000 0.93547  0.80800  0.85804  Biso   1.000  N
  N23      1.0000 0.56453  0.30800  0.14196  Biso   1.000  N
  N24      1.0000 0.06453  0.80800  0.14196  Biso   1.000  N
  C9       1.0000 0.58652  0.80990  0.15292  Biso   1.000  C
  C10      1.0000 0.08652  0.30990  0.15292  Biso   1.000  C
  C11      1.0000 0.41348  0.80990  0.84708  Biso   1.000  C
  C12      1.0000 0.91348  0.30990  0.84708  Biso   1.000  C
  C13      1.0000 0.41348  0.19010  0.84708  Biso   1.000  C
  C14      1.0000 0.91348  0.69010  0.84708  Biso   1.000  C
  C15      1.0000 0.58652  0.19010  0.15292  Biso   1.000  C
  C16      1.0000 0.08652  0.69010  0.15292  Biso   1.000  C
  N25      1.0000 0.85412  0.69160  0.34635  Biso   1.000  N
  N26      1.0000 0.35412  0.19160  0.34635  Biso   1.000  N
  N27      1.0000 0.14588  0.69160  0.65365  Biso   1.000  N
  N28      1.0000 0.64588  0.19160  0.65365  Biso   1.000  N
  N29      1.0000 0.14588  0.30840  0.65365  Biso   1.000  N
  N30      1.0000 0.64588  0.80840  0.65365  Biso   1.000  N
  N31      1.0000 0.85412  0.30840  0.34635  Biso   1.000  N
  N32      1.0000 0.35412  0.80840  0.34635  Biso   1.000  N
  C17      1.0000 0.83907  0.81050  0.35393  Biso   1.000  C
  C18      1.0000 0.33907  0.31050  0.35393  Biso   1.000  C
  C19      1.0000 0.16093  0.81050  0.64607  Biso   1.000  C
  C20      1.0000 0.66093  0.31050  0.64607  Biso   1.000  C
  C21      1.0000 0.16093  0.18950  0.64607  Biso   1.000  C
  C22      1.0000 0.66093  0.68950  0.64607  Biso   1.000  C
  C23      1.0000 0.83907  0.18950  0.35393  Biso   1.000  C
  C24      1.0000 0.33907  0.68950  0.35393  Biso   1.000  C
  N33      1.0000 0.78800  0.00000  0.19892  Biso   1.000  N
  N34      1.0000 0.28800  0.50000  0.19892  Biso   1.000  N
  N35      1.0000 0.21200  0.00000  0.80108  Biso   1.000  N
  N36      1.0000 0.71200  0.50000  0.80108  Biso   1.000  N
  H1       1.0000 0.80430  0.00000  0.24470  Biso   1.000  H
  H2       1.0000 0.30430  0.50000  0.24470  Biso   1.000  H
  H3       1.0000 0.19570  0.00000  0.75530  Biso   1.000  H
  H4       1.0000 0.69570  0.50000  0.75530  Biso   1.000  H
  N37      1.0000 0.86540  0.00000  0.08528  Biso   1.000  N
  N38      1.0000 0.36540  0.50000  0.08528  Biso   1.000  N
  N39      1.0000 0.13460  0.00000  0.91472  Biso   1.000  N
  N40      1.0000 0.63460  0.50000  0.91472  Biso   1.000  N
  N41      1.0000 0.51530  0.00000  0.29968  Biso   1.000  N
  N42      1.0000 0.01530  0.50000  0.29968  Biso   1.000  N
  N43      1.0000 0.48470  0.00000  0.70032  Biso   1.000  N
  N44      1.0000 0.98470  0.50000  0.70032  Biso   1.000  N
  H5       1.0000 0.49390  0.00000  0.25390  Biso   1.000  H
  H6       1.0000 0.99390  0.50000  0.25390  Biso   1.000  H
  H7       1.0000 0.50610  0.00000  0.74610  Biso   1.000  H
  H8       1.0000 0.00610  0.50000  0.74610  Biso   1.000  H
  N45      1.0000 0.68710  0.00000  0.41254  Biso   1.000  N
  N46      1.0000 0.18710  0.50000  0.41254  Biso   1.000  N
  N47      1.0000 0.31290  0.00000  0.58746  Biso   1.000  N
  N48      1.0000 0.81290  0.50000  0.58746  Biso   1.000  N
  C25      1.0000 0.83416  0.12870  0.17925  Biso   1.000  C
  C26      1.0000 0.33416  0.62870  0.17925  Biso   1.000  C
  C27      1.0000 0.16584  0.12870  0.82075  Biso   1.000  C
  C28      1.0000 0.66584  0.62870  0.82075  Biso   1.000  C
  C29      1.0000 0.16584  0.87130  0.82075  Biso   1.000  C
  C30      1.0000 0.66584  0.37130  0.82075  Biso   1.000  C
  C31      1.0000 0.83416  0.87130  0.17925  Biso   1.000  C
  C32      1.0000 0.33416  0.37130  0.17925  Biso   1.000  C
  H9       1.0000 0.90650  0.13060  0.20210  Biso   1.000  H
  H10      1.0000 0.40650  0.63060  0.20210  Biso   1.000  H
  H11      1.0000 0.09350  0.13060  0.79790  Biso   1.000  H
  H12      1.0000 0.59350  0.63060  0.79790  Biso   1.000  H
  H13      1.0000 0.09350  0.86940  0.79790  Biso   1.000  H
  H14      1.0000 0.59350  0.36940  0.79790  Biso   1.000  H
  H15      1.0000 0.90650  0.86940  0.20210  Biso   1.000  H
  H16      1.0000 0.40650  0.36940  0.20210  Biso   1.000  H
  H17      1.0000 0.80320  0.21480  0.19200  Biso   1.000  H
  H18      1.0000 0.30320  0.71480  0.19200  Biso   1.000  H
  H19      1.0000 0.19680  0.21480  0.80800  Biso   1.000  H
  H20      1.0000 0.69680  0.71480  0.80800  Biso   1.000  H
  H21      1.0000 0.19680  0.78520  0.80800  Biso   1.000  H
  H22      1.0000 0.69680  0.28520  0.80800  Biso   1.000  H
  H23      1.0000 0.80320  0.78520  0.19200  Biso   1.000  H
  H24      1.0000 0.30320  0.28520  0.19200  Biso   1.000  H
  C33      1.0000 0.81886  0.12740  0.10559  Biso   1.000  C
  C34      1.0000 0.31886  0.62740  0.10559  Biso   1.000  C
  C35      1.0000 0.18114  0.12740  0.89441  Biso   1.000  C
  C36      1.0000 0.68114  0.62740  0.89441  Biso   1.000  C
  C37      1.0000 0.18114  0.87260  0.89441  Biso   1.000  C
  C38      1.0000 0.68114  0.37260  0.89441  Biso   1.000  C
  C39      1.0000 0.81886  0.87260  0.10559  Biso   1.000  C
  C40      1.0000 0.31886  0.37260  0.10559  Biso   1.000  C
  H25      1.0000 0.74640  0.12810  0.08300  Biso   1.000  H
  H26      1.0000 0.24640  0.62810  0.08300  Biso   1.000  H
  H27      1.0000 0.25360  0.12810  0.91700  Biso   1.000  H
  H28      1.0000 0.75360  0.62810  0.91700  Biso   1.000  H
  H29      1.0000 0.25360  0.87190  0.91700  Biso   1.000  H
  H30      1.0000 0.75360  0.37190  0.91700  Biso   1.000  H
  H31      1.0000 0.74640  0.87190  0.08300  Biso   1.000  H
  H32      1.0000 0.24640  0.37190  0.08300  Biso   1.000  H
  H33      1.0000 0.84880  0.21400  0.09230  Biso   1.000  H
  H34      1.0000 0.34880  0.71400  0.09230  Biso   1.000  H
  H35      1.0000 0.15120  0.21400  0.90770  Biso   1.000  H
  H36      1.0000 0.65120  0.71400  0.90770  Biso   1.000  H
  H37      1.0000 0.15120  0.78600  0.90770  Biso   1.000  H
  H38      1.0000 0.65120  0.28600  0.90770  Biso   1.000  H
  H39      1.0000 0.84880  0.78600  0.09230  Biso   1.000  H
  H40      1.0000 0.34880  0.28600  0.09230  Biso   1.000  H
  C41      1.0000 0.84910  0.00000  0.01360  Biso   1.000  C
  C42      1.0000 0.34910  0.50000  0.01360  Biso   1.000  C
  C43      1.0000 0.15090  0.00000  0.98640  Biso   1.000  C
  C44      1.0000 0.65090  0.50000  0.98640  Biso   1.000  C
  C45      1.0000 0.57703  0.12800  0.31860  Biso   1.000  C
  C46      1.0000 0.07703  0.62800  0.31860  Biso   1.000  C
  C47      1.0000 0.42297  0.12800  0.68140  Biso   1.000  C
  C48      1.0000 0.92297  0.62800  0.68140  Biso   1.000  C
  C49      1.0000 0.42297  0.87200  0.68140  Biso   1.000  C
  C50      1.0000 0.92297  0.37200  0.68140  Biso   1.000  C
  C51      1.0000 0.57703  0.87200  0.31860  Biso   1.000  C
  C52      1.0000 0.07703  0.37200  0.31860  Biso   1.000  C
  H41      1.0000 0.53510  0.21380  0.30570  Biso   1.000  H
  H42      1.0000 0.03510  0.71380  0.30570  Biso   1.000  H
  H43      1.0000 0.46490  0.21380  0.69430  Biso   1.000  H
  H44      1.0000 0.96490  0.71380  0.69430  Biso   1.000  H
  H45      1.0000 0.46490  0.78620  0.69430  Biso   1.000  H
  H46      1.0000 0.96490  0.28620  0.69430  Biso   1.000  H
  H47      1.0000 0.53510  0.78620  0.30570  Biso   1.000  H
  H48      1.0000 0.03510  0.28620  0.30570  Biso   1.000  H
  H49      1.0000 0.63000  0.12990  0.29550  Biso   1.000  H
  H50      1.0000 0.13000  0.62990  0.29550  Biso   1.000  H
  H51      1.0000 0.37000  0.12990  0.70450  Biso   1.000  H
  H52      1.0000 0.87000  0.62990  0.70450  Biso   1.000  H
  H53      1.0000 0.37000  0.87010  0.70450  Biso   1.000  H
  H54      1.0000 0.87000  0.37010  0.70450  Biso   1.000  H
  H55      1.0000 0.63000  0.87010  0.29550  Biso   1.000  H
  H56      1.0000 0.13000  0.37010  0.29550  Biso   1.000  H
  C53      1.0000 0.62384  0.12790  0.39215  Biso   1.000  C
  C54      1.0000 0.12384  0.62790  0.39215  Biso   1.000  C
  C55      1.0000 0.37616  0.12790  0.60785  Biso   1.000  C
  C56      1.0000 0.87616  0.62790  0.60785  Biso   1.000  C
  C57      1.0000 0.37616  0.87210  0.60785  Biso   1.000  C
  C58      1.0000 0.87616  0.37210  0.60785  Biso   1.000  C
  C59      1.0000 0.62384  0.87210  0.39215  Biso   1.000  C
  C60      1.0000 0.12384  0.37210  0.39215  Biso   1.000  C
  H57      1.0000 0.66520  0.21430  0.40490  Biso   1.000  H
  H58      1.0000 0.16520  0.71430  0.40490  Biso   1.000  H
  H59      1.0000 0.33480  0.21430  0.59510  Biso   1.000  H
  H60      1.0000 0.83480  0.71430  0.59510  Biso   1.000  H
  H61      1.0000 0.33480  0.78570  0.59510  Biso   1.000  H
  H62      1.0000 0.83480  0.28570  0.59510  Biso   1.000  H
  H63      1.0000 0.66520  0.78570  0.40490  Biso   1.000  H
  H64      1.0000 0.16520  0.28570  0.40490  Biso   1.000  H
  H65      1.0000 0.57060  0.12950  0.41510  Biso   1.000  H
  H66      1.0000 0.07060  0.62950  0.41510  Biso   1.000  H
  H67      1.0000 0.42940  0.12950  0.58490  Biso   1.000  H
  H68      1.0000 0.92940  0.62950  0.58490  Biso   1.000  H
  H69      1.0000 0.42940  0.87050  0.58490  Biso   1.000  H
  H70      1.0000 0.92940  0.37050  0.58490  Biso   1.000  H
  H71      1.0000 0.57060  0.87050  0.41510  Biso   1.000  H
  H72      1.0000 0.07060  0.37050  0.41510  Biso   1.000  H
  C61      1.0000 0.72920  0.00000  0.48487  Biso   1.000  C
  C62      1.0000 0.22920  0.50000  0.48487  Biso   1.000  C
  C63      1.0000 0.27080  0.00000  0.51513  Biso   1.000  C
  C64      1.0000 0.77080  0.50000  0.51513  Biso   1.000  C
  H73      1.0000 0.87800  0.91400  0.00170  Biso   1.000  H
  H74      1.0000 0.37800  0.41400  0.00170  Biso   1.000  H
  H75      1.0000 0.12200  0.91400  0.99830  Biso   1.000  H
  H76      1.0000 0.62200  0.41400  0.99830  Biso   1.000  H
  H77      1.0000 0.12200  0.08600  0.99830  Biso   1.000  H
  H78      1.0000 0.62200  0.58600  0.99830  Biso   1.000  H
  H79      1.0000 0.87800  0.08600  0.00170  Biso   1.000  H
  H80      1.0000 0.37800  0.58600  0.00170  Biso   1.000  H
  H81      1.0000 0.77300  0.00000  0.98800  Biso   1.000  H
  H82      1.0000 0.27300  0.50000  0.98800  Biso   1.000  H
  H83      1.0000 0.22700  0.00000  0.01200  Biso   1.000  H
  H84      1.0000 0.72700  0.50000  0.01200  Biso   1.000  H
  H85      1.0000 0.76800  0.91100  0.49690  Biso   1.000  H
  H86      1.0000 0.26800  0.41100  0.49690  Biso   1.000  H
  H87      1.0000 0.23200  0.91100  0.50310  Biso   1.000  H
  H88      1.0000 0.73200  0.41100  0.50310  Biso   1.000  H
  H89      1.0000 0.23200  0.08900  0.50310  Biso   1.000  H
  H90      1.0000 0.73200  0.58900  0.50310  Biso   1.000  H
  H91      1.0000 0.76800  0.08900  0.49690  Biso   1.000  H
  H92      1.0000 0.26800  0.58900  0.49690  Biso   1.000  H
  H93      1.0000 0.67500  0.00000  0.50900  Biso   1.000  H
  H94      1.0000 0.17500  0.50000  0.50900  Biso   1.000  H
  H95      1.0000 0.32500  0.00000  0.49100  Biso   1.000  H
  H96      1.0000 0.82500  0.50000  0.49100  Biso   1.000  H
