data_image0
_cell_length_a       9.3789
_cell_length_b       13.1246
_cell_length_c       9.4918
_cell_angle_alpha    90
_cell_angle_beta     118.106
_cell_angle_gamma    90

_symmetry_space_group_name_H-M    "P 1"
_symmetry_int_tables_number       1

loop_
  _symmetry_equiv_pos_as_xyz
  'x, y, z'

loop_
  _atom_site_label
  _atom_site_occupancy
  _atom_site_fract_x
  _atom_site_fract_y
  _atom_site_fract_z
  _atom_site_thermal_displace_type
  _atom_site_B_iso_or_equiv
  _atom_site_type_symbol
  Cu1      1.0000 0.14773  0.20099  0.54638  Biso   1.000  Cu
  Cu2      1.0000 0.85227  0.70099  0.95362  Biso   1.000  Cu
  Cu3      1.0000 0.85227  0.79901  0.45362  Biso   1.000  Cu
  Cu4      1.0000 0.14773  0.29901  0.04638  Biso   1.000  Cu
  C1       1.0000 0.14490  0.24022  0.73480  Biso   1.000  C
  C2       1.0000 0.85510  0.74022  0.76520  Biso   1.000  C
  C3       1.0000 0.85510  0.75978  0.26520  Biso   1.000  C
  C4       1.0000 0.14490  0.25978  0.23480  Biso   1.000  C
  N1       1.0000 0.14330  0.25866  0.85180  Biso   1.000  N
  N2       1.0000 0.85670  0.75866  0.64820  Biso   1.000  N
  N3       1.0000 0.85670  0.74134  0.14820  Biso   1.000  N
  N4       1.0000 0.14330  0.24134  0.35180  Biso   1.000  N
  N5       1.0000 0.15624  0.03378  0.51964  Biso   1.000  N
  N6       1.0000 0.84376  0.53378  0.98036  Biso   1.000  N
  N7       1.0000 0.84376  0.96622  0.48036  Biso   1.000  N
  N8       1.0000 0.15624  0.46622  0.01964  Biso   1.000  N
  C5       1.0000 0.13960  0.97671  0.64530  Biso   1.000  C
  C6       1.0000 0.86040  0.47671  0.85470  Biso   1.000  C
  C7       1.0000 0.86040  0.02329  0.35470  Biso   1.000  C
  C8       1.0000 0.13960  0.52329  0.14530  Biso   1.000  C
  H1       1.0000 0.22500  0.99680  0.74930  Biso   1.000  H
  H2       1.0000 0.77500  0.49680  0.75070  Biso   1.000  H
  H3       1.0000 0.77500  0.00320  0.25070  Biso   1.000  H
  H4       1.0000 0.22500  0.50320  0.24930  Biso   1.000  H
  H5       1.0000 0.15080  0.90440  0.63210  Biso   1.000  H
  H6       1.0000 0.84920  0.40440  0.86790  Biso   1.000  H
  H7       1.0000 0.84920  0.09560  0.36790  Biso   1.000  H
  H8       1.0000 0.15080  0.59560  0.13210  Biso   1.000  H
  C9       1.0000 0.02260  0.00305  0.36300  Biso   1.000  C
  C10      1.0000 0.97740  0.50305  0.13700  Biso   1.000  C
  C11      1.0000 0.97740  0.99695  0.63700  Biso   1.000  C
  C12      1.0000 0.02260  0.49695  0.86300  Biso   1.000  C
  H9       1.0000 0.03210  0.93100  0.34600  Biso   1.000  H
  H10      1.0000 0.96790  0.43100  0.15400  Biso   1.000  H
  H11      1.0000 0.96790  0.06900  0.65400  Biso   1.000  H
  H12      1.0000 0.03210  0.56900  0.84600  Biso   1.000  H
  H13      1.0000 0.03030  0.04060  0.27890  Biso   1.000  H
  H14      1.0000 0.96970  0.54060  0.22110  Biso   1.000  H
  H15      1.0000 0.96970  0.95940  0.72110  Biso   1.000  H
  H16      1.0000 0.03030  0.45940  0.77890  Biso   1.000  H
  C13      1.0000 0.30980  0.00635  0.51980  Biso   1.000  C
  C14      1.0000 0.69020  0.50635  0.98020  Biso   1.000  C
  C15      1.0000 0.69020  0.99365  0.48020  Biso   1.000  C
  C16      1.0000 0.30980  0.49365  0.01980  Biso   1.000  C
  H17      1.0000 0.30980  0.03640  0.42640  Biso   1.000  H
  H18      1.0000 0.69020  0.53640  0.07360  Biso   1.000  H
  H19      1.0000 0.69020  0.96360  0.57360  Biso   1.000  H
  H20      1.0000 0.30980  0.46360  0.92640  Biso   1.000  H
  H21      1.0000 0.31330  0.93290  0.50990  Biso   1.000  H
  H22      1.0000 0.68670  0.43290  0.99010  Biso   1.000  H
  H23      1.0000 0.68670  0.06710  0.49010  Biso   1.000  H
  H24      1.0000 0.31330  0.56710  0.00990  Biso   1.000  H
  C17      1.0000 0.46080  0.03962  0.66560  Biso   1.000  C
  C18      1.0000 0.53920  0.53962  0.83440  Biso   1.000  C
  C19      1.0000 0.53920  0.96038  0.33440  Biso   1.000  C
  C20      1.0000 0.46080  0.46038  0.16560  Biso   1.000  C
  C21      1.0000 0.51490  0.13828  0.67930  Biso   1.000  C
  C22      1.0000 0.48510  0.63828  0.82070  Biso   1.000  C
  C23      1.0000 0.48510  0.86172  0.32070  Biso   1.000  C
  C24      1.0000 0.51490  0.36172  0.17930  Biso   1.000  C
  H25      1.0000 0.45410  0.18610  0.60180  Biso   1.000  H
  H26      1.0000 0.54590  0.68610  0.89820  Biso   1.000  H
  H27      1.0000 0.54590  0.81390  0.39820  Biso   1.000  H
  H28      1.0000 0.45410  0.31390  0.10180  Biso   1.000  H
  C25      1.0000 0.66050  0.16660  0.80880  Biso   1.000  C
  C26      1.0000 0.33950  0.66660  0.69120  Biso   1.000  C
  C27      1.0000 0.33950  0.83340  0.19120  Biso   1.000  C
  C28      1.0000 0.66050  0.33340  0.30880  Biso   1.000  C
  H29      1.0000 0.69560  0.23370  0.81830  Biso   1.000  H
  H30      1.0000 0.30440  0.73370  0.68170  Biso   1.000  H
  H31      1.0000 0.30440  0.76630  0.18170  Biso   1.000  H
  H32      1.0000 0.69560  0.26630  0.31830  Biso   1.000  H
  C29      1.0000 0.75250  0.09700  0.92210  Biso   1.000  C
  C30      1.0000 0.24750  0.59700  0.57790  Biso   1.000  C
  C31      1.0000 0.24750  0.90300  0.07790  Biso   1.000  C
  C32      1.0000 0.75250  0.40300  0.42210  Biso   1.000  C
  H33      1.0000 0.84990  0.11670  0.00800  Biso   1.000  H
  H34      1.0000 0.15010  0.61670  0.49200  Biso   1.000  H
  H35      1.0000 0.15010  0.88330  0.99200  Biso   1.000  H
  H36      1.0000 0.84990  0.38330  0.50800  Biso   1.000  H
  C33      1.0000 0.70200  0.99900  0.90960  Biso   1.000  C
  C34      1.0000 0.29800  0.49900  0.59040  Biso   1.000  C
  C35      1.0000 0.29800  0.00100  0.09040  Biso   1.000  C
  C36      1.0000 0.70200  0.50100  0.40960  Biso   1.000  C
  H37      1.0000 0.76490  0.95120  0.98600  Biso   1.000  H
  H38      1.0000 0.23510  0.45120  0.51400  Biso   1.000  H
  H39      1.0000 0.23510  0.04880  0.01400  Biso   1.000  H
  H40      1.0000 0.76490  0.54880  0.48600  Biso   1.000  H
  C37      1.0000 0.55630  0.97093  0.78210  Biso   1.000  C
  C38      1.0000 0.44370  0.47093  0.71790  Biso   1.000  C
  C39      1.0000 0.44370  0.02907  0.21790  Biso   1.000  C
  C40      1.0000 0.55630  0.52907  0.28210  Biso   1.000  C
  H41      1.0000 0.52170  0.90380  0.77460  Biso   1.000  H
  H42      1.0000 0.47830  0.40380  0.72540  Biso   1.000  H
  H43      1.0000 0.47830  0.09620  0.22540  Biso   1.000  H
  H44      1.0000 0.52170  0.59620  0.27460  Biso   1.000  H
