data_image0
_cell_length_a       18.8238
_cell_length_b       9.276
_cell_length_c       10.9423
_cell_angle_alpha    90
_cell_angle_beta     90
_cell_angle_gamma    90

_symmetry_space_group_name_H-M    "P 1"
_symmetry_int_tables_number       1

loop_
  _symmetry_equiv_pos_as_xyz
  'x, y, z'

loop_
  _atom_site_label
  _atom_site_occupancy
  _atom_site_fract_x
  _atom_site_fract_y
  _atom_site_fract_z
  _atom_site_thermal_displace_type
  _atom_site_B_iso_or_equiv
  _atom_site_type_symbol
  Cu1      1.0000 0.63728  0.25000  0.65146  Biso   1.000  Cu
  Cu2      1.0000 0.86271  0.75000  0.15146  Biso   1.000  Cu
  Cu3      1.0000 0.36272  0.75000  0.34854  Biso   1.000  Cu
  Cu4      1.0000 0.13728  0.25000  0.84854  Biso   1.000  Cu
  Cu5      1.0000 0.88040  0.25000  0.79989  Biso   1.000  Cu
  Cu6      1.0000 0.61960  0.75000  0.29989  Biso   1.000  Cu
  Cu7      1.0000 0.11960  0.75000  0.20011  Biso   1.000  Cu
  Cu8      1.0000 0.38040  0.25000  0.70011  Biso   1.000  Cu
  Cu9      1.0000 0.63129  0.75000  0.54020  Biso   1.000  Cu
  Cu10     1.0000 0.86871  0.25000  0.04020  Biso   1.000  Cu
  Cu11     1.0000 0.36871  0.25000  0.45980  Biso   1.000  Cu
  Cu12     1.0000 0.13129  0.75000  0.95980  Biso   1.000  Cu
  Cu13     1.0000 0.69468  0.25000  0.43362  Biso   1.000  Cu
  Cu14     1.0000 0.80532  0.75000  0.93362  Biso   1.000  Cu
  Cu15     1.0000 0.30532  0.75000  0.56638  Biso   1.000  Cu
  Cu16     1.0000 0.19468  0.25000  0.06638  Biso   1.000  Cu
  N1       1.0000 0.79046  0.25000  0.73120  Biso   1.000  N
  N2       1.0000 0.70954  0.75000  0.23120  Biso   1.000  N
  N3       1.0000 0.20954  0.75000  0.26880  Biso   1.000  N
  N4       1.0000 0.29046  0.25000  0.76880  Biso   1.000  N
  C1       1.0000 0.73172  0.25000  0.70080  Biso   1.000  C
  C2       1.0000 0.76828  0.75000  0.20080  Biso   1.000  C
  C3       1.0000 0.26828  0.75000  0.29920  Biso   1.000  C
  C4       1.0000 0.23172  0.25000  0.79920  Biso   1.000  C
  C5       1.0000 0.53889  0.25000  0.66700  Biso   1.000  C
  C6       1.0000 0.96111  0.75000  0.16700  Biso   1.000  C
  C7       1.0000 0.46111  0.75000  0.33300  Biso   1.000  C
  C8       1.0000 0.03889  0.25000  0.83300  Biso   1.000  C
  N5       1.0000 0.47843  0.25000  0.68110  Biso   1.000  N
  N6       1.0000 0.02157  0.75000  0.18110  Biso   1.000  N
  N7       1.0000 0.52157  0.75000  0.31890  Biso   1.000  N
  N8       1.0000 0.97843  0.25000  0.81890  Biso   1.000  N
  C9       1.0000 0.66357  0.05874  0.46348  Biso   1.000  C
  C10      1.0000 0.83643  0.94126  0.96348  Biso   1.000  C
  C11      1.0000 0.33643  0.55874  0.53652  Biso   1.000  C
  C12      1.0000 0.16357  0.44126  0.03652  Biso   1.000  C
  C13      1.0000 0.33643  0.94126  0.53652  Biso   1.000  C
  C14      1.0000 0.16357  0.05874  0.03652  Biso   1.000  C
  C15      1.0000 0.66357  0.44126  0.46348  Biso   1.000  C
  C16      1.0000 0.83643  0.55874  0.96348  Biso   1.000  C
  N9       1.0000 0.64857  0.94175  0.49030  Biso   1.000  N
  N10      1.0000 0.85143  0.05825  0.99030  Biso   1.000  N
  N11      1.0000 0.35143  0.44175  0.50970  Biso   1.000  N
  N12      1.0000 0.14857  0.55825  0.00970  Biso   1.000  N
  N13      1.0000 0.35143  0.05825  0.50970  Biso   1.000  N
  N14      1.0000 0.14857  0.94175  0.00970  Biso   1.000  N
  N15      1.0000 0.64857  0.55825  0.49030  Biso   1.000  N
  N16      1.0000 0.85143  0.44175  0.99030  Biso   1.000  N
  N17      1.0000 0.92264  0.25000  0.21246  Biso   1.000  N
  N18      1.0000 0.57736  0.75000  0.71246  Biso   1.000  N
  N19      1.0000 0.07736  0.75000  0.78754  Biso   1.000  N
  N20      1.0000 0.42264  0.25000  0.28754  Biso   1.000  N
  N21      1.0000 0.80175  0.25000  0.37967  Biso   1.000  N
  N22      1.0000 0.69825  0.75000  0.87967  Biso   1.000  N
  N23      1.0000 0.19825  0.75000  0.62033  Biso   1.000  N
  N24      1.0000 0.30175  0.25000  0.12033  Biso   1.000  N
  H1       1.0000 0.82770  0.25000  0.45200  Biso   1.000  H
  H2       1.0000 0.67230  0.75000  0.95200  Biso   1.000  H
  H3       1.0000 0.17230  0.75000  0.54800  Biso   1.000  H
  H4       1.0000 0.32770  0.25000  0.04800  Biso   1.000  H
  C17      1.0000 0.90434  0.11987  0.28432  Biso   1.000  C
  C18      1.0000 0.59566  0.88013  0.78432  Biso   1.000  C
  C19      1.0000 0.09566  0.61987  0.71568  Biso   1.000  C
  C20      1.0000 0.40434  0.38013  0.21568  Biso   1.000  C
  C21      1.0000 0.09566  0.88013  0.71568  Biso   1.000  C
  C22      1.0000 0.40434  0.11987  0.21568  Biso   1.000  C
  C23      1.0000 0.90434  0.38013  0.28432  Biso   1.000  C
  C24      1.0000 0.59566  0.61987  0.78432  Biso   1.000  C
  H5       1.0000 0.91710  0.03230  0.23740  Biso   1.000  H
  H6       1.0000 0.58290  0.96770  0.73740  Biso   1.000  H
  H7       1.0000 0.08290  0.53230  0.76260  Biso   1.000  H
  H8       1.0000 0.41710  0.46770  0.26260  Biso   1.000  H
  H9       1.0000 0.08290  0.96770  0.76260  Biso   1.000  H
  H10      1.0000 0.41710  0.03230  0.26260  Biso   1.000  H
  H11      1.0000 0.91710  0.46770  0.23740  Biso   1.000  H
  H12      1.0000 0.58290  0.53230  0.73740  Biso   1.000  H
  H13      1.0000 0.93170  0.11930  0.36160  Biso   1.000  H
  H14      1.0000 0.56830  0.88070  0.86160  Biso   1.000  H
  H15      1.0000 0.06830  0.61930  0.63840  Biso   1.000  H
  H16      1.0000 0.43170  0.38070  0.13840  Biso   1.000  H
  H17      1.0000 0.06830  0.88070  0.63840  Biso   1.000  H
  H18      1.0000 0.43170  0.11930  0.13840  Biso   1.000  H
  H19      1.0000 0.93170  0.38070  0.36160  Biso   1.000  H
  H20      1.0000 0.56830  0.61930  0.86160  Biso   1.000  H
  C25      1.0000 0.82492  0.11884  0.31257  Biso   1.000  C
  C26      1.0000 0.67508  0.88116  0.81257  Biso   1.000  C
  C27      1.0000 0.17508  0.61884  0.68743  Biso   1.000  C
  C28      1.0000 0.32492  0.38116  0.18743  Biso   1.000  C
  C29      1.0000 0.17508  0.88116  0.68743  Biso   1.000  C
  C30      1.0000 0.32492  0.11884  0.18743  Biso   1.000  C
  C31      1.0000 0.82492  0.38116  0.31257  Biso   1.000  C
  C32      1.0000 0.67508  0.61884  0.81257  Biso   1.000  C
  H21      1.0000 0.79800  0.11180  0.23500  Biso   1.000  H
  H22      1.0000 0.70200  0.88820  0.73500  Biso   1.000  H
  H23      1.0000 0.20200  0.61180  0.76500  Biso   1.000  H
  H24      1.0000 0.29800  0.38820  0.26500  Biso   1.000  H
  H25      1.0000 0.20200  0.88820  0.76500  Biso   1.000  H
  H26      1.0000 0.29800  0.11180  0.26500  Biso   1.000  H
  H27      1.0000 0.79800  0.38820  0.23500  Biso   1.000  H
  H28      1.0000 0.70200  0.61180  0.73500  Biso   1.000  H
  H29      1.0000 0.81360  0.03260  0.36220  Biso   1.000  H
  H30      1.0000 0.68640  0.96740  0.86220  Biso   1.000  H
  H31      1.0000 0.18640  0.53260  0.63780  Biso   1.000  H
  H32      1.0000 0.31360  0.46740  0.13780  Biso   1.000  H
  H33      1.0000 0.18640  0.96740  0.63780  Biso   1.000  H
  H34      1.0000 0.31360  0.03260  0.13780  Biso   1.000  H
  H35      1.0000 0.81360  0.46740  0.36220  Biso   1.000  H
  H36      1.0000 0.68640  0.53260  0.86220  Biso   1.000  H
  C33      1.0000 0.99898  0.25000  0.17240  Biso   1.000  C
  C34      1.0000 0.50102  0.75000  0.67240  Biso   1.000  C
  C35      1.0000 0.00102  0.75000  0.82760  Biso   1.000  C
  C36      1.0000 0.49898  0.25000  0.32760  Biso   1.000  C
  H37      1.0000 0.00670  0.16410  0.12040  Biso   1.000  H
  H38      1.0000 0.49330  0.83590  0.62040  Biso   1.000  H
  H39      1.0000 0.99330  0.66410  0.87960  Biso   1.000  H
  H40      1.0000 0.50670  0.33590  0.37960  Biso   1.000  H
  H41      1.0000 0.99330  0.83590  0.87960  Biso   1.000  H
  H42      1.0000 0.50670  0.16410  0.37960  Biso   1.000  H
  H43      1.0000 0.00670  0.33590  0.12040  Biso   1.000  H
  H44      1.0000 0.49330  0.66410  0.62040  Biso   1.000  H
  C37      1.0000 0.05550  0.25000  0.27140  Biso   1.000  C
  C38      1.0000 0.44450  0.75000  0.77140  Biso   1.000  C
  C39      1.0000 0.94450  0.75000  0.72860  Biso   1.000  C
  C40      1.0000 0.55550  0.25000  0.22860  Biso   1.000  C
  C41      1.0000 0.08396  0.12110  0.31446  Biso   1.000  C
  C42      1.0000 0.41604  0.87890  0.81446  Biso   1.000  C
  C43      1.0000 0.91604  0.62110  0.68554  Biso   1.000  C
  C44      1.0000 0.58396  0.37890  0.18554  Biso   1.000  C
  C45      1.0000 0.91604  0.87890  0.68554  Biso   1.000  C
  C46      1.0000 0.58396  0.12110  0.18554  Biso   1.000  C
  C47      1.0000 0.08396  0.37890  0.31446  Biso   1.000  C
  C48      1.0000 0.41604  0.62110  0.81446  Biso   1.000  C
  H45      1.0000 0.06540  0.03200  0.28600  Biso   1.000  H
  H46      1.0000 0.43460  0.96800  0.78600  Biso   1.000  H
  H47      1.0000 0.93460  0.53200  0.71400  Biso   1.000  H
  H48      1.0000 0.56540  0.46800  0.21400  Biso   1.000  H
  H49      1.0000 0.93460  0.96800  0.71400  Biso   1.000  H
  H50      1.0000 0.56540  0.03200  0.21400  Biso   1.000  H
  H51      1.0000 0.06540  0.46800  0.28600  Biso   1.000  H
  H52      1.0000 0.43460  0.53200  0.78600  Biso   1.000  H
  C49      1.0000 0.13945  0.12140  0.39897  Biso   1.000  C
  C50      1.0000 0.36055  0.87860  0.89897  Biso   1.000  C
  C51      1.0000 0.86055  0.62140  0.60103  Biso   1.000  C
  C52      1.0000 0.63945  0.37860  0.10103  Biso   1.000  C
  C53      1.0000 0.86055  0.87860  0.60103  Biso   1.000  C
  C54      1.0000 0.63945  0.12140  0.10103  Biso   1.000  C
  C55      1.0000 0.13945  0.37860  0.39897  Biso   1.000  C
  C56      1.0000 0.36055  0.62140  0.89897  Biso   1.000  C
  H53      1.0000 0.15830  0.03270  0.42760  Biso   1.000  H
  H54      1.0000 0.34170  0.96730  0.92760  Biso   1.000  H
  H55      1.0000 0.84170  0.53270  0.57240  Biso   1.000  H
  H56      1.0000 0.65830  0.46730  0.07240  Biso   1.000  H
  H57      1.0000 0.84170  0.96730  0.57240  Biso   1.000  H
  H58      1.0000 0.65830  0.03270  0.07240  Biso   1.000  H
  H59      1.0000 0.15830  0.46730  0.42760  Biso   1.000  H
  H60      1.0000 0.34170  0.53270  0.92760  Biso   1.000  H
  C57      1.0000 0.16703  0.25000  0.44120  Biso   1.000  C
  C58      1.0000 0.33297  0.75000  0.94120  Biso   1.000  C
  C59      1.0000 0.83297  0.75000  0.55880  Biso   1.000  C
  C60      1.0000 0.66703  0.25000  0.05880  Biso   1.000  C
  H61      1.0000 0.20470  0.25000  0.49890  Biso   1.000  H
  H62      1.0000 0.29530  0.75000  0.99890  Biso   1.000  H
  H63      1.0000 0.79530  0.75000  0.50110  Biso   1.000  H
  H64      1.0000 0.70470  0.25000  0.00110  Biso   1.000  H
