data_image0
_cell_length_a       19.3691
_cell_length_b       6.8279
_cell_length_c       21.603
_cell_angle_alpha    90
_cell_angle_beta     108.035
_cell_angle_gamma    90

_symmetry_space_group_name_H-M    "P 1"
_symmetry_int_tables_number       1

loop_
  _symmetry_equiv_pos_as_xyz
  'x, y, z'

loop_
  _atom_site_label
  _atom_site_occupancy
  _atom_site_fract_x
  _atom_site_fract_y
  _atom_site_fract_z
  _atom_site_thermal_displace_type
  _atom_site_B_iso_or_equiv
  _atom_site_type_symbol
  Cu1      1.0000 0.89198  0.70834  0.40881  Biso   1.000  Cu
  Cu2      1.0000 0.10802  0.20834  0.59119  Biso   1.000  Cu
  Cu3      1.0000 0.09636  0.39197  0.35970  Biso   1.000  Cu
  Cu4      1.0000 0.90364  0.89197  0.64030  Biso   1.000  Cu
  Cu5      1.0000 0.30827  0.72356  0.33029  Biso   1.000  Cu
  Cu6      1.0000 0.69173  0.22356  0.66971  Biso   1.000  Cu
  Cu7      1.0000 0.37529  0.41061  0.39547  Biso   1.000  Cu
  Cu8      1.0000 0.62471  0.91061  0.60453  Biso   1.000  Cu
  Cu9      1.0000 0.58506  0.71767  0.35874  Biso   1.000  Cu
  Cu10     1.0000 0.41494  0.21767  0.64126  Biso   1.000  Cu
  Cu11     1.0000 0.80077  0.37636  0.34139  Biso   1.000  Cu
  Cu12     1.0000 0.19923  0.87636  0.65861  Biso   1.000  Cu
  C1       1.0000 0.01043  0.49460  0.36891  Biso   1.000  C
  C2       1.0000 0.98957  0.99460  0.63109  Biso   1.000  C
  N1       1.0000 0.96109  0.55900  0.38049  Biso   1.000  N
  N2       1.0000 0.03891  0.05900  0.61951  Biso   1.000  N
  C3       1.0000 0.35375  0.14300  0.37922  Biso   1.000  C
  C4       1.0000 0.64625  0.64300  0.62078  Biso   1.000  C
  N3       1.0000 0.33963  0.98030  0.36563  Biso   1.000  N
  N4       1.0000 0.66037  0.48030  0.63437  Biso   1.000  N
  C5       1.0000 0.49238  0.63190  0.35761  Biso   1.000  C
  C6       1.0000 0.50762  0.13190  0.64239  Biso   1.000  C
  N5       1.0000 0.43826  0.57670  0.36259  Biso   1.000  N
  N6       1.0000 0.56174  0.07670  0.63741  Biso   1.000  N
  C7       1.0000 0.72667  0.53860  0.35109  Biso   1.000  C
  C8       1.0000 0.27333  0.03860  0.64891  Biso   1.000  C
  N7       1.0000 0.67514  0.61560  0.35398  Biso   1.000  N
  N8       1.0000 0.32486  0.11560  0.64602  Biso   1.000  N
  N9       1.0000 0.84082  0.12920  0.38047  Biso   1.000  N
  N10      1.0000 0.15918  0.62920  0.61953  Biso   1.000  N
  C9       1.0000 0.85848  0.96850  0.39203  Biso   1.000  C
  C10      1.0000 0.14152  0.46850  0.60797  Biso   1.000  C
  C11      1.0000 0.23808  0.55370  0.34497  Biso   1.000  C
  C12      1.0000 0.76192  0.05370  0.65503  Biso   1.000  C
  N11      1.0000 0.18606  0.48390  0.34923  Biso   1.000  N
  N12      1.0000 0.81394  0.98390  0.65077  Biso   1.000  N
  N13      1.0000 0.87834  0.55980  0.48934  Biso   1.000  N
  N14      1.0000 0.12166  0.05980  0.51066  Biso   1.000  N
  H1       1.0000 0.86480  0.43140  0.47710  Biso   1.000  H
  H2       1.0000 0.13520  0.93140  0.52290  Biso   1.000  H
  N15      1.0000 0.88286  0.58710  0.62642  Biso   1.000  N
  N16      1.0000 0.11714  0.08710  0.37358  Biso   1.000  N
  N17      1.0000 0.31730  0.75440  0.23621  Biso   1.000  N
  N18      1.0000 0.68270  0.25440  0.76379  Biso   1.000  N
  H3       1.0000 0.36040  0.82260  0.24200  Biso   1.000  H
  H4       1.0000 0.63960  0.32260  0.75800  Biso   1.000  H
  N19      1.0000 0.20155  0.59120  0.13156  Biso   1.000  N
  N20      1.0000 0.79845  0.09120  0.86844  Biso   1.000  N
  N21      1.0000 0.62049  0.04560  0.51591  Biso   1.000  N
  N22      1.0000 0.37951  0.54560  0.48409  Biso   1.000  N
  H5       1.0000 0.63010  0.17790  0.52450  Biso   1.000  H
  H6       1.0000 0.36990  0.67790  0.47550  Biso   1.000  H
  N23      1.0000 0.60569  0.02570  0.37691  Biso   1.000  N
  N24      1.0000 0.39431  0.52570  0.62309  Biso   1.000  N
  C13      1.0000 0.82060  0.65170  0.51124  Biso   1.000  C
  C14      1.0000 0.17940  0.15170  0.48876  Biso   1.000  C
  H7       1.0000 0.77370  0.63750  0.47640  Biso   1.000  H
  H8       1.0000 0.22630  0.13750  0.52360  Biso   1.000  H
  H9       1.0000 0.83090  0.79350  0.51790  Biso   1.000  H
  H10      1.0000 0.16910  0.29350  0.48210  Biso   1.000  H
  C15      1.0000 0.81337  0.56630  0.57287  Biso   1.000  C
  C16      1.0000 0.18663  0.06630  0.42713  Biso   1.000  C
  H11      1.0000 0.77420  0.63460  0.58470  Biso   1.000  H
  H12      1.0000 0.22580  0.13460  0.41530  Biso   1.000  H
  H13      1.0000 0.80030  0.42600  0.56610  Biso   1.000  H
  H14      1.0000 0.19970  0.92600  0.43390  Biso   1.000  H
  C17      1.0000 0.93880  0.47850  0.60721  Biso   1.000  C
  C18      1.0000 0.06120  0.97850  0.39279  Biso   1.000  C
  H15      1.0000 0.92530  0.33830  0.60180  Biso   1.000  H
  H16      1.0000 0.07470  0.83830  0.39820  Biso   1.000  H
  H17      1.0000 0.98580  0.48910  0.64230  Biso   1.000  H
  H18      1.0000 0.01420  0.98910  0.35770  Biso   1.000  H
  C19      1.0000 0.94747  0.55600  0.54436  Biso   1.000  C
  C20      1.0000 0.05253  0.05600  0.45564  Biso   1.000  C
  H19      1.0000 0.96740  0.69050  0.55190  Biso   1.000  H
  H20      1.0000 0.03260  0.19050  0.44810  Biso   1.000  H
  H21      1.0000 0.98310  0.47330  0.53200  Biso   1.000  H
  H22      1.0000 0.01690  0.97330  0.46800  Biso   1.000  H
  C21      1.0000 0.87199  0.50110  0.68581  Biso   1.000  C
  C22      1.0000 0.12801  0.00110  0.31419  Biso   1.000  C
  H23      1.0000 0.86120  0.35990  0.67810  Biso   1.000  H
  H24      1.0000 0.13880  0.85990  0.32190  Biso   1.000  H
  H25      1.0000 0.82900  0.56350  0.69310  Biso   1.000  H
  H26      1.0000 0.17100  0.06350  0.30690  Biso   1.000  H
  C23      1.0000 0.93572  0.52370  0.74662  Biso   1.000  C
  C24      1.0000 0.06428  0.02370  0.25338  Biso   1.000  C
  C25      1.0000 0.95194  0.70350  0.77811  Biso   1.000  C
  C26      1.0000 0.04806  0.20350  0.22189  Biso   1.000  C
  H27      1.0000 0.92340  0.81470  0.75980  Biso   1.000  H
  H28      1.0000 0.07660  0.31470  0.24020  Biso   1.000  H
  C27      1.0000 0.00824  0.72440  0.83515  Biso   1.000  C
  C28      1.0000 0.99176  0.22440  0.16485  Biso   1.000  C
  H29      1.0000 0.01930  0.84980  0.85480  Biso   1.000  H
  H30      1.0000 0.98070  0.34980  0.14520  Biso   1.000  H
  C29      1.0000 0.04840  0.56450  0.86357  Biso   1.000  C
  C30      1.0000 0.95160  0.06450  0.13643  Biso   1.000  C
  H31      1.0000 0.08630  0.57770  0.90360  Biso   1.000  H
  H32      1.0000 0.91370  0.07770  0.09640  Biso   1.000  H
  C31      1.0000 0.03340  0.38490  0.83364  Biso   1.000  C
  C32      1.0000 0.96660  0.88490  0.16636  Biso   1.000  C
  H33      1.0000 0.06120  0.27360  0.85310  Biso   1.000  H
  H34      1.0000 0.93880  0.77360  0.14690  Biso   1.000  H
  C33      1.0000 0.97777  0.36510  0.77500  Biso   1.000  C
  C34      1.0000 0.02223  0.86510  0.22500  Biso   1.000  C
  H35      1.0000 0.96870  0.24090  0.75430  Biso   1.000  H
  H36      1.0000 0.03130  0.74090  0.24570  Biso   1.000  H
  C35      1.0000 0.32612  0.56920  0.20339  Biso   1.000  C
  C36      1.0000 0.67388  0.06920  0.79661  Biso   1.000  C
  H37      1.0000 0.36090  0.48290  0.23480  Biso   1.000  H
  H38      1.0000 0.63910  0.98290  0.76520  Biso   1.000  H
  H39      1.0000 0.34610  0.59850  0.16740  Biso   1.000  H
  H40      1.0000 0.65390  0.09850  0.83260  Biso   1.000  H
  C37      1.0000 0.25440  0.46550  0.17678  Biso   1.000  C
  C38      1.0000 0.74560  0.96550  0.82322  Biso   1.000  C
  H41      1.0000 0.26120  0.34440  0.15410  Biso   1.000  H
  H42      1.0000 0.73880  0.84440  0.84590  Biso   1.000  H
  H43      1.0000 0.23610  0.42810  0.21310  Biso   1.000  H
  H44      1.0000 0.76390  0.92810  0.78690  Biso   1.000  H
  C39      1.0000 0.19041  0.76440  0.16706  Biso   1.000  C
  C40      1.0000 0.80959  0.26440  0.83294  Biso   1.000  C
  H45      1.0000 0.17350  0.72390  0.20400  Biso   1.000  H
  H46      1.0000 0.82650  0.22390  0.79600  Biso   1.000  H
  H47      1.0000 0.15250  0.84850  0.13780  Biso   1.000  H
  H48      1.0000 0.84750  0.34850  0.86220  Biso   1.000  H
  C41      1.0000 0.26030  0.87880  0.19234  Biso   1.000  C
  C42      1.0000 0.73970  0.37880  0.80766  Biso   1.000  C
  H49      1.0000 0.27620  0.92360  0.15540  Biso   1.000  H
  H50      1.0000 0.72380  0.42360  0.84460  Biso   1.000  H
  H51      1.0000 0.25210  0.99580  0.21630  Biso   1.000  H
  H52      1.0000 0.74790  0.49580  0.78370  Biso   1.000  H
  C43      1.0000 0.13428  0.48910  0.09950  Biso   1.000  C
  C44      1.0000 0.86572  0.98910  0.90050  Biso   1.000  C
  H53      1.0000 0.09760  0.58550  0.07550  Biso   1.000  H
  H54      1.0000 0.90240  0.08550  0.92450  Biso   1.000  H
  H55      1.0000 0.11610  0.42770  0.13300  Biso   1.000  H
  H56      1.0000 0.88390  0.92770  0.86700  Biso   1.000  H
  C45      1.0000 0.14238  0.33250  0.05254  Biso   1.000  C
  C46      1.0000 0.85762  0.83250  0.94746  Biso   1.000  C
  C47      1.0000 0.10190  0.16170  0.04237  Biso   1.000  C
  C48      1.0000 0.89810  0.66170  0.95763  Biso   1.000  C
  H57      1.0000 0.06730  0.14210  0.06480  Biso   1.000  H
  H58      1.0000 0.93270  0.64210  0.93520  Biso   1.000  H
  C49      1.0000 0.11110  0.01940  0.00020  Biso   1.000  C
  C50      1.0000 0.88890  0.51940  0.99980  Biso   1.000  C
  H59      1.0000 0.08310  0.90270  0.99440  Biso   1.000  H
  H60      1.0000 0.91690  0.40270  0.00560  Biso   1.000  H
  C51      1.0000 0.15990  0.04410  0.96680  Biso   1.000  C
  C52      1.0000 0.84010  0.54410  0.03320  Biso   1.000  C
  H61      1.0000 0.16620  0.94570  0.93800  Biso   1.000  H
  H62      1.0000 0.83380  0.44570  0.06200  Biso   1.000  H
  C53      1.0000 0.19910  0.21220  0.97571  Biso   1.000  C
  C54      1.0000 0.80090  0.71220  0.02429  Biso   1.000  C
  H63      1.0000 0.23330  0.23070  0.95280  Biso   1.000  H
  H64      1.0000 0.76670  0.73070  0.04720  Biso   1.000  H
  C55      1.0000 0.19040  0.35610  0.01703  Biso   1.000  C
  C56      1.0000 0.80960  0.85610  0.98297  Biso   1.000  C
  H65      1.0000 0.21760  0.47380  0.02140  Biso   1.000  H
  H66      1.0000 0.78240  0.97380  0.97860  Biso   1.000  H
  C57      1.0000 0.67785  0.96830  0.49063  Biso   1.000  C
  C58      1.0000 0.32215  0.46830  0.50937  Biso   1.000  C
  H67      1.0000 0.67190  0.82470  0.48520  Biso   1.000  H
  H68      1.0000 0.32810  0.32470  0.51480  Biso   1.000  H
  H69      1.0000 0.72580  0.99330  0.52310  Biso   1.000  H
  H70      1.0000 0.27420  0.49330  0.47690  Biso   1.000  H
  C59      1.0000 0.67685  0.05820  0.42625  Biso   1.000  C
  C60      1.0000 0.32315  0.55820  0.57375  Biso   1.000  C
  H71      1.0000 0.68650  0.20050  0.43190  Biso   1.000  H
  H72      1.0000 0.31350  0.70050  0.56810  Biso   1.000  H
  H73      1.0000 0.71560  0.99860  0.41140  Biso   1.000  H
  H74      1.0000 0.28440  0.49860  0.58860  Biso   1.000  H
  C61      1.0000 0.54918  0.11770  0.39982  Biso   1.000  C
  C62      1.0000 0.45082  0.61770  0.60018  Biso   1.000  C
  H75      1.0000 0.50100  0.09680  0.36720  Biso   1.000  H
  H76      1.0000 0.49900  0.59680  0.63280  Biso   1.000  H
  H77      1.0000 0.55800  0.26050  0.40460  Biso   1.000  H
  H78      1.0000 0.44200  0.76050  0.59540  Biso   1.000  H
  C63      1.0000 0.54932  0.03170  0.46464  Biso   1.000  C
  C64      1.0000 0.45068  0.53170  0.53536  Biso   1.000  C
  H79      1.0000 0.51250  0.10080  0.47970  Biso   1.000  H
  H80      1.0000 0.48750  0.60080  0.52030  Biso   1.000  H
  H81      1.0000 0.53490  0.89220  0.45820  Biso   1.000  H
  H82      1.0000 0.46510  0.39220  0.54180  Biso   1.000  H
  C65      1.0000 0.60782  0.11540  0.31452  Biso   1.000  C
  C66      1.0000 0.39218  0.61540  0.68548  Biso   1.000  C
  H83      1.0000 0.65330  0.07530  0.30630  Biso   1.000  H
  H84      1.0000 0.34670  0.57530  0.69370  Biso   1.000  H
  H85      1.0000 0.60870  0.25970  0.31910  Biso   1.000  H
  H86      1.0000 0.39130  0.75970  0.68090  Biso   1.000  H
  C67      1.0000 0.54475  0.05910  0.25693  Biso   1.000  C
  C68      1.0000 0.45525  0.55910  0.74307  Biso   1.000  C
  C69      1.0000 0.54408  0.88060  0.22564  Biso   1.000  C
  C70      1.0000 0.45592  0.38060  0.77436  Biso   1.000  C
  H87      1.0000 0.58410  0.79390  0.24120  Biso   1.000  H
  H88      1.0000 0.41590  0.29390  0.75880  Biso   1.000  H
  C71      1.0000 0.48650  0.82700  0.17255  Biso   1.000  C
  C72      1.0000 0.51350  0.32700  0.82745  Biso   1.000  C
  H89      1.0000 0.48660  0.70330  0.15240  Biso   1.000  H
  H90      1.0000 0.51340  0.20330  0.84760  Biso   1.000  H
  C73      1.0000 0.42941  0.95210  0.14900  Biso   1.000  C
  C74      1.0000 0.57059  0.45210  0.85100  Biso   1.000  C
  H91      1.0000 0.39000  0.91590  0.11210  Biso   1.000  H
  H92      1.0000 0.61000  0.41590  0.88790  Biso   1.000  H
  C75      1.0000 0.42872  0.13000  0.17836  Biso   1.000  C
  C76      1.0000 0.57128  0.63000  0.82164  Biso   1.000  C
  H93      1.0000 0.38890  0.21670  0.16160  Biso   1.000  H
  H94      1.0000 0.61110  0.71670  0.83840  Biso   1.000  H
  C77      1.0000 0.48590  0.18360  0.23235  Biso   1.000  C
  C78      1.0000 0.51410  0.68360  0.76765  Biso   1.000  C
  H95      1.0000 0.48480  0.30640  0.25270  Biso   1.000  H
  H96      1.0000 0.51520  0.80640  0.74730  Biso   1.000  H
  C79      1.0000 0.82490  0.55790  0.22220  Biso   1.000  C
  C80      1.0000 0.17510  0.05790  0.77780  Biso   1.000  C
  H97      1.0000 0.85310  0.55670  0.19100  Biso   1.000  H
  H98      1.0000 0.14690  0.05670  0.80900  Biso   1.000  H
  H99      1.0000 0.83860  0.67650  0.24960  Biso   1.000  H
  H100     1.0000 0.16140  0.17650  0.75040  Biso   1.000  H
  C81      1.0000 0.74440  0.56280  0.18540  Biso   1.000  C
  C82      1.0000 0.25560  0.06280  0.81460  Biso   1.000  C
  H101     1.0000 0.71640  0.57120  0.21660  Biso   1.000  H
  H102     1.0000 0.28360  0.07120  0.78340  Biso   1.000  H
  H103     1.0000 0.73320  0.68040  0.15720  Biso   1.000  H
  H104     1.0000 0.26680  0.18040  0.84280  Biso   1.000  H
  C83      1.0000 0.74210  0.21740  0.18606  Biso   1.000  C
  C84      1.0000 0.25790  0.71740  0.81394  Biso   1.000  C
  H105     1.0000 0.72800  0.09820  0.15900  Biso   1.000  H
  H106     1.0000 0.27200  0.59820  0.84100  Biso   1.000  H
  H107     1.0000 0.71460  0.21860  0.21780  Biso   1.000  H
  H108     1.0000 0.28540  0.71860  0.78220  Biso   1.000  H
  C85      1.0000 0.82217  0.20840  0.22246  Biso   1.000  C
  C86      1.0000 0.17783  0.70840  0.77754  Biso   1.000  C
  H109     1.0000 0.83320  0.08980  0.25020  Biso   1.000  H
  H110     1.0000 0.16680  0.58980  0.74980  Biso   1.000  H
  H111     1.0000 0.85040  0.20240  0.19140  Biso   1.000  H
  H112     1.0000 0.14960  0.70240  0.80860  Biso   1.000  H
  C87      1.0000 0.64516  0.39130  0.10954  Biso   1.000  C
  C88      1.0000 0.35484  0.89130  0.89046  Biso   1.000  C
  H113     1.0000 0.63380  0.51340  0.08360  Biso   1.000  H
  H114     1.0000 0.36620  0.01340  0.91640  Biso   1.000  H
  H115     1.0000 0.61720  0.39230  0.14090  Biso   1.000  H
  H116     1.0000 0.38280  0.89230  0.85910  Biso   1.000  H
  C89      1.0000 0.62228  0.21750  0.06475  Biso   1.000  C
  C90      1.0000 0.37772  0.71750  0.93525  Biso   1.000  C
  C91      1.0000 0.64995  0.19050  0.01331  Biso   1.000  C
  C92      1.0000 0.35005  0.69050  0.98669  Biso   1.000  C
  H117     1.0000 0.68370  0.28200  0.00630  Biso   1.000  H
  H118     1.0000 0.31630  0.78200  0.99370  Biso   1.000  H
  C93      1.0000 0.62900  0.03250  0.97233  Biso   1.000  C
  C94      1.0000 0.37100  0.53250  0.02767  Biso   1.000  C
  H119     1.0000 0.64780  0.01680  0.93690  Biso   1.000  H
  H120     1.0000 0.35220  0.51680  0.06310  Biso   1.000  H
  C95      1.0000 0.58080  0.89650  0.98238  Biso   1.000  C
  C96      1.0000 0.41920  0.39650  0.01762  Biso   1.000  C
  H121     1.0000 0.56660  0.78730  0.95400  Biso   1.000  H
  H122     1.0000 0.43340  0.28730  0.04600  Biso   1.000  H
  C97      1.0000 0.55346  0.91950  0.03351  Biso   1.000  C
  C98      1.0000 0.44654  0.41950  0.96649  Biso   1.000  C
  H123     1.0000 0.52040  0.82640  0.04080  Biso   1.000  H
  H124     1.0000 0.47960  0.32640  0.95920  Biso   1.000  H
  C99      1.0000 0.57446  0.07930  0.07412  Biso   1.000  C
  C100     1.0000 0.42554  0.57930  0.92588  Biso   1.000  C
  H125     1.0000 0.55550  0.09460  0.10950  Biso   1.000  H
  H126     1.0000 0.44450  0.59460  0.89050  Biso   1.000  H
  N25      1.0000 0.84174  0.38430  0.26288  Biso   1.000  N
  N26      1.0000 0.15826  0.88430  0.73712  Biso   1.000  N
  H127     1.0000 0.89200  0.38170  0.28070  Biso   1.000  H
  H128     1.0000 0.10800  0.88170  0.71930  Biso   1.000  H
  N27      1.0000 0.72274  0.38640  0.14519  Biso   1.000  N
  N28      1.0000 0.27726  0.88640  0.85481  Biso   1.000  N
