data_image0
_cell_length_a       11.5888
_cell_length_b       8.7336
_cell_length_c       35.7412
_cell_angle_alpha    90
_cell_angle_beta     90
_cell_angle_gamma    90

_symmetry_space_group_name_H-M    "P 1"
_symmetry_int_tables_number       1

loop_
  _symmetry_equiv_pos_as_xyz
  'x, y, z'

loop_
  _atom_site_label
  _atom_site_occupancy
  _atom_site_fract_x
  _atom_site_fract_y
  _atom_site_fract_z
  _atom_site_thermal_displace_type
  _atom_site_B_iso_or_equiv
  _atom_site_type_symbol
  Cu1      1.0000 0.35159  0.17532  0.45827  Biso   1.000  Cu
  Cu2      1.0000 0.14841  0.82468  0.95827  Biso   1.000  Cu
  Cu3      1.0000 0.64841  0.67532  0.04173  Biso   1.000  Cu
  Cu4      1.0000 0.85159  0.32468  0.54173  Biso   1.000  Cu
  Cu5      1.0000 0.64841  0.82468  0.54173  Biso   1.000  Cu
  Cu6      1.0000 0.85159  0.17532  0.04173  Biso   1.000  Cu
  Cu7      1.0000 0.35159  0.32468  0.95827  Biso   1.000  Cu
  Cu8      1.0000 0.14841  0.67532  0.45827  Biso   1.000  Cu
  Cu9      1.0000 0.77118  0.25656  0.46679  Biso   1.000  Cu
  Cu10     1.0000 0.72882  0.74344  0.96679  Biso   1.000  Cu
  Cu11     1.0000 0.22882  0.75656  0.03321  Biso   1.000  Cu
  Cu12     1.0000 0.27118  0.24344  0.53321  Biso   1.000  Cu
  Cu13     1.0000 0.22882  0.74344  0.53321  Biso   1.000  Cu
  Cu14     1.0000 0.27118  0.25656  0.03321  Biso   1.000  Cu
  Cu15     1.0000 0.77118  0.24344  0.96679  Biso   1.000  Cu
  Cu16     1.0000 0.72882  0.75656  0.46679  Biso   1.000  Cu
  N1       1.0000 0.27707  0.36990  0.45660  Biso   1.000  N
  N2       1.0000 0.22293  0.63010  0.95660  Biso   1.000  N
  N3       1.0000 0.72293  0.86990  0.04340  Biso   1.000  N
  N4       1.0000 0.77707  0.13010  0.54340  Biso   1.000  N
  N5       1.0000 0.72293  0.63010  0.54340  Biso   1.000  N
  N6       1.0000 0.77707  0.36990  0.04340  Biso   1.000  N
  N7       1.0000 0.27707  0.13010  0.95660  Biso   1.000  N
  N8       1.0000 0.22293  0.86990  0.45660  Biso   1.000  N
  C1       1.0000 0.22635  0.48470  0.45589  Biso   1.000  C
  C2       1.0000 0.27365  0.51530  0.95589  Biso   1.000  C
  C3       1.0000 0.77365  0.98470  0.04411  Biso   1.000  C
  C4       1.0000 0.72635  0.01530  0.54411  Biso   1.000  C
  C5       1.0000 0.77365  0.51530  0.54411  Biso   1.000  C
  C6       1.0000 0.72635  0.48470  0.04411  Biso   1.000  C
  C7       1.0000 0.22635  0.01530  0.95589  Biso   1.000  C
  C8       1.0000 0.27365  0.98470  0.45589  Biso   1.000  C
  C9       1.0000 0.61520  0.21150  0.46720  Biso   1.000  C
  C10      1.0000 0.88480  0.78850  0.96720  Biso   1.000  C
  C11      1.0000 0.38480  0.71150  0.03280  Biso   1.000  C
  C12      1.0000 0.11520  0.28850  0.53280  Biso   1.000  C
  C13      1.0000 0.38480  0.78850  0.53280  Biso   1.000  C
  C14      1.0000 0.11520  0.21150  0.03280  Biso   1.000  C
  C15      1.0000 0.61520  0.28850  0.96720  Biso   1.000  C
  C16      1.0000 0.88480  0.71150  0.46720  Biso   1.000  C
  N9       1.0000 0.51772  0.18423  0.46497  Biso   1.000  N
  N10      1.0000 0.98228  0.81577  0.96497  Biso   1.000  N
  N11      1.0000 0.48228  0.68423  0.03503  Biso   1.000  N
  N12      1.0000 0.01772  0.31577  0.53503  Biso   1.000  N
  N13      1.0000 0.48228  0.81577  0.53503  Biso   1.000  N
  N14      1.0000 0.01772  0.18423  0.03503  Biso   1.000  N
  N15      1.0000 0.51772  0.31577  0.96497  Biso   1.000  N
  N16      1.0000 0.98228  0.68423  0.46497  Biso   1.000  N
  N17      1.0000 0.92818  0.29735  0.45130  Biso   1.000  N
  N18      1.0000 0.57182  0.70265  0.95130  Biso   1.000  N
  N19      1.0000 0.07182  0.79735  0.04870  Biso   1.000  N
  N20      1.0000 0.42818  0.20265  0.54870  Biso   1.000  N
  N21      1.0000 0.07182  0.70265  0.54870  Biso   1.000  N
  N22      1.0000 0.42818  0.29735  0.04870  Biso   1.000  N
  N23      1.0000 0.92818  0.20265  0.95130  Biso   1.000  N
  N24      1.0000 0.57182  0.79735  0.45130  Biso   1.000  N
  H1       1.0000 0.96160  0.36450  0.46830  Biso   1.000  H
  H2       1.0000 0.53840  0.63550  0.96830  Biso   1.000  H
  H3       1.0000 0.03840  0.86450  0.03170  Biso   1.000  H
  H4       1.0000 0.46160  0.13550  0.53170  Biso   1.000  H
  H5       1.0000 0.03840  0.63550  0.53170  Biso   1.000  H
  H6       1.0000 0.46160  0.36450  0.03170  Biso   1.000  H
  H7       1.0000 0.96160  0.13550  0.96830  Biso   1.000  H
  H8       1.0000 0.53840  0.86450  0.46830  Biso   1.000  H
  N25      1.0000 0.95522  0.11705  0.38363  Biso   1.000  N
  N26      1.0000 0.54478  0.88295  0.88363  Biso   1.000  N
  N27      1.0000 0.04478  0.61705  0.11637  Biso   1.000  N
  N28      1.0000 0.45522  0.38295  0.61637  Biso   1.000  N
  N29      1.0000 0.04478  0.88295  0.61637  Biso   1.000  N
  N30      1.0000 0.45522  0.11705  0.11637  Biso   1.000  N
  N31      1.0000 0.95522  0.38295  0.88363  Biso   1.000  N
  N32      1.0000 0.54478  0.61705  0.38363  Biso   1.000  N
  H9       1.0000 0.03130  0.14380  0.37860  Biso   1.000  H
  H10      1.0000 0.46870  0.85620  0.87860  Biso   1.000  H
  H11      1.0000 0.96870  0.64380  0.12140  Biso   1.000  H
  H12      1.0000 0.53130  0.35620  0.62140  Biso   1.000  H
  H13      1.0000 0.96870  0.85620  0.62140  Biso   1.000  H
  H14      1.0000 0.53130  0.14380  0.12140  Biso   1.000  H
  H15      1.0000 0.03130  0.35620  0.87860  Biso   1.000  H
  H16      1.0000 0.46870  0.64380  0.37860  Biso   1.000  H
  C17      1.0000 0.95040  0.04590  0.42077  Biso   1.000  C
  C18      1.0000 0.54960  0.95410  0.92077  Biso   1.000  C
  C19      1.0000 0.04960  0.54590  0.07923  Biso   1.000  C
  C20      1.0000 0.45040  0.45410  0.57923  Biso   1.000  C
  C21      1.0000 0.04960  0.95410  0.57923  Biso   1.000  C
  C22      1.0000 0.45040  0.04590  0.07923  Biso   1.000  C
  C23      1.0000 0.95040  0.45410  0.92077  Biso   1.000  C
  C24      1.0000 0.54960  0.54590  0.42077  Biso   1.000  C
  H17      1.0000 0.99590  0.95000  0.42060  Biso   1.000  H
  H18      1.0000 0.50410  0.05000  0.92060  Biso   1.000  H
  H19      1.0000 0.00410  0.45000  0.07940  Biso   1.000  H
  H20      1.0000 0.49590  0.55000  0.57940  Biso   1.000  H
  H21      1.0000 0.00410  0.05000  0.57940  Biso   1.000  H
  H22      1.0000 0.49590  0.95000  0.07940  Biso   1.000  H
  H23      1.0000 0.99590  0.55000  0.92060  Biso   1.000  H
  H24      1.0000 0.50410  0.45000  0.42060  Biso   1.000  H
  H25      1.0000 0.86940  0.01980  0.42690  Biso   1.000  H
  H26      1.0000 0.63060  0.98020  0.92690  Biso   1.000  H
  H27      1.0000 0.13060  0.51980  0.07310  Biso   1.000  H
  H28      1.0000 0.36940  0.48020  0.57310  Biso   1.000  H
  H29      1.0000 0.13060  0.98020  0.57310  Biso   1.000  H
  H30      1.0000 0.36940  0.01980  0.07310  Biso   1.000  H
  H31      1.0000 0.86940  0.48020  0.92690  Biso   1.000  H
  H32      1.0000 0.63060  0.51980  0.42690  Biso   1.000  H
  C25      1.0000 0.88530  0.25712  0.38451  Biso   1.000  C
  C26      1.0000 0.61470  0.74288  0.88451  Biso   1.000  C
  C27      1.0000 0.11470  0.75712  0.11549  Biso   1.000  C
  C28      1.0000 0.38530  0.24288  0.61549  Biso   1.000  C
  C29      1.0000 0.11470  0.74288  0.61549  Biso   1.000  C
  C30      1.0000 0.38530  0.25712  0.11549  Biso   1.000  C
  C31      1.0000 0.88530  0.24288  0.88451  Biso   1.000  C
  C32      1.0000 0.61470  0.75712  0.38451  Biso   1.000  C
  H33      1.0000 0.80440  0.23090  0.39070  Biso   1.000  H
  H34      1.0000 0.69560  0.76910  0.89070  Biso   1.000  H
  H35      1.0000 0.19560  0.73090  0.10930  Biso   1.000  H
  H36      1.0000 0.30440  0.26910  0.60930  Biso   1.000  H
  H37      1.0000 0.19560  0.76910  0.60930  Biso   1.000  H
  H38      1.0000 0.30440  0.23090  0.10930  Biso   1.000  H
  H39      1.0000 0.80440  0.26910  0.89070  Biso   1.000  H
  H40      1.0000 0.69560  0.73090  0.39070  Biso   1.000  H
  H41      1.0000 0.88610  0.30600  0.35950  Biso   1.000  H
  H42      1.0000 0.61390  0.69400  0.85950  Biso   1.000  H
  H43      1.0000 0.11390  0.80600  0.14050  Biso   1.000  H
  H44      1.0000 0.38610  0.19400  0.64050  Biso   1.000  H
  H45      1.0000 0.11390  0.69400  0.64050  Biso   1.000  H
  H46      1.0000 0.38610  0.30600  0.14050  Biso   1.000  H
  H47      1.0000 0.88610  0.19400  0.85950  Biso   1.000  H
  H48      1.0000 0.61390  0.80600  0.35950  Biso   1.000  H
  C33      1.0000 0.93231  0.36820  0.41339  Biso   1.000  C
  C34      1.0000 0.56769  0.63180  0.91339  Biso   1.000  C
  C35      1.0000 0.06769  0.86820  0.08661  Biso   1.000  C
  C36      1.0000 0.43231  0.13180  0.58661  Biso   1.000  C
  C37      1.0000 0.06769  0.63180  0.58661  Biso   1.000  C
  C38      1.0000 0.43231  0.36820  0.08661  Biso   1.000  C
  C39      1.0000 0.93231  0.13180  0.91339  Biso   1.000  C
  C40      1.0000 0.56769  0.86820  0.41339  Biso   1.000  C
  H49      1.0000 0.01300  0.39530  0.40710  Biso   1.000  H
  H50      1.0000 0.48700  0.60470  0.90710  Biso   1.000  H
  H51      1.0000 0.98700  0.89530  0.09290  Biso   1.000  H
  H52      1.0000 0.51300  0.10470  0.59290  Biso   1.000  H
  H53      1.0000 0.98700  0.60470  0.59290  Biso   1.000  H
  H54      1.0000 0.51300  0.39530  0.09290  Biso   1.000  H
  H55      1.0000 0.01300  0.10470  0.90710  Biso   1.000  H
  H56      1.0000 0.48700  0.89530  0.40710  Biso   1.000  H
  H57      1.0000 0.88580  0.46330  0.41320  Biso   1.000  H
  H58      1.0000 0.61420  0.53670  0.91320  Biso   1.000  H
  H59      1.0000 0.11420  0.96330  0.08680  Biso   1.000  H
  H60      1.0000 0.38580  0.03670  0.58680  Biso   1.000  H
  H61      1.0000 0.11420  0.53670  0.58680  Biso   1.000  H
  H62      1.0000 0.38580  0.46330  0.08680  Biso   1.000  H
  H63      1.0000 0.88580  0.03670  0.91320  Biso   1.000  H
  H64      1.0000 0.61420  0.96330  0.41320  Biso   1.000  H
  C41      1.0000 0.91529  0.01070  0.35444  Biso   1.000  C
  C42      1.0000 0.58471  0.98930  0.85444  Biso   1.000  C
  C43      1.0000 0.08471  0.51070  0.14556  Biso   1.000  C
  C44      1.0000 0.41529  0.48930  0.64556  Biso   1.000  C
  C45      1.0000 0.08471  0.98930  0.64556  Biso   1.000  C
  C46      1.0000 0.41529  0.01070  0.14556  Biso   1.000  C
  C47      1.0000 0.91529  0.48930  0.85444  Biso   1.000  C
  C48      1.0000 0.58471  0.51070  0.35444  Biso   1.000  C
  H65      1.0000 0.83480  0.97880  0.36080  Biso   1.000  H
  H66      1.0000 0.66520  0.02120  0.86080  Biso   1.000  H
  H67      1.0000 0.16520  0.47880  0.13920  Biso   1.000  H
  H68      1.0000 0.33480  0.52120  0.63920  Biso   1.000  H
  H69      1.0000 0.16520  0.02120  0.63920  Biso   1.000  H
  H70      1.0000 0.33480  0.97880  0.13920  Biso   1.000  H
  H71      1.0000 0.83480  0.52120  0.86080  Biso   1.000  H
  H72      1.0000 0.66520  0.47880  0.36080  Biso   1.000  H
  C49      1.0000 0.98979  0.86650  0.35255  Biso   1.000  C
  C50      1.0000 0.51021  0.13350  0.85255  Biso   1.000  C
  C51      1.0000 0.01021  0.36650  0.14745  Biso   1.000  C
  C52      1.0000 0.48979  0.63350  0.64745  Biso   1.000  C
  C53      1.0000 0.01021  0.13350  0.64745  Biso   1.000  C
  C54      1.0000 0.48979  0.86650  0.14745  Biso   1.000  C
  C55      1.0000 0.98979  0.63350  0.85255  Biso   1.000  C
  C56      1.0000 0.51021  0.36650  0.35255  Biso   1.000  C
  C57      1.0000 0.10532  0.86510  0.36269  Biso   1.000  C
  C58      1.0000 0.39468  0.13490  0.86269  Biso   1.000  C
  C59      1.0000 0.89468  0.36510  0.13731  Biso   1.000  C
  C60      1.0000 0.60532  0.63490  0.63731  Biso   1.000  C
  C61      1.0000 0.89468  0.13490  0.63731  Biso   1.000  C
  C62      1.0000 0.60532  0.86510  0.13731  Biso   1.000  C
  C63      1.0000 0.10532  0.63490  0.86269  Biso   1.000  C
  C64      1.0000 0.39468  0.36510  0.36269  Biso   1.000  C
  H73      1.0000 0.14060  0.95630  0.37160  Biso   1.000  H
  H74      1.0000 0.35940  0.04370  0.87160  Biso   1.000  H
  H75      1.0000 0.85940  0.45630  0.12840  Biso   1.000  H
  H76      1.0000 0.64060  0.54370  0.62840  Biso   1.000  H
  H77      1.0000 0.85940  0.04370  0.62840  Biso   1.000  H
  H78      1.0000 0.64060  0.95630  0.12840  Biso   1.000  H
  H79      1.0000 0.14060  0.54370  0.87160  Biso   1.000  H
  H80      1.0000 0.35940  0.45630  0.37160  Biso   1.000  H
  C65      1.0000 0.17026  0.73100  0.35993  Biso   1.000  C
  C66      1.0000 0.32974  0.26900  0.85993  Biso   1.000  C
  C67      1.0000 0.82974  0.23100  0.14007  Biso   1.000  C
  C68      1.0000 0.67026  0.76900  0.64007  Biso   1.000  C
  C69      1.0000 0.82974  0.26900  0.64007  Biso   1.000  C
  C70      1.0000 0.67026  0.73100  0.14007  Biso   1.000  C
  C71      1.0000 0.17026  0.76900  0.85993  Biso   1.000  C
  C72      1.0000 0.32974  0.23100  0.35993  Biso   1.000  C
  H81      1.0000 0.24880  0.73030  0.36760  Biso   1.000  H
  H82      1.0000 0.25120  0.26970  0.86760  Biso   1.000  H
  H83      1.0000 0.75120  0.23030  0.13240  Biso   1.000  H
  H84      1.0000 0.74880  0.76970  0.63240  Biso   1.000  H
  H85      1.0000 0.75120  0.26970  0.63240  Biso   1.000  H
  H86      1.0000 0.74880  0.73030  0.13240  Biso   1.000  H
  H87      1.0000 0.24880  0.76970  0.86760  Biso   1.000  H
  H88      1.0000 0.25120  0.23030  0.36760  Biso   1.000  H
  C73      1.0000 0.11983  0.59860  0.34600  Biso   1.000  C
  C74      1.0000 0.38017  0.40140  0.84600  Biso   1.000  C
  C75      1.0000 0.88017  0.09860  0.15400  Biso   1.000  C
  C76      1.0000 0.61983  0.90140  0.65400  Biso   1.000  C
  C77      1.0000 0.88017  0.40140  0.65400  Biso   1.000  C
  C78      1.0000 0.61983  0.59860  0.15400  Biso   1.000  C
  C79      1.0000 0.11983  0.90140  0.84600  Biso   1.000  C
  C80      1.0000 0.38017  0.09860  0.34600  Biso   1.000  C
  H89      1.0000 0.16390  0.50740  0.34380  Biso   1.000  H
  H90      1.0000 0.33610  0.49260  0.84380  Biso   1.000  H
  H91      1.0000 0.83610  0.00740  0.15620  Biso   1.000  H
  H92      1.0000 0.66390  0.99260  0.65620  Biso   1.000  H
  H93      1.0000 0.83610  0.49260  0.65620  Biso   1.000  H
  H94      1.0000 0.66390  0.50740  0.15620  Biso   1.000  H
  H95      1.0000 0.16390  0.99260  0.84380  Biso   1.000  H
  H96      1.0000 0.33610  0.00740  0.34380  Biso   1.000  H
  C81      1.0000 0.00519  0.60000  0.33530  Biso   1.000  C
  C82      1.0000 0.49481  0.40000  0.83530  Biso   1.000  C
  C83      1.0000 0.99481  0.10000  0.16470  Biso   1.000  C
  C84      1.0000 0.50519  0.90000  0.66470  Biso   1.000  C
  C85      1.0000 0.99481  0.40000  0.66470  Biso   1.000  C
  C86      1.0000 0.50519  0.60000  0.16470  Biso   1.000  C
  C87      1.0000 0.00519  0.90000  0.83530  Biso   1.000  C
  C88      1.0000 0.49481  0.10000  0.33530  Biso   1.000  C
  H97      1.0000 0.97100  0.50990  0.32540  Biso   1.000  H
  H98      1.0000 0.52900  0.49010  0.82540  Biso   1.000  H
  H99      1.0000 0.02900  0.00990  0.17460  Biso   1.000  H
  H100     1.0000 0.47100  0.99010  0.67460  Biso   1.000  H
  H101     1.0000 0.02900  0.49010  0.67460  Biso   1.000  H
  H102     1.0000 0.47100  0.50990  0.17460  Biso   1.000  H
  H103     1.0000 0.97100  0.99010  0.82540  Biso   1.000  H
  H104     1.0000 0.52900  0.00990  0.32540  Biso   1.000  H
  C89      1.0000 0.93987  0.73230  0.33899  Biso   1.000  C
  C90      1.0000 0.56013  0.26770  0.83899  Biso   1.000  C
  C91      1.0000 0.06013  0.23230  0.16101  Biso   1.000  C
  C92      1.0000 0.43987  0.76770  0.66101  Biso   1.000  C
  C93      1.0000 0.06013  0.26770  0.66101  Biso   1.000  C
  C94      1.0000 0.43987  0.73230  0.16101  Biso   1.000  C
  C95      1.0000 0.93987  0.76770  0.83899  Biso   1.000  C
  C96      1.0000 0.56013  0.23230  0.33899  Biso   1.000  C
  H105     1.0000 0.86060  0.73150  0.33220  Biso   1.000  H
  H106     1.0000 0.63940  0.26850  0.83220  Biso   1.000  H
  H107     1.0000 0.13940  0.23150  0.16780  Biso   1.000  H
  H108     1.0000 0.36060  0.76850  0.66780  Biso   1.000  H
  H109     1.0000 0.13940  0.26850  0.66780  Biso   1.000  H
  H110     1.0000 0.36060  0.73150  0.16780  Biso   1.000  H
  H111     1.0000 0.86060  0.76850  0.83220  Biso   1.000  H
  H112     1.0000 0.63940  0.23150  0.33220  Biso   1.000  H
  C97      1.0000 0.91240  0.08850  0.31623  Biso   1.000  C
  C98      1.0000 0.58760  0.91150  0.81623  Biso   1.000  C
  C99      1.0000 0.08760  0.58850  0.18377  Biso   1.000  C
  C100     1.0000 0.41240  0.41150  0.68377  Biso   1.000  C
  C101     1.0000 0.08760  0.91150  0.68377  Biso   1.000  C
  C102     1.0000 0.41240  0.08850  0.18377  Biso   1.000  C
  C103     1.0000 0.91240  0.41150  0.81623  Biso   1.000  C
  C104     1.0000 0.58760  0.58850  0.31623  Biso   1.000  C
  C105     1.0000 0.00362  0.17960  0.30397  Biso   1.000  C
  C106     1.0000 0.49638  0.82040  0.80397  Biso   1.000  C
  C107     1.0000 0.99638  0.67960  0.19603  Biso   1.000  C
  C108     1.0000 0.50362  0.32040  0.69603  Biso   1.000  C
  C109     1.0000 0.99638  0.82040  0.69603  Biso   1.000  C
  C110     1.0000 0.50362  0.17960  0.19603  Biso   1.000  C
  C111     1.0000 0.00362  0.32040  0.80397  Biso   1.000  C
  C112     1.0000 0.49638  0.67960  0.30397  Biso   1.000  C
  H113     1.0000 0.07080  0.18940  0.31900  Biso   1.000  H
  H114     1.0000 0.42920  0.81060  0.81900  Biso   1.000  H
  H115     1.0000 0.92920  0.68940  0.18100  Biso   1.000  H
  H116     1.0000 0.57080  0.31060  0.68100  Biso   1.000  H
  H117     1.0000 0.92920  0.81060  0.68100  Biso   1.000  H
  H118     1.0000 0.57080  0.18940  0.18100  Biso   1.000  H
  H119     1.0000 0.07080  0.31060  0.81900  Biso   1.000  H
  H120     1.0000 0.42920  0.68940  0.31900  Biso   1.000  H
  C113     1.0000 0.99730  0.25620  0.26991  Biso   1.000  C
  C114     1.0000 0.50270  0.74380  0.76991  Biso   1.000  C
  C115     1.0000 0.00270  0.75620  0.23009  Biso   1.000  C
  C116     1.0000 0.49730  0.24380  0.73009  Biso   1.000  C
  C117     1.0000 0.00270  0.74380  0.73009  Biso   1.000  C
  C118     1.0000 0.49730  0.25620  0.23009  Biso   1.000  C
  C119     1.0000 0.99730  0.24380  0.76991  Biso   1.000  C
  C120     1.0000 0.50270  0.75620  0.26991  Biso   1.000  C
  H121     1.0000 0.05910  0.32000  0.26210  Biso   1.000  H
  H122     1.0000 0.44090  0.68000  0.76210  Biso   1.000  H
  H123     1.0000 0.94090  0.82000  0.23790  Biso   1.000  H
  H124     1.0000 0.55910  0.18000  0.73790  Biso   1.000  H
  H125     1.0000 0.94090  0.68000  0.73790  Biso   1.000  H
  H126     1.0000 0.55910  0.32000  0.23790  Biso   1.000  H
  H127     1.0000 0.05910  0.18000  0.76210  Biso   1.000  H
  H128     1.0000 0.44090  0.82000  0.26210  Biso   1.000  H
  C121     1.0000 0.90020  0.23930  0.24734  Biso   1.000  C
  C122     1.0000 0.59980  0.76070  0.74734  Biso   1.000  C
  C123     1.0000 0.09980  0.73930  0.25266  Biso   1.000  C
  C124     1.0000 0.40020  0.26070  0.75266  Biso   1.000  C
  C125     1.0000 0.09980  0.76070  0.75266  Biso   1.000  C
  C126     1.0000 0.40020  0.23930  0.25266  Biso   1.000  C
  C127     1.0000 0.90020  0.26070  0.74734  Biso   1.000  C
  C128     1.0000 0.59980  0.73930  0.24734  Biso   1.000  C
  H129     1.0000 0.89510  0.29270  0.22420  Biso   1.000  H
  H130     1.0000 0.60490  0.70730  0.72420  Biso   1.000  H
  H131     1.0000 0.10490  0.79270  0.27580  Biso   1.000  H
  H132     1.0000 0.39510  0.20730  0.77580  Biso   1.000  H
  H133     1.0000 0.10490  0.70730  0.77580  Biso   1.000  H
  H134     1.0000 0.39510  0.29270  0.27580  Biso   1.000  H
  H135     1.0000 0.89510  0.20730  0.72420  Biso   1.000  H
  H136     1.0000 0.60490  0.79270  0.22420  Biso   1.000  H
  C129     1.0000 0.81170  0.14500  0.25859  Biso   1.000  C
  C130     1.0000 0.68830  0.85500  0.75859  Biso   1.000  C
  C131     1.0000 0.18830  0.64500  0.24141  Biso   1.000  C
  C132     1.0000 0.31170  0.35500  0.74141  Biso   1.000  C
  C133     1.0000 0.18830  0.85500  0.74141  Biso   1.000  C
  C134     1.0000 0.31170  0.14500  0.24141  Biso   1.000  C
  C135     1.0000 0.81170  0.35500  0.75859  Biso   1.000  C
  C136     1.0000 0.68830  0.64500  0.25859  Biso   1.000  C
  H137     1.0000 0.74650  0.13110  0.24290  Biso   1.000  H
  H138     1.0000 0.75350  0.86890  0.74290  Biso   1.000  H
  H139     1.0000 0.25350  0.63110  0.25710  Biso   1.000  H
  H140     1.0000 0.24650  0.36890  0.75710  Biso   1.000  H
  H141     1.0000 0.25350  0.86890  0.75710  Biso   1.000  H
  H142     1.0000 0.24650  0.13110  0.25710  Biso   1.000  H
  H143     1.0000 0.74650  0.36890  0.74290  Biso   1.000  H
  H144     1.0000 0.75350  0.63110  0.24290  Biso   1.000  H
  C137     1.0000 0.81721  0.06990  0.29294  Biso   1.000  C
  C138     1.0000 0.68279  0.93010  0.79294  Biso   1.000  C
  C139     1.0000 0.18279  0.56990  0.20706  Biso   1.000  C
  C140     1.0000 0.31721  0.43010  0.70706  Biso   1.000  C
  C141     1.0000 0.18279  0.93010  0.70706  Biso   1.000  C
  C142     1.0000 0.31721  0.06990  0.20706  Biso   1.000  C
  C143     1.0000 0.81721  0.43010  0.79294  Biso   1.000  C
  C144     1.0000 0.68279  0.56990  0.29294  Biso   1.000  C
  H145     1.0000 0.75550  0.00540  0.30050  Biso   1.000  H
  H146     1.0000 0.74450  0.99460  0.80050  Biso   1.000  H
  H147     1.0000 0.24450  0.50540  0.19950  Biso   1.000  H
  H148     1.0000 0.25550  0.49460  0.69950  Biso   1.000  H
  H149     1.0000 0.24450  0.99460  0.69950  Biso   1.000  H
  H150     1.0000 0.25550  0.00540  0.19950  Biso   1.000  H
  H151     1.0000 0.75550  0.49460  0.80050  Biso   1.000  H
  H152     1.0000 0.74450  0.50540  0.30050  Biso   1.000  H
  C145     1.0000 0.99799  0.15330  0.45035  Biso   1.000  C
  C146     1.0000 0.50201  0.84670  0.95035  Biso   1.000  C
  C147     1.0000 0.00201  0.65330  0.04965  Biso   1.000  C
  C148     1.0000 0.49799  0.34670  0.54965  Biso   1.000  C
  C149     1.0000 0.00201  0.84670  0.54965  Biso   1.000  C
  C150     1.0000 0.49799  0.15330  0.04965  Biso   1.000  C
  C151     1.0000 0.99799  0.34670  0.95035  Biso   1.000  C
  C152     1.0000 0.50201  0.65330  0.45035  Biso   1.000  C
  H153     1.0000 0.99530  0.10280  0.47510  Biso   1.000  H
  H154     1.0000 0.50470  0.89720  0.97510  Biso   1.000  H
  H155     1.0000 0.00470  0.60280  0.02490  Biso   1.000  H
  H156     1.0000 0.49530  0.39720  0.52490  Biso   1.000  H
  H157     1.0000 0.00470  0.89720  0.52490  Biso   1.000  H
  H158     1.0000 0.49530  0.10280  0.02490  Biso   1.000  H
  H159     1.0000 0.99530  0.39720  0.97510  Biso   1.000  H
  H160     1.0000 0.50470  0.60280  0.47510  Biso   1.000  H
  H161     1.0000 0.07950  0.17800  0.44460  Biso   1.000  H
  H162     1.0000 0.42050  0.82200  0.94460  Biso   1.000  H
  H163     1.0000 0.92050  0.67800  0.05540  Biso   1.000  H
  H164     1.0000 0.57950  0.32200  0.55540  Biso   1.000  H
  H165     1.0000 0.92050  0.82200  0.55540  Biso   1.000  H
  H166     1.0000 0.57950  0.17800  0.05540  Biso   1.000  H
  H167     1.0000 0.07950  0.32200  0.94460  Biso   1.000  H
  H168     1.0000 0.42050  0.67800  0.44460  Biso   1.000  H
