data_image0
_cell_length_a       10.944
_cell_length_b       13.623
_cell_length_c       13.884
_cell_angle_alpha    64.73
_cell_angle_beta     73.057
_cell_angle_gamma    69.711

_symmetry_space_group_name_H-M    "P 1"
_symmetry_int_tables_number       1

loop_
  _symmetry_equiv_pos_as_xyz
  'x, y, z'

loop_
  _atom_site_label
  _atom_site_occupancy
  _atom_site_fract_x
  _atom_site_fract_y
  _atom_site_fract_z
  _atom_site_thermal_displace_type
  _atom_site_B_iso_or_equiv
  _atom_site_type_symbol
  Cu1      1.0000 0.56480  0.05710  0.25330  Biso   1.000  Cu
  Cu2      1.0000 0.43520  0.94290  0.74670  Biso   1.000  Cu
  Cu3      1.0000 0.14880  0.99600  0.00980  Biso   1.000  Cu
  Cu4      1.0000 0.85120  0.00400  0.99020  Biso   1.000  Cu
  N1       1.0000 0.07200  0.33200  0.91900  Biso   1.000  N
  N2       1.0000 0.92800  0.66800  0.08100  Biso   1.000  N
  N3       1.0000 0.06500  0.32400  0.82900  Biso   1.000  N
  N4       1.0000 0.93500  0.67600  0.17100  Biso   1.000  N
  N5       1.0000 0.10500  0.15500  0.94500  Biso   1.000  N
  N6       1.0000 0.89500  0.84500  0.05500  Biso   1.000  N
  N7       1.0000 0.33900  0.27400  0.68100  Biso   1.000  N
  N8       1.0000 0.66100  0.72600  0.31900  Biso   1.000  N
  N9       1.0000 0.37100  0.24300  0.77900  Biso   1.000  N
  N10      1.0000 0.62900  0.75700  0.22100  Biso   1.000  N
  N11      1.0000 0.50900  0.20800  0.24000  Biso   1.000  N
  N12      1.0000 0.49100  0.79200  0.76000  Biso   1.000  N
  N13      1.0000 0.49600  0.37500  0.22000  Biso   1.000  N
  N14      1.0000 0.50400  0.62500  0.78000  Biso   1.000  N
  N15      1.0000 0.37200  0.37900  0.21400  Biso   1.000  N
  N16      1.0000 0.62800  0.62100  0.78600  Biso   1.000  N
  N17      1.0000 0.26500  0.67100  0.19400  Biso   1.000  N
  N18      1.0000 0.73500  0.32900  0.80600  Biso   1.000  N
  N19      1.0000 0.26800  0.65500  0.10200  Biso   1.000  N
  N20      1.0000 0.73200  0.34500  0.89800  Biso   1.000  N
  N21      1.0000 0.20800  0.83900  0.07800  Biso   1.000  N
  N22      1.0000 0.79200  0.16100  0.92200  Biso   1.000  N
  C1       1.0000 0.09000  0.22800  0.98600  Biso   1.000  C
  C2       1.0000 0.91000  0.77200  0.01400  Biso   1.000  C
  H1       1.0000 0.09220  0.20810  0.05870  Biso   1.000  H
  H2       1.0000 0.90780  0.79190  0.94130  Biso   1.000  H
  C3       1.0000 0.08400  0.21600  0.84500  Biso   1.000  C
  C4       1.0000 0.91600  0.78400  0.15500  Biso   1.000  C
  H3       1.0000 0.08280  0.18860  0.79450  Biso   1.000  H
  H4       1.0000 0.91720  0.81140  0.20550  Biso   1.000  H
  C5       1.0000 0.05600  0.42200  0.72700  Biso   1.000  C
  C6       1.0000 0.94400  0.57800  0.27300  Biso   1.000  C
  H5       1.0000 0.98600  0.48430  0.73950  Biso   1.000  H
  H6       1.0000 0.01400  0.51570  0.26050  Biso   1.000  H
  H7       1.0000 0.03310  0.40360  0.67480  Biso   1.000  H
  H8       1.0000 0.96690  0.59640  0.32520  Biso   1.000  H
  C7       1.0000 0.18400  0.45600  0.68000  Biso   1.000  C
  C8       1.0000 0.81600  0.54400  0.32000  Biso   1.000  C
  H9       1.0000 0.16420  0.53470  0.63290  Biso   1.000  H
  H10      1.0000 0.83580  0.46530  0.36710  Biso   1.000  H
  H11      1.0000 0.22000  0.45040  0.73860  Biso   1.000  H
  H12      1.0000 0.78000  0.54960  0.26140  Biso   1.000  H
  C9       1.0000 0.28800  0.39000  0.61700  Biso   1.000  C
  C10      1.0000 0.71200  0.61000  0.38300  Biso   1.000  C
  H13      1.0000 0.25210  0.39370  0.55910  Biso   1.000  H
  H14      1.0000 0.74790  0.60630  0.44090  Biso   1.000  H
  H15      1.0000 0.36130  0.42560  0.58340  Biso   1.000  H
  H16      1.0000 0.63870  0.57440  0.41660  Biso   1.000  H
  C11      1.0000 0.35000  0.18400  0.66100  Biso   1.000  C
  C12      1.0000 0.65000  0.81600  0.33900  Biso   1.000  C
  H17      1.0000 0.33030  0.18720  0.59860  Biso   1.000  H
  H18      1.0000 0.66970  0.81280  0.40140  Biso   1.000  H
  C13      1.0000 0.40500  0.13300  0.81200  Biso   1.000  C
  C14      1.0000 0.59500  0.86700  0.18800  Biso   1.000  C
  H19      1.0000 0.43530  0.08630  0.87670  Biso   1.000  H
  H20      1.0000 0.56470  0.91370  0.12330  Biso   1.000  H
  C15      1.0000 0.37600  0.27500  0.23400  Biso   1.000  C
  C16      1.0000 0.62400  0.72500  0.76600  Biso   1.000  C
  H21      1.0000 0.30340  0.24890  0.24340  Biso   1.000  H
  H22      1.0000 0.69660  0.75110  0.75660  Biso   1.000  H
  C17      1.0000 0.57700  0.27200  0.24600  Biso   1.000  C
  C18      1.0000 0.42300  0.72800  0.75400  Biso   1.000  C
  H23      1.0000 0.66090  0.24880  0.26290  Biso   1.000  H
  H24      1.0000 0.33910  0.75120  0.73710  Biso   1.000  H
  C19      1.0000 0.51900  0.47900  0.19900  Biso   1.000  C
  C20      1.0000 0.48100  0.52100  0.80100  Biso   1.000  C
  H25      1.0000 0.48960  0.53320  0.13210  Biso   1.000  H
  H26      1.0000 0.51040  0.46680  0.86790  Biso   1.000  H
  H27      1.0000 0.61270  0.46930  0.19080  Biso   1.000  H
  H28      1.0000 0.38730  0.53070  0.80920  Biso   1.000  H
  C21      1.0000 0.44300  0.52700  0.29400  Biso   1.000  C
  C22      1.0000 0.55700  0.47300  0.70600  Biso   1.000  C
  H29      1.0000 0.45550  0.46710  0.36360  Biso   1.000  H
  H30      1.0000 0.54450  0.53290  0.63640  Biso   1.000  H
  H31      1.0000 0.48110  0.58480  0.28750  Biso   1.000  H
  H32      1.0000 0.51890  0.41520  0.71250  Biso   1.000  H
  C23      1.0000 0.30200  0.57500  0.29300  Biso   1.000  C
  C24      1.0000 0.69800  0.42500  0.70700  Biso   1.000  C
  H33      1.0000 0.26180  0.59810  0.35420  Biso   1.000  H
  H34      1.0000 0.73820  0.40190  0.64580  Biso   1.000  H
  H35      1.0000 0.26390  0.51590  0.30210  Biso   1.000  H
  H36      1.0000 0.73610  0.48410  0.69790  Biso   1.000  H
  C25      1.0000 0.22900  0.77900  0.18100  Biso   1.000  C
  C26      1.0000 0.77100  0.22100  0.81900  Biso   1.000  C
  H37      1.0000 0.22000  0.80740  0.23370  Biso   1.000  H
  H38      1.0000 0.78000  0.19260  0.76630  Biso   1.000  H
  C27      1.0000 0.22500  0.76200  0.03100  Biso   1.000  C
  C28      1.0000 0.77500  0.23800  0.96900  Biso   1.000  C
  H39      1.0000 0.21070  0.78040  0.96250  Biso   1.000  H
  H40      1.0000 0.78930  0.21960  0.03750  Biso   1.000  H
  N23      1.0000 0.39100  0.09100  0.74000  Biso   1.000  N
  N24      1.0000 0.60900  0.90900  0.26000  Biso   1.000  N
  W1       1.0000 0.23859  0.02696  0.26095  Biso   1.000  W
  W2       1.0000 0.76141  0.97304  0.73905  Biso   1.000  W
  W3       1.0000 0.27697  0.77023  0.48148  Biso   1.000  W
  W4       1.0000 0.72303  0.22977  0.51852  Biso   1.000  W
  W5       1.0000 0.94624  0.76237  0.48945  Biso   1.000  W
  W6       1.0000 0.05376  0.23763  0.51055  Biso   1.000  W
  W7       1.0000 0.03902  0.74347  0.72203  Biso   1.000  W
  W8       1.0000 0.96098  0.25653  0.27797  Biso   1.000  W
  W9       1.0000 0.08819  0.98295  0.73333  Biso   1.000  W
  W10      1.0000 0.91181  0.01705  0.26667  Biso   1.000  W
  W11      1.0000 0.32203  0.00534  0.49603  Biso   1.000  W
  W12      1.0000 0.67797  0.99466  0.50397  Biso   1.000  W
  P1       1.0000 0.00000  0.00000  0.50000  Biso   1.000  P
  O1       1.0000 0.34500  0.04300  0.14400  Biso   1.000  O
  O2       1.0000 0.65500  0.95700  0.85600  Biso   1.000  O
  O3       1.0000 0.13200  0.17400  0.23800  Biso   1.000  O
  O4       1.0000 0.86800  0.82600  0.76200  Biso   1.000  O
  O5       1.0000 0.09700  0.00500  0.22700  Biso   1.000  O
  O6       1.0000 0.90300  0.99500  0.77300  Biso   1.000  O
  O7       1.0000 0.32300  0.04700  0.34400  Biso   1.000  O
  O8       1.0000 0.67700  0.95300  0.65600  Biso   1.000  O
  O9       1.0000 0.29800  0.86800  0.33300  Biso   1.000  O
  O10      1.0000 0.70200  0.13200  0.66700  Biso   1.000  O
  O11      1.0000 0.39700  0.65900  0.47600  Biso   1.000  O
  O12      1.0000 0.60300  0.34100  0.52400  Biso   1.000  O
  O13      1.0000 0.13100  0.73800  0.46180  Biso   1.000  O
  O14      1.0000 0.86900  0.26200  0.53820  Biso   1.000  O
  O15      1.0000 0.20200  0.71900  0.63200  Biso   1.000  O
  O16      1.0000 0.79800  0.28100  0.36800  Biso   1.000  O
  O17      1.0000 0.35000  0.85300  0.51100  Biso   1.000  O
  O18      1.0000 0.65000  0.14700  0.48900  Biso   1.000  O
  O19      1.0000 0.92700  0.64900  0.48500  Biso   1.000  O
  O20      1.0000 0.07300  0.35100  0.51500  Biso   1.000  O
  O21      1.0000 0.77300  0.84100  0.52000  Biso   1.000  O
  O22      1.0000 0.22700  0.15900  0.48000  Biso   1.000  O
  O23      1.0000 0.96300  0.71200  0.63500  Biso   1.000  O
  O24      1.0000 0.03700  0.28800  0.36500  Biso   1.000  O
  O25      1.0000 0.04200  0.87900  0.53500  Biso   1.000  O
  O26      1.0000 0.95800  0.12100  0.46500  Biso   1.000  O
  O27      1.0000 0.93000  0.95100  0.46000  Biso   1.000  O
  O28      1.0000 0.07000  0.04900  0.54000  Biso   1.000  O
  O29      1.0000 0.05700  0.62400  0.82900  Biso   1.000  O
  O30      1.0000 0.94300  0.37600  0.17100  Biso   1.000  O
  O31      1.0000 0.09900  0.83000  0.76400  Biso   1.000  O
  O32      1.0000 0.90100  0.17000  0.23600  Biso   1.000  O
  O33      1.0000 0.98200  0.93900  0.62100  Biso   1.000  O
  O34      1.0000 0.01800  0.06100  0.37900  Biso   1.000  O
  O35      1.0000 0.12300  0.97200  0.84880  Biso   1.000  O
  O36      1.0000 0.87700  0.02800  0.15120  Biso   1.000  O
  O37      1.0000 0.04500  0.13900  0.65800  Biso   1.000  O
  O38      1.0000 0.95500  0.86100  0.34200  Biso   1.000  O
  O39      1.0000 0.25200  0.96500  0.64700  Biso   1.000  O
  O40      1.0000 0.74800  0.03500  0.35300  Biso   1.000  O
  O41      1.0000 0.50000  0.00000  0.50000  Biso   1.000  O
  O42      1.0000 0.85000  0.04300  0.55100  Biso   1.000  O
  O43      1.0000 0.15000  0.95700  0.44900  Biso   1.000  O
  Na1      1.0000 0.00000  0.50000  0.00000  Biso   1.000  Na
  O44      1.0000 0.21800  0.46800  0.02700  Biso   1.000  O
  O45      1.0000 0.78200  0.53200  0.97300  Biso   1.000  O
  H41      1.0000 0.28030  0.41610  0.01080  Biso   1.000  H
  H42      1.0000 0.71970  0.58390  0.98920  Biso   1.000  H
  H43      1.0000 0.23220  0.50790  0.05290  Biso   1.000  H
  H44      1.0000 0.76780  0.49210  0.94710  Biso   1.000  H
