data_image0
_cell_length_a       10.882
_cell_length_b       11.587
_cell_length_c       13.273
_cell_angle_alpha    113.3
_cell_angle_beta     96.32
_cell_angle_gamma    95.46

_symmetry_space_group_name_H-M    "P 1"
_symmetry_int_tables_number       1

loop_
  _symmetry_equiv_pos_as_xyz
  'x, y, z'

loop_
  _atom_site_label
  _atom_site_occupancy
  _atom_site_fract_x
  _atom_site_fract_y
  _atom_site_fract_z
  _atom_site_thermal_displace_type
  _atom_site_B_iso_or_equiv
  _atom_site_type_symbol
  W1       1.0000 0.22983  0.76784  0.39947  Biso   1.000  W
  W2       1.0000 0.77017  0.23216  0.60053  Biso   1.000  W
  W3       1.0000 0.78933  0.92003  0.41455  Biso   1.000  W
  W4       1.0000 0.21067  0.07997  0.58545  Biso   1.000  W
  W5       1.0000 0.25552  0.01494  0.30891  Biso   1.000  W
  W6       1.0000 0.74448  0.98506  0.69109  Biso   1.000  W
  W7       1.0000 0.54506  0.93546  0.22535  Biso   1.000  W
  W8       1.0000 0.45494  0.06454  0.77465  Biso   1.000  W
  W9       1.0000 0.47317  0.75198  0.59084  Biso   1.000  W
  W10      1.0000 0.52683  0.24802  0.40916  Biso   1.000  W
  W11      1.0000 0.52002  0.68838  0.31748  Biso   1.000  W
  W12      1.0000 0.47998  0.31162  0.68252  Biso   1.000  W
  Si1      1.0000 0.50000  0.00000  0.50000  Biso   1.000  Si
  O1       1.0000 0.43800  0.84600  0.46300  Biso   1.000  O
  O2       1.0000 0.56200  0.15400  0.53700  Biso   1.000  O
  O3       1.0000 0.36200  0.98100  0.46300  Biso   1.000  O
  O4       1.0000 0.63800  0.01900  0.53700  Biso   1.000  O
  O5       1.0000 0.57600  0.92100  0.39800  Biso   1.000  O
  O6       1.0000 0.42400  0.07900  0.60200  Biso   1.000  O
  O7       1.0000 0.45900  0.03500  0.39500  Biso   1.000  O
  O8       1.0000 0.54100  0.96500  0.60500  Biso   1.000  O
  O9       1.0000 0.31200  0.73400  0.51760  Biso   1.000  O
  O10      1.0000 0.68800  0.26600  0.48240  Biso   1.000  O
  O11      1.0000 0.71100  0.93900  0.28900  Biso   1.000  O
  O12      1.0000 0.28900  0.06100  0.71100  Biso   1.000  O
  O13      1.0000 0.92500  0.88300  0.37100  Biso   1.000  O
  O14      1.0000 0.07500  0.11700  0.62900  Biso   1.000  O
  O15      1.0000 0.10630  0.65760  0.35060  Biso   1.000  O
  O16      1.0000 0.89370  0.34240  0.64940  Biso   1.000  O
  O17      1.0000 0.13700  0.01700  0.21610  Biso   1.000  O
  O18      1.0000 0.86300  0.98300  0.78390  Biso   1.000  O
  O19      1.0000 0.20820  0.85560  0.30530  Biso   1.000  O
  O20      1.0000 0.79180  0.14440  0.69470  Biso   1.000  O
  O21      1.0000 0.56970  0.11280  0.28700  Biso   1.000  O
  O22      1.0000 0.43030  0.88720  0.71300  Biso   1.000  O
  O23      1.0000 0.56340  0.90100  0.09130  Biso   1.000  O
  O24      1.0000 0.43660  0.09900  0.90870  Biso   1.000  O
  O25      1.0000 0.69500  0.75700  0.36000  Biso   1.000  O
  O26      1.0000 0.30500  0.24300  0.64000  Biso   1.000  O
  O27      1.0000 0.51500  0.76600  0.21500  Biso   1.000  O
  O28      1.0000 0.48500  0.23400  0.78500  Biso   1.000  O
  O29      1.0000 0.37300  0.93980  0.21700  Biso   1.000  O
  O30      1.0000 0.62700  0.06020  0.78300  Biso   1.000  O
  O31      1.0000 0.52800  0.66600  0.45000  Biso   1.000  O
  O32      1.0000 0.47200  0.33400  0.55000  Biso   1.000  O
  O33      1.0000 0.52630  0.54080  0.22740  Biso   1.000  O
  O34      1.0000 0.47370  0.45920  0.77260  Biso   1.000  O
  O35      1.0000 0.46040  0.63480  0.63440  Biso   1.000  O
  O36      1.0000 0.53960  0.36520  0.36560  Biso   1.000  O
  O37      1.0000 0.81100  0.91680  0.55950  Biso   1.000  O
  O38      1.0000 0.18900  0.08320  0.44050  Biso   1.000  O
  O39      1.0000 0.17600  0.90280  0.51460  Biso   1.000  O
  O40      1.0000 0.82400  0.09720  0.48540  Biso   1.000  O
  O41      1.0000 0.36270  0.17500  0.35580  Biso   1.000  O
  O42      1.0000 0.63730  0.82500  0.64420  Biso   1.000  O
  O43      1.0000 0.33800  0.67700  0.31000  Biso   1.000  O
  O44      1.0000 0.66200  0.32300  0.69000  Biso   1.000  O
  Cu1      1.0000 0.51540  0.72560  0.86960  Biso   1.000  Cu
  Cu2      1.0000 0.48460  0.27440  0.13040  Biso   1.000  Cu
  N1       1.0000 0.34470  0.73090  0.87120  Biso   1.000  N
  N2       1.0000 0.65530  0.26910  0.12880  Biso   1.000  N
  C1       1.0000 0.29900  0.83500  0.93600  Biso   1.000  C
  C2       1.0000 0.70100  0.16500  0.06400  Biso   1.000  C
  H1       1.0000 0.35520  0.90750  0.98070  Biso   1.000  H
  H2       1.0000 0.64480  0.09250  0.01930  Biso   1.000  H
  C3       1.0000 0.17300  0.83800  0.93800  Biso   1.000  C
  C4       1.0000 0.82700  0.16200  0.06200  Biso   1.000  C
  H3       1.0000 0.14620  0.91100  0.98630  Biso   1.000  H
  H4       1.0000 0.85380  0.08900  0.01370  Biso   1.000  H
  C5       1.0000 0.08620  0.73490  0.87030  Biso   1.000  C
  C6       1.0000 0.91380  0.26510  0.12970  Biso   1.000  C
  C7       1.0000 0.13180  0.62850  0.80370  Biso   1.000  C
  C8       1.0000 0.86820  0.37150  0.19630  Biso   1.000  C
  H5       1.0000 0.07620  0.55630  0.75640  Biso   1.000  H
  H6       1.0000 0.92380  0.44370  0.24360  Biso   1.000  H
  C9       1.0000 0.25810  0.62800  0.80600  Biso   1.000  C
  C10      1.0000 0.74190  0.37200  0.19400  Biso   1.000  C
  H7       1.0000 0.28560  0.55350  0.76150  Biso   1.000  H
  H8       1.0000 0.71440  0.44650  0.23850  Biso   1.000  H
  C11      1.0000 0.95300  0.73600  0.87150  Biso   1.000  C
  C12      1.0000 0.04700  0.26400  0.12850  Biso   1.000  C
  C13      1.0000 0.86060  0.65200  0.78100  Biso   1.000  C
  C14      1.0000 0.13940  0.34800  0.21900  Biso   1.000  C
  H9       1.0000 0.88630  0.59540  0.71760  Biso   1.000  H
  H10      1.0000 0.11370  0.40460  0.28240  Biso   1.000  H
  C15      1.0000 0.90450  0.82000  0.96010  Biso   1.000  C
  C16      1.0000 0.09550  0.18000  0.03990  Biso   1.000  C
  H11      1.0000 0.95860  0.88190  0.02030  Biso   1.000  H
  H12      1.0000 0.04140  0.11810  0.97970  Biso   1.000  H
  C17      1.0000 0.77520  0.81100  0.96000  Biso   1.000  C
  C18      1.0000 0.22480  0.18900  0.04000  Biso   1.000  C
  H13      1.0000 0.74660  0.86090  0.02420  Biso   1.000  H
  H14      1.0000 0.25340  0.13910  0.97580  Biso   1.000  H
  C19      1.0000 0.73500  0.65200  0.78400  Biso   1.000  C
  C20      1.0000 0.26500  0.34800  0.21600  Biso   1.000  C
  H15      1.0000 0.67800  0.59240  0.72430  Biso   1.000  H
  H16      1.0000 0.32200  0.40760  0.27570  Biso   1.000  H
  N3       1.0000 0.69230  0.73730  0.87260  Biso   1.000  N
  N4       1.0000 0.30770  0.26270  0.12740  Biso   1.000  N
  Cu3      1.0000 0.50000  0.50000  0.00000  Biso   1.000  Cu
  N5       1.0000 0.67640  0.50000  0.01000  Biso   1.000  N
  N6       1.0000 0.32360  0.50000  0.99000  Biso   1.000  N
  C21      1.0000 0.72000  0.39800  0.93800  Biso   1.000  C
  C22      1.0000 0.28000  0.60200  0.06200  Biso   1.000  C
  H17      1.0000 0.66340  0.32730  0.88910  Biso   1.000  H
  H18      1.0000 0.33660  0.67270  0.11090  Biso   1.000  H
  C23      1.0000 0.84800  0.39800  0.93800  Biso   1.000  C
  C24      1.0000 0.15200  0.60200  0.06200  Biso   1.000  C
  H19      1.0000 0.87550  0.32570  0.88940  Biso   1.000  H
  H20      1.0000 0.12450  0.67430  0.11060  Biso   1.000  H
  C25      1.0000 0.93040  0.49700  0.00250  Biso   1.000  C
  C26      1.0000 0.06960  0.50300  0.99750  Biso   1.000  C
  C27      1.0000 0.88700  0.60700  0.07900  Biso   1.000  C
  C28      1.0000 0.11300  0.39300  0.92100  Biso   1.000  C
  H21      1.0000 0.94070  0.67990  0.12820  Biso   1.000  H
  H22      1.0000 0.05930  0.32010  0.87180  Biso   1.000  H
  C29      1.0000 0.76000  0.59600  0.07300  Biso   1.000  C
  C30      1.0000 0.24000  0.40400  0.92700  Biso   1.000  C
  H23      1.0000 0.73020  0.66610  0.12120  Biso   1.000  H
  H24      1.0000 0.26980  0.33390  0.87880  Biso   1.000  H
  N7       1.0000 0.01700  0.57200  0.53300  Biso   1.000  N
  N8       1.0000 0.98300  0.42800  0.46700  Biso   1.000  N
  C31      1.0000 0.00400  0.71200  0.57700  Biso   1.000  C
  C32      1.0000 0.99600  0.28800  0.42300  Biso   1.000  C
  C33      1.0000 0.86700  0.72100  0.54900  Biso   1.000  C
  C34      1.0000 0.13300  0.27900  0.45100  Biso   1.000  C
  N9       1.0000 0.79600  0.58700  0.48800  Biso   1.000  N
  N10      1.0000 0.20400  0.41300  0.51200  Biso   1.000  N
  C35      1.0000 0.88900  0.49500  0.47800  Biso   1.000  C
  C36      1.0000 0.11100  0.50500  0.52200  Biso   1.000  C
