data_image0
_cell_length_a       13.0351
_cell_length_b       7.7296
_cell_length_c       6.1895
_cell_angle_alpha    90
_cell_angle_beta     90
_cell_angle_gamma    90

_symmetry_space_group_name_H-M    "P 1"
_symmetry_int_tables_number       1

loop_
  _symmetry_equiv_pos_as_xyz
  'x, y, z'

loop_
  _atom_site_label
  _atom_site_occupancy
  _atom_site_fract_x
  _atom_site_fract_y
  _atom_site_fract_z
  _atom_site_thermal_displace_type
  _atom_site_B_iso_or_equiv
  _atom_site_type_symbol
  Cu1      1.0000 0.35936  0.25000  0.57370  Biso   1.000  Cu
  Cu2      1.0000 0.85936  0.25000  0.92630  Biso   1.000  Cu
  Cu3      1.0000 0.14064  0.75000  0.07370  Biso   1.000  Cu
  Cu4      1.0000 0.64064  0.75000  0.42630  Biso   1.000  Cu
  N1       1.0000 0.33870  0.03255  0.42270  Biso   1.000  N
  N2       1.0000 0.83870  0.03255  0.07730  Biso   1.000  N
  N3       1.0000 0.33870  0.46745  0.42270  Biso   1.000  N
  N4       1.0000 0.16130  0.53255  0.92270  Biso   1.000  N
  N5       1.0000 0.66130  0.96745  0.57730  Biso   1.000  N
  N6       1.0000 0.16130  0.96745  0.92270  Biso   1.000  N
  N7       1.0000 0.66130  0.53255  0.57730  Biso   1.000  N
  N8       1.0000 0.83870  0.46745  0.07730  Biso   1.000  N
  C1       1.0000 0.31659  0.89666  0.36200  Biso   1.000  C
  C2       1.0000 0.81659  0.89666  0.13800  Biso   1.000  C
  C3       1.0000 0.31659  0.60334  0.36200  Biso   1.000  C
  C4       1.0000 0.18341  0.39666  0.86200  Biso   1.000  C
  C5       1.0000 0.68341  0.10334  0.63800  Biso   1.000  C
  C6       1.0000 0.18341  0.10334  0.86200  Biso   1.000  C
  C7       1.0000 0.68341  0.39666  0.63800  Biso   1.000  C
  C8       1.0000 0.81659  0.60334  0.13800  Biso   1.000  C
  N9       1.0000 0.28630  0.75000  0.27570  Biso   1.000  N
  N10      1.0000 0.78630  0.75000  0.22430  Biso   1.000  N
  N11      1.0000 0.21370  0.25000  0.77570  Biso   1.000  N
  N12      1.0000 0.71370  0.25000  0.72430  Biso   1.000  N
  N13      1.0000 0.45252  0.25000  0.82370  Biso   1.000  N
  N14      1.0000 0.95252  0.25000  0.67630  Biso   1.000  N
  N15      1.0000 0.04748  0.75000  0.32370  Biso   1.000  N
  N16      1.0000 0.54748  0.75000  0.17630  Biso   1.000  N
  C9       1.0000 0.50012  0.25000  0.97750  Biso   1.000  C
  C10      1.0000 0.00012  0.25000  0.52250  Biso   1.000  C
  C11      1.0000 0.99988  0.75000  0.47750  Biso   1.000  C
  C12      1.0000 0.49988  0.75000  0.02250  Biso   1.000  C
  C13      1.0000 0.56244  0.25000  0.17320  Biso   1.000  C
  C14      1.0000 0.06244  0.25000  0.32680  Biso   1.000  C
  C15      1.0000 0.93756  0.75000  0.67320  Biso   1.000  C
  C16      1.0000 0.43756  0.75000  0.82680  Biso   1.000  C
  H1       1.0000 0.62920  0.19720  0.14240  Biso   1.000  H
  H2       1.0000 0.12920  0.19720  0.35760  Biso   1.000  H
  H3       1.0000 0.62920  0.30280  0.14240  Biso   1.000  H
  H4       1.0000 0.87080  0.69720  0.64240  Biso   1.000  H
  H5       1.0000 0.37080  0.80280  0.85760  Biso   1.000  H
  H6       1.0000 0.87080  0.80280  0.64240  Biso   1.000  H
  H7       1.0000 0.37080  0.69720  0.85760  Biso   1.000  H
  H8       1.0000 0.12920  0.30280  0.35760  Biso   1.000  H
  H9       1.0000 0.52750  0.18350  0.28610  Biso   1.000  H
  H10      1.0000 0.02750  0.18350  0.21390  Biso   1.000  H
  H11      1.0000 0.52750  0.31650  0.28610  Biso   1.000  H
  H12      1.0000 0.97250  0.68350  0.78610  Biso   1.000  H
  H13      1.0000 0.47250  0.81650  0.71390  Biso   1.000  H
  H14      1.0000 0.97250  0.81650  0.78610  Biso   1.000  H
  H15      1.0000 0.47250  0.68350  0.71390  Biso   1.000  H
  H16      1.0000 0.02750  0.31650  0.21390  Biso   1.000  H
  H17      1.0000 0.57250  0.36930  0.22250  Biso   1.000  H
  H18      1.0000 0.07250  0.36930  0.27750  Biso   1.000  H
  H19      1.0000 0.57250  0.13070  0.22250  Biso   1.000  H
  H20      1.0000 0.92750  0.86930  0.72250  Biso   1.000  H
  H21      1.0000 0.42750  0.63070  0.77750  Biso   1.000  H
  H22      1.0000 0.92750  0.63070  0.72250  Biso   1.000  H
  H23      1.0000 0.42750  0.86930  0.77750  Biso   1.000  H
  H24      1.0000 0.07250  0.13070  0.27750  Biso   1.000  H
