data_image0
_cell_length_a       29.5142
_cell_length_b       7.5761
_cell_length_c       11.3905
_cell_angle_alpha    90
_cell_angle_beta     106.141
_cell_angle_gamma    90

_symmetry_space_group_name_H-M    "P 1"
_symmetry_int_tables_number       1

loop_
  _symmetry_equiv_pos_as_xyz
  'x, y, z'

loop_
  _atom_site_label
  _atom_site_occupancy
  _atom_site_fract_x
  _atom_site_fract_y
  _atom_site_fract_z
  _atom_site_thermal_displace_type
  _atom_site_B_iso_or_equiv
  _atom_site_type_symbol
  Cu1      1.0000 0.33661  0.00000  0.59917  Biso   1.000  Cu
  Cu2      1.0000 0.83661  0.50000  0.59917  Biso   1.000  Cu
  Cu3      1.0000 0.66339  0.00000  0.40083  Biso   1.000  Cu
  Cu4      1.0000 0.16339  0.50000  0.40083  Biso   1.000  Cu
  Cu5      1.0000 0.32968  0.00000  0.12128  Biso   1.000  Cu
  Cu6      1.0000 0.82968  0.50000  0.12128  Biso   1.000  Cu
  Cu7      1.0000 0.67032  0.00000  0.87872  Biso   1.000  Cu
  Cu8      1.0000 0.17032  0.50000  0.87872  Biso   1.000  Cu
  N1       1.0000 0.34019  0.21700  0.50680  Biso   1.000  N
  N2       1.0000 0.84019  0.71700  0.50680  Biso   1.000  N
  N3       1.0000 0.34019  0.78300  0.50680  Biso   1.000  N
  N4       1.0000 0.84019  0.28300  0.50680  Biso   1.000  N
  N5       1.0000 0.65981  0.78300  0.49320  Biso   1.000  N
  N6       1.0000 0.15981  0.28300  0.49320  Biso   1.000  N
  N7       1.0000 0.65981  0.21700  0.49320  Biso   1.000  N
  N8       1.0000 0.15981  0.71700  0.49320  Biso   1.000  N
  C1       1.0000 0.34776  0.35270  0.47090  Biso   1.000  C
  C2       1.0000 0.84776  0.85270  0.47090  Biso   1.000  C
  C3       1.0000 0.34776  0.64730  0.47090  Biso   1.000  C
  C4       1.0000 0.84776  0.14730  0.47090  Biso   1.000  C
  C5       1.0000 0.65224  0.64730  0.52910  Biso   1.000  C
  C6       1.0000 0.15224  0.14730  0.52910  Biso   1.000  C
  C7       1.0000 0.65224  0.35270  0.52910  Biso   1.000  C
  C8       1.0000 0.15224  0.85270  0.52910  Biso   1.000  C
  N9       1.0000 0.35750  0.50000  0.42340  Biso   1.000  N
  N10      1.0000 0.85750  0.00000  0.42340  Biso   1.000  N
  N11      1.0000 0.64250  0.50000  0.57660  Biso   1.000  N
  N12      1.0000 0.14250  0.00000  0.57660  Biso   1.000  N
  N13      1.0000 0.28521  0.00000  0.68300  Biso   1.000  N
  N14      1.0000 0.78521  0.50000  0.68300  Biso   1.000  N
  N15      1.0000 0.71479  0.00000  0.31700  Biso   1.000  N
  N16      1.0000 0.21479  0.50000  0.31700  Biso   1.000  N
  C9       1.0000 0.26200  0.00000  0.74720  Biso   1.000  C
  C10      1.0000 0.76200  0.50000  0.74720  Biso   1.000  C
  C11      1.0000 0.73800  0.00000  0.25280  Biso   1.000  C
  C12      1.0000 0.23800  0.50000  0.25280  Biso   1.000  C
  C13      1.0000 0.23260  0.00000  0.83180  Biso   1.000  C
  C14      1.0000 0.73260  0.50000  0.83180  Biso   1.000  C
  C15      1.0000 0.76740  0.00000  0.16820  Biso   1.000  C
  C16      1.0000 0.26740  0.50000  0.16820  Biso   1.000  C
  H1       1.0000 0.25290  0.00000  0.91610  Biso   1.000  H
  H2       1.0000 0.75290  0.50000  0.91610  Biso   1.000  H
  H3       1.0000 0.74710  0.00000  0.08390  Biso   1.000  H
  H4       1.0000 0.24710  0.50000  0.08390  Biso   1.000  H
  H5       1.0000 0.21270  0.89440  0.81790  Biso   1.000  H
  H6       1.0000 0.71270  0.39440  0.81790  Biso   1.000  H
  H7       1.0000 0.21270  0.10560  0.81790  Biso   1.000  H
  H8       1.0000 0.71270  0.60560  0.81790  Biso   1.000  H
  H9       1.0000 0.78730  0.10560  0.18210  Biso   1.000  H
  H10      1.0000 0.28730  0.60560  0.18210  Biso   1.000  H
  H11      1.0000 0.78730  0.89440  0.18210  Biso   1.000  H
  H12      1.0000 0.28730  0.39440  0.18210  Biso   1.000  H
  N17      1.0000 0.39651  0.00000  0.74930  Biso   1.000  N
  N18      1.0000 0.89651  0.50000  0.74930  Biso   1.000  N
  N19      1.0000 0.60349  0.00000  0.25070  Biso   1.000  N
  N20      1.0000 0.10349  0.50000  0.25070  Biso   1.000  N
  C17      1.0000 0.43950  0.00000  0.73470  Biso   1.000  C
  C18      1.0000 0.93950  0.50000  0.73470  Biso   1.000  C
  C19      1.0000 0.56050  0.00000  0.26530  Biso   1.000  C
  C20      1.0000 0.06050  0.50000  0.26530  Biso   1.000  C
  H13      1.0000 0.44210  0.00000  0.65350  Biso   1.000  H
  H14      1.0000 0.94210  0.50000  0.65350  Biso   1.000  H
  H15      1.0000 0.55790  0.00000  0.34650  Biso   1.000  H
  H16      1.0000 0.05790  0.50000  0.34650  Biso   1.000  H
  C21      1.0000 0.48040  0.00000  0.82790  Biso   1.000  C
  C22      1.0000 0.98040  0.50000  0.82790  Biso   1.000  C
  C23      1.0000 0.51960  0.00000  0.17210  Biso   1.000  C
  C24      1.0000 0.01960  0.50000  0.17210  Biso   1.000  C
  H17      1.0000 0.51000  0.00000  0.81050  Biso   1.000  H
  H18      1.0000 0.01000  0.50000  0.81050  Biso   1.000  H
  H19      1.0000 0.49000  0.00000  0.18950  Biso   1.000  H
  H20      1.0000 0.99000  0.50000  0.18950  Biso   1.000  H
  C25      1.0000 0.47819  0.00000  0.94750  Biso   1.000  C
  C26      1.0000 0.97819  0.50000  0.94750  Biso   1.000  C
  C27      1.0000 0.52181  0.00000  0.05250  Biso   1.000  C
  C28      1.0000 0.02181  0.50000  0.05250  Biso   1.000  C
  C29      1.0000 0.43410  0.00000  0.96350  Biso   1.000  C
  C30      1.0000 0.93410  0.50000  0.96350  Biso   1.000  C
  C31      1.0000 0.56590  0.00000  0.03650  Biso   1.000  C
  C32      1.0000 0.06590  0.50000  0.03650  Biso   1.000  C
  H21      1.0000 0.43050  0.00000  0.04380  Biso   1.000  H
  H22      1.0000 0.93050  0.50000  0.04380  Biso   1.000  H
  H23      1.0000 0.56950  0.00000  0.95620  Biso   1.000  H
  H24      1.0000 0.06950  0.50000  0.95620  Biso   1.000  H
  C33      1.0000 0.39473  0.00000  0.86420  Biso   1.000  C
  C34      1.0000 0.89473  0.50000  0.86420  Biso   1.000  C
  C35      1.0000 0.60527  0.00000  0.13580  Biso   1.000  C
  C36      1.0000 0.10527  0.50000  0.13580  Biso   1.000  C
  H25      1.0000 0.36460  0.00000  0.87900  Biso   1.000  H
  H26      1.0000 0.86460  0.50000  0.87900  Biso   1.000  H
  H27      1.0000 0.63540  0.00000  0.12100  Biso   1.000  H
  H28      1.0000 0.13540  0.50000  0.12100  Biso   1.000  H
  N21      1.0000 0.33168  0.21690  0.02650  Biso   1.000  N
  N22      1.0000 0.83168  0.71690  0.02650  Biso   1.000  N
  N23      1.0000 0.33168  0.78310  0.02650  Biso   1.000  N
  N24      1.0000 0.83168  0.28310  0.02650  Biso   1.000  N
  N25      1.0000 0.66832  0.78310  0.97350  Biso   1.000  N
  N26      1.0000 0.16832  0.28310  0.97350  Biso   1.000  N
  N27      1.0000 0.66832  0.21690  0.97350  Biso   1.000  N
  N28      1.0000 0.16832  0.71690  0.97350  Biso   1.000  N
  C37      1.0000 0.33722  0.35200  0.98780  Biso   1.000  C
  C38      1.0000 0.83722  0.85200  0.98780  Biso   1.000  C
  C39      1.0000 0.33722  0.64800  0.98780  Biso   1.000  C
  C40      1.0000 0.83722  0.14800  0.98780  Biso   1.000  C
  C41      1.0000 0.66278  0.64800  0.01220  Biso   1.000  C
  C42      1.0000 0.16278  0.14800  0.01220  Biso   1.000  C
  C43      1.0000 0.66278  0.35200  0.01220  Biso   1.000  C
  C44      1.0000 0.16278  0.85200  0.01220  Biso   1.000  C
  N29      1.0000 0.34448  0.50000  0.93600  Biso   1.000  N
  N30      1.0000 0.84448  0.00000  0.93600  Biso   1.000  N
  N31      1.0000 0.65552  0.50000  0.06400  Biso   1.000  N
  N32      1.0000 0.15552  0.00000  0.06400  Biso   1.000  N
  N33      1.0000 0.28024  0.00000  0.20800  Biso   1.000  N
  N34      1.0000 0.78024  0.50000  0.20800  Biso   1.000  N
  N35      1.0000 0.71976  0.00000  0.79200  Biso   1.000  N
  N36      1.0000 0.21976  0.50000  0.79200  Biso   1.000  N
  C45      1.0000 0.25664  0.00000  0.27080  Biso   1.000  C
  C46      1.0000 0.75664  0.50000  0.27080  Biso   1.000  C
  C47      1.0000 0.74336  0.00000  0.72920  Biso   1.000  C
  C48      1.0000 0.24336  0.50000  0.72920  Biso   1.000  C
  C49      1.0000 0.22640  0.00000  0.35310  Biso   1.000  C
  C50      1.0000 0.72640  0.50000  0.35310  Biso   1.000  C
  C51      1.0000 0.77360  0.00000  0.64690  Biso   1.000  C
  C52      1.0000 0.27360  0.50000  0.64690  Biso   1.000  C
  H29      1.0000 0.24600  0.00000  0.43800  Biso   1.000  H
  H30      1.0000 0.74600  0.50000  0.43800  Biso   1.000  H
  H31      1.0000 0.75400  0.00000  0.56200  Biso   1.000  H
  H32      1.0000 0.25400  0.50000  0.56200  Biso   1.000  H
  H33      1.0000 0.20640  0.89440  0.33820  Biso   1.000  H
  H34      1.0000 0.70640  0.39440  0.33820  Biso   1.000  H
  H35      1.0000 0.20640  0.10560  0.33820  Biso   1.000  H
  H36      1.0000 0.70640  0.60560  0.33820  Biso   1.000  H
  H37      1.0000 0.79360  0.10560  0.66180  Biso   1.000  H
  H38      1.0000 0.29360  0.60560  0.66180  Biso   1.000  H
  H39      1.0000 0.79360  0.89440  0.66180  Biso   1.000  H
  H40      1.0000 0.29360  0.39440  0.66180  Biso   1.000  H
  N37      1.0000 0.39294  0.00000  0.26070  Biso   1.000  N
  N38      1.0000 0.89294  0.50000  0.26070  Biso   1.000  N
  N39      1.0000 0.60706  0.00000  0.73930  Biso   1.000  N
  N40      1.0000 0.10706  0.50000  0.73930  Biso   1.000  N
  C53      1.0000 0.41381  0.14780  0.30870  Biso   1.000  C
  C54      1.0000 0.91381  0.64780  0.30870  Biso   1.000  C
  C55      1.0000 0.41381  0.85220  0.30870  Biso   1.000  C
  C56      1.0000 0.91381  0.35220  0.30870  Biso   1.000  C
  C57      1.0000 0.58619  0.85220  0.69130  Biso   1.000  C
  C58      1.0000 0.08619  0.35220  0.69130  Biso   1.000  C
  C59      1.0000 0.58619  0.14780  0.69130  Biso   1.000  C
  C60      1.0000 0.08619  0.64780  0.69130  Biso   1.000  C
  H41      1.0000 0.39960  0.25650  0.27670  Biso   1.000  H
  H42      1.0000 0.89960  0.75650  0.27670  Biso   1.000  H
  H43      1.0000 0.39960  0.74350  0.27670  Biso   1.000  H
  H44      1.0000 0.89960  0.24350  0.27670  Biso   1.000  H
  H45      1.0000 0.60040  0.74350  0.72330  Biso   1.000  H
  H46      1.0000 0.10040  0.24350  0.72330  Biso   1.000  H
  H47      1.0000 0.60040  0.25650  0.72330  Biso   1.000  H
  H48      1.0000 0.10040  0.75650  0.72330  Biso   1.000  H
  C61      1.0000 0.45532  0.15350  0.40330  Biso   1.000  C
  C62      1.0000 0.95532  0.65350  0.40330  Biso   1.000  C
  C63      1.0000 0.45532  0.84650  0.40330  Biso   1.000  C
  C64      1.0000 0.95532  0.34650  0.40330  Biso   1.000  C
  C65      1.0000 0.54468  0.84650  0.59670  Biso   1.000  C
  C66      1.0000 0.04468  0.34650  0.59670  Biso   1.000  C
  C67      1.0000 0.54468  0.15350  0.59670  Biso   1.000  C
  C68      1.0000 0.04468  0.65350  0.59670  Biso   1.000  C
  H49      1.0000 0.46840  0.26400  0.43480  Biso   1.000  H
  H50      1.0000 0.96840  0.76400  0.43480  Biso   1.000  H
  H51      1.0000 0.46840  0.73600  0.43480  Biso   1.000  H
  H52      1.0000 0.96840  0.23600  0.43480  Biso   1.000  H
  H53      1.0000 0.53160  0.73600  0.56520  Biso   1.000  H
  H54      1.0000 0.03160  0.23600  0.56520  Biso   1.000  H
  H55      1.0000 0.53160  0.26400  0.56520  Biso   1.000  H
  H56      1.0000 0.03160  0.76400  0.56520  Biso   1.000  H
  C69      1.0000 0.47735  0.00000  0.45110  Biso   1.000  C
  C70      1.0000 0.97735  0.50000  0.45110  Biso   1.000  C
  C71      1.0000 0.52265  0.00000  0.54890  Biso   1.000  C
  C72      1.0000 0.02265  0.50000  0.54890  Biso   1.000  C
  N41      1.0000 0.51868  0.50000  0.32610  Biso   1.000  N
  N42      1.0000 0.01868  0.00000  0.32610  Biso   1.000  N
  N43      1.0000 0.48132  0.50000  0.67390  Biso   1.000  N
  N44      1.0000 0.98132  0.00000  0.67390  Biso   1.000  N
  C73      1.0000 0.47345  0.50000  0.24640  Biso   1.000  C
  C74      1.0000 0.97345  0.00000  0.24640  Biso   1.000  C
  C75      1.0000 0.52655  0.50000  0.75360  Biso   1.000  C
  C76      1.0000 0.02655  0.00000  0.75360  Biso   1.000  C
  C77      1.0000 0.46722  0.50000  0.12090  Biso   1.000  C
  C78      1.0000 0.96722  0.00000  0.12090  Biso   1.000  C
  C79      1.0000 0.53278  0.50000  0.87910  Biso   1.000  C
  C80      1.0000 0.03278  0.00000  0.87910  Biso   1.000  C
  C81      1.0000 0.50622  0.50000  0.07500  Biso   1.000  C
  C82      1.0000 0.00622  0.00000  0.07500  Biso   1.000  C
  C83      1.0000 0.49378  0.50000  0.92500  Biso   1.000  C
  C84      1.0000 0.99378  0.00000  0.92500  Biso   1.000  C
  C85      1.0000 0.55145  0.50000  0.15470  Biso   1.000  C
  C86      1.0000 0.05145  0.00000  0.15470  Biso   1.000  C
  C87      1.0000 0.44855  0.50000  0.84530  Biso   1.000  C
  C88      1.0000 0.94855  0.00000  0.84530  Biso   1.000  C
  C89      1.0000 0.55768  0.50000  0.28020  Biso   1.000  C
  C90      1.0000 0.05768  0.00000  0.28020  Biso   1.000  C
  C91      1.0000 0.44232  0.50000  0.71980  Biso   1.000  C
  C92      1.0000 0.94232  0.00000  0.71980  Biso   1.000  C
