data_image0
_cell_length_a       8.2104
_cell_length_b       10.0447
_cell_length_c       13.9494
_cell_angle_alpha    98.995
_cell_angle_beta     93.178
_cell_angle_gamma    101.633

_symmetry_space_group_name_H-M    "P 1"
_symmetry_int_tables_number       1

loop_
  _symmetry_equiv_pos_as_xyz
  'x, y, z'

loop_
  _atom_site_label
  _atom_site_occupancy
  _atom_site_fract_x
  _atom_site_fract_y
  _atom_site_fract_z
  _atom_site_thermal_displace_type
  _atom_site_B_iso_or_equiv
  _atom_site_type_symbol
  Cu1      1.0000 0.82475  0.19175  0.39939  Biso   1.000  Cu
  Cu2      1.0000 0.17525  0.80825  0.60061  Biso   1.000  Cu
  Cu3      1.0000 0.40644  0.73175  0.13597  Biso   1.000  Cu
  Cu4      1.0000 0.59356  0.26825  0.86403  Biso   1.000  Cu
  N1       1.0000 0.29220  0.07200  0.34130  Biso   1.000  N
  N2       1.0000 0.70780  0.92800  0.65870  Biso   1.000  N
  C1       1.0000 0.15330  0.11580  0.34037  Biso   1.000  C
  C2       1.0000 0.84670  0.88420  0.65963  Biso   1.000  C
  N3       1.0000 0.03660  0.16358  0.34614  Biso   1.000  N
  N4       1.0000 0.96340  0.83642  0.65386  Biso   1.000  N
  C3       1.0000 0.31020  0.96790  0.27700  Biso   1.000  C
  C4       1.0000 0.68980  0.03210  0.72300  Biso   1.000  C
  N5       1.0000 0.33850  0.87660  0.22481  Biso   1.000  N
  N6       1.0000 0.66150  0.12340  0.77519  Biso   1.000  N
  N7       1.0000 0.43840  0.36330  0.26310  Biso   1.000  N
  N8       1.0000 0.56160  0.63670  0.73690  Biso   1.000  N
  C5       1.0000 0.56760  0.32920  0.30513  Biso   1.000  C
  C6       1.0000 0.43240  0.67080  0.69487  Biso   1.000  C
  N9       1.0000 0.67170  0.28870  0.34185  Biso   1.000  N
  N10      1.0000 0.32830  0.71130  0.65815  Biso   1.000  N
  C7       1.0000 0.45680  0.47970  0.22979  Biso   1.000  C
  C8       1.0000 0.54320  0.52030  0.77021  Biso   1.000  C
  N11      1.0000 0.45480  0.57690  0.19645  Biso   1.000  N
  N12      1.0000 0.54520  0.42310  0.80355  Biso   1.000  N
  N13      1.0000 0.90410  0.29195  0.54102  Biso   1.000  N
  N14      1.0000 0.09590  0.70805  0.45898  Biso   1.000  N
  C9       1.0000 0.87390  0.41560  0.57789  Biso   1.000  C
  C10      1.0000 0.12610  0.58440  0.42211  Biso   1.000  C
  H1       1.0000 0.80950  0.45760  0.53780  Biso   1.000  H
  H2       1.0000 0.19050  0.54240  0.46220  Biso   1.000  H
  C11      1.0000 0.93140  0.48490  0.67076  Biso   1.000  C
  C12      1.0000 0.06860  0.51510  0.32924  Biso   1.000  C
  H3       1.0000 0.90590  0.57190  0.69360  Biso   1.000  H
  H4       1.0000 0.09410  0.42810  0.30640  Biso   1.000  H
  C13      1.0000 0.02740  0.42570  0.73087  Biso   1.000  C
  C14      1.0000 0.97260  0.57430  0.26913  Biso   1.000  C
  C15      1.0000 0.05940  0.29720  0.69283  Biso   1.000  C
  C16      1.0000 0.94060  0.70280  0.30717  Biso   1.000  C
  H5       1.0000 0.12460  0.25320  0.73090  Biso   1.000  H
  H6       1.0000 0.87540  0.74680  0.26910  Biso   1.000  H
  C17      1.0000 0.99520  0.23490  0.59933  Biso   1.000  C
  C18      1.0000 0.00480  0.76510  0.40067  Biso   1.000  C
  H7       1.0000 0.01660  0.14690  0.57500  Biso   1.000  H
  H8       1.0000 0.98340  0.85310  0.42500  Biso   1.000  H
  C19      1.0000 0.21270  0.70370  0.94434  Biso   1.000  C
  C20      1.0000 0.78730  0.29630  0.05566  Biso   1.000  C
  H9       1.0000 0.23830  0.80170  0.95870  Biso   1.000  H
  H10      1.0000 0.76170  0.19830  0.04130  Biso   1.000  H
  C21      1.0000 0.13580  0.64100  0.85318  Biso   1.000  C
  C22      1.0000 0.86420  0.35900  0.14682  Biso   1.000  C
  H11      1.0000 0.10890  0.69520  0.80700  Biso   1.000  H
  H12      1.0000 0.89110  0.30480  0.19300  Biso   1.000  H
  C23      1.0000 0.09800  0.49720  0.82982  Biso   1.000  C
  C24      1.0000 0.90200  0.50280  0.17018  Biso   1.000  C
  C25      1.0000 0.13490  0.42480  0.90309  Biso   1.000  C
  C26      1.0000 0.86510  0.57520  0.09691  Biso   1.000  C
  H13      1.0000 0.10700  0.32680  0.89170  Biso   1.000  H
  H14      1.0000 0.89300  0.67320  0.10830  Biso   1.000  H
  C27      1.0000 0.21170  0.49580  0.99177  Biso   1.000  C
  C28      1.0000 0.78830  0.50420  0.00823  Biso   1.000  C
  H15      1.0000 0.23660  0.44420  0.04010  Biso   1.000  H
  H16      1.0000 0.76340  0.55580  0.95990  Biso   1.000  H
  N15      1.0000 0.25340  0.63444  0.01380  Biso   1.000  N
  N16      1.0000 0.74660  0.36556  0.98620  Biso   1.000  N
  N17      1.0000 0.61610  0.83652  0.07990  Biso   1.000  N
  N18      1.0000 0.38390  0.16348  0.92010  Biso   1.000  N
  C29      1.0000 0.65080  0.81240  0.98696  Biso   1.000  C
  C30      1.0000 0.34920  0.18760  0.01304  Biso   1.000  C
  H17      1.0000 0.56950  0.74910  0.94180  Biso   1.000  H
  H18      1.0000 0.43050  0.25090  0.05820  Biso   1.000  H
  C31      1.0000 0.79610  0.87300  0.95246  Biso   1.000  C
  C32      1.0000 0.20390  0.12700  0.04754  Biso   1.000  C
  H19      1.0000 0.81210  0.85210  0.88530  Biso   1.000  H
  H20      1.0000 0.18790  0.14790  0.11470  Biso   1.000  H
  C33      1.0000 0.92060  0.96570  0.01641  Biso   1.000  C
  C34      1.0000 0.07940  0.03430  0.98359  Biso   1.000  C
  C35      1.0000 0.88470  0.99080  0.11359  Biso   1.000  C
  C36      1.0000 0.11530  0.00920  0.88641  Biso   1.000  C
  H21      1.0000 0.96470  0.05210  0.16060  Biso   1.000  H
  H22      1.0000 0.03530  0.94790  0.83940  Biso   1.000  H
  C37      1.0000 0.73430  0.92750  0.14181  Biso   1.000  C
  C38      1.0000 0.26570  0.07250  0.85819  Biso   1.000  C
  H23      1.0000 0.71270  0.94880  0.20810  Biso   1.000  H
  H24      1.0000 0.28730  0.05120  0.79190  Biso   1.000  H
  N19      1.0000 0.70050  0.00224  0.41406  Biso   1.000  N
  N20      1.0000 0.29950  0.99776  0.58594  Biso   1.000  N
  C39      1.0000 0.62890  0.89750  0.42578  Biso   1.000  C
  C40      1.0000 0.37110  0.10250  0.57422  Biso   1.000  C
  C41      1.0000 0.53700  0.76370  0.43991  Biso   1.000  C
  C42      1.0000 0.46300  0.23630  0.56009  Biso   1.000  C
  H25      1.0000 0.47440  0.77510  0.49740  Biso   1.000  H
  H26      1.0000 0.52560  0.22490  0.50260  Biso   1.000  H
  H27      1.0000 0.61530  0.70410  0.44960  Biso   1.000  H
  H28      1.0000 0.38470  0.29590  0.55040  Biso   1.000  H
  H29      1.0000 0.45910  0.72150  0.38230  Biso   1.000  H
  H30      1.0000 0.54090  0.27850  0.61770  Biso   1.000  H
