data_image0
_cell_length_a       3.8969
_cell_length_b       18.5279
_cell_length_c       9.9978
_cell_angle_alpha    90
_cell_angle_beta     92.039
_cell_angle_gamma    90

_symmetry_space_group_name_H-M    "P 1"
_symmetry_int_tables_number       1

loop_
  _symmetry_equiv_pos_as_xyz
  'x, y, z'

loop_
  _atom_site_label
  _atom_site_occupancy
  _atom_site_fract_x
  _atom_site_fract_y
  _atom_site_fract_z
  _atom_site_thermal_displace_type
  _atom_site_B_iso_or_equiv
  _atom_site_type_symbol
  Cu1      1.0000 0.12216  0.13919  0.28700  Biso   1.000  Cu
  Cu2      1.0000 0.12216  0.36081  0.78700  Biso   1.000  Cu
  Cu3      1.0000 0.87784  0.86081  0.71300  Biso   1.000  Cu
  Cu4      1.0000 0.87784  0.63919  0.21300  Biso   1.000  Cu
  N1       1.0000 0.37050  0.13946  0.12560  Biso   1.000  N
  N2       1.0000 0.37050  0.36054  0.62560  Biso   1.000  N
  N3       1.0000 0.62950  0.86054  0.87440  Biso   1.000  N
  N4       1.0000 0.62950  0.63946  0.37440  Biso   1.000  N
  N5       1.0000 0.65950  0.15706  0.91370  Biso   1.000  N
  N6       1.0000 0.65950  0.34294  0.41370  Biso   1.000  N
  N7       1.0000 0.34050  0.84294  0.08630  Biso   1.000  N
  N8       1.0000 0.34050  0.65706  0.58630  Biso   1.000  N
  N9       1.0000 0.91170  0.27160  0.84120  Biso   1.000  N
  N10      1.0000 0.91170  0.22840  0.34120  Biso   1.000  N
  N11      1.0000 0.08830  0.72840  0.15880  Biso   1.000  N
  N12      1.0000 0.08830  0.77160  0.65880  Biso   1.000  N
  N13      1.0000 0.06730  0.05512  0.41063  Biso   1.000  N
  N14      1.0000 0.06730  0.44488  0.91063  Biso   1.000  N
  N15      1.0000 0.93270  0.94488  0.58937  Biso   1.000  N
  N16      1.0000 0.93270  0.55512  0.08937  Biso   1.000  N
  C1       1.0000 0.50790  0.15106  0.02800  Biso   1.000  C
  C2       1.0000 0.50790  0.34894  0.52800  Biso   1.000  C
  C3       1.0000 0.49210  0.84894  0.97200  Biso   1.000  C
  C4       1.0000 0.49210  0.65106  0.47200  Biso   1.000  C
  C5       1.0000 0.78900  0.21960  0.88040  Biso   1.000  C
  C6       1.0000 0.78900  0.28040  0.38040  Biso   1.000  C
  C7       1.0000 0.21100  0.78040  0.11960  Biso   1.000  C
  C8       1.0000 0.21100  0.71960  0.61960  Biso   1.000  C
  C9       1.0000 0.91590  0.99324  0.36740  Biso   1.000  C
  C10      1.0000 0.91590  0.50676  0.86740  Biso   1.000  C
  C11      1.0000 0.08410  0.00676  0.63260  Biso   1.000  C
  C12      1.0000 0.08410  0.49324  0.13260  Biso   1.000  C
  C13      1.0000 0.82730  0.98604  0.22090  Biso   1.000  C
  C14      1.0000 0.82730  0.51396  0.72090  Biso   1.000  C
  C15      1.0000 0.17270  0.01396  0.77910  Biso   1.000  C
  C16      1.0000 0.17270  0.48604  0.27910  Biso   1.000  C
  H1       1.0000 0.57720  0.98520  0.20700  Biso   1.000  H
  H2       1.0000 0.57720  0.51480  0.70700  Biso   1.000  H
  H3       1.0000 0.42280  0.01480  0.79300  Biso   1.000  H
  H4       1.0000 0.42280  0.48520  0.29300  Biso   1.000  H
  H5       1.0000 0.92460  0.94110  0.18720  Biso   1.000  H
  H6       1.0000 0.92460  0.55890  0.68720  Biso   1.000  H
  H7       1.0000 0.07540  0.05890  0.81280  Biso   1.000  H
  H8       1.0000 0.07540  0.44110  0.31280  Biso   1.000  H
  H9       1.0000 0.92230  0.02710  0.17280  Biso   1.000  H
  H10      1.0000 0.92230  0.47290  0.67280  Biso   1.000  H
  H11      1.0000 0.07770  0.97290  0.82720  Biso   1.000  H
  H12      1.0000 0.07770  0.52710  0.32720  Biso   1.000  H
  C17      1.0000 0.15370  0.06179  0.54200  Biso   1.000  C
  C18      1.0000 0.15370  0.43821  0.04200  Biso   1.000  C
  C19      1.0000 0.84630  0.93821  0.45800  Biso   1.000  C
  C20      1.0000 0.84630  0.56179  0.95800  Biso   1.000  C
  C21      1.0000 0.32140  0.13097  0.58690  Biso   1.000  C
  C22      1.0000 0.32140  0.36903  0.08690  Biso   1.000  C
  C23      1.0000 0.67860  0.86903  0.41310  Biso   1.000  C
  C24      1.0000 0.67860  0.63097  0.91310  Biso   1.000  C
  H13      1.0000 0.45090  0.15120  0.51350  Biso   1.000  H
  H14      1.0000 0.45090  0.34880  0.01350  Biso   1.000  H
  H15      1.0000 0.54910  0.84880  0.48650  Biso   1.000  H
  H16      1.0000 0.54910  0.65120  0.98650  Biso   1.000  H
  H17      1.0000 0.47790  0.12140  0.66370  Biso   1.000  H
  H18      1.0000 0.47790  0.37860  0.16370  Biso   1.000  H
  H19      1.0000 0.52210  0.87860  0.33630  Biso   1.000  H
  H20      1.0000 0.52210  0.62140  0.83630  Biso   1.000  H
  H21      1.0000 0.14490  0.16540  0.61280  Biso   1.000  H
  H22      1.0000 0.14490  0.33460  0.11280  Biso   1.000  H
  H23      1.0000 0.85510  0.83460  0.38720  Biso   1.000  H
  H24      1.0000 0.85510  0.66540  0.88720  Biso   1.000  H
