data_image0
_cell_length_a       3.8105
_cell_length_b       15.819
_cell_length_c       13.311
_cell_angle_alpha    90
_cell_angle_beta     96.045
_cell_angle_gamma    90

_symmetry_space_group_name_H-M    "P 1"
_symmetry_int_tables_number       1

loop_
  _symmetry_equiv_pos_as_xyz
  'x, y, z'

loop_
  _atom_site_label
  _atom_site_occupancy
  _atom_site_fract_x
  _atom_site_fract_y
  _atom_site_fract_z
  _atom_site_thermal_displace_type
  _atom_site_B_iso_or_equiv
  _atom_site_type_symbol
  Cu1      1.0000 0.74130  0.06249  0.02847  Biso   1.000  Cu
  Cu2      1.0000 0.74130  0.43751  0.52847  Biso   1.000  Cu
  Cu3      1.0000 0.25870  0.93751  0.97153  Biso   1.000  Cu
  Cu4      1.0000 0.25870  0.56249  0.47153  Biso   1.000  Cu
  Cl1      1.0000 0.80610  0.92301  0.08557  Biso   1.000  Cl
  Cl2      1.0000 0.80610  0.57699  0.58557  Biso   1.000  Cl
  Cl3      1.0000 0.19390  0.07699  0.91443  Biso   1.000  Cl
  Cl4      1.0000 0.19390  0.42301  0.41443  Biso   1.000  Cl
  N1       1.0000 0.73200  0.16770  0.11300  Biso   1.000  N
  N2       1.0000 0.73200  0.33230  0.61300  Biso   1.000  N
  N3       1.0000 0.26800  0.83230  0.88700  Biso   1.000  N
  N4       1.0000 0.26800  0.66770  0.38700  Biso   1.000  N
  C1       1.0000 0.82350  0.24110  0.07010  Biso   1.000  C
  C2       1.0000 0.82350  0.25890  0.57010  Biso   1.000  C
  C3       1.0000 0.17650  0.75890  0.92990  Biso   1.000  C
  C4       1.0000 0.17650  0.74110  0.42990  Biso   1.000  C
  H1       1.0000 0.88010  0.23730  0.00370  Biso   1.000  H
  H2       1.0000 0.88010  0.26270  0.50370  Biso   1.000  H
  H3       1.0000 0.11990  0.76270  0.99630  Biso   1.000  H
  H4       1.0000 0.11990  0.73730  0.49630  Biso   1.000  H
  C5       1.0000 0.78910  0.31880  0.11430  Biso   1.000  C
  C6       1.0000 0.78910  0.18120  0.61430  Biso   1.000  C
  C7       1.0000 0.21090  0.68120  0.88570  Biso   1.000  C
  C8       1.0000 0.21090  0.81880  0.38570  Biso   1.000  C
  C9       1.0000 0.66580  0.32230  0.20890  Biso   1.000  C
  C10      1.0000 0.66580  0.17770  0.70890  Biso   1.000  C
  C11      1.0000 0.33420  0.67770  0.79110  Biso   1.000  C
  C12      1.0000 0.33420  0.82230  0.29110  Biso   1.000  C
  H5       1.0000 0.66890  0.37400  0.23510  Biso   1.000  H
  H6       1.0000 0.66890  0.12600  0.73510  Biso   1.000  H
  H7       1.0000 0.33110  0.62600  0.76490  Biso   1.000  H
  H8       1.0000 0.33110  0.87400  0.26490  Biso   1.000  H
  C13      1.0000 0.57750  0.24810  0.25410  Biso   1.000  C
  C14      1.0000 0.57750  0.25190  0.75410  Biso   1.000  C
  C15      1.0000 0.42250  0.75190  0.74590  Biso   1.000  C
  C16      1.0000 0.42250  0.74810  0.24590  Biso   1.000  C
  H9       1.0000 0.50150  0.25030  0.32220  Biso   1.000  H
  H10      1.0000 0.50150  0.24970  0.82220  Biso   1.000  H
  H11      1.0000 0.49850  0.74970  0.67780  Biso   1.000  H
  H12      1.0000 0.49850  0.75030  0.17780  Biso   1.000  H
  C17      1.0000 0.61030  0.17160  0.20410  Biso   1.000  C
  C18      1.0000 0.61030  0.32840  0.70410  Biso   1.000  C
  C19      1.0000 0.38970  0.82840  0.79590  Biso   1.000  C
  C20      1.0000 0.38970  0.67160  0.29590  Biso   1.000  C
  C21      1.0000 0.88170  0.39760  0.06290  Biso   1.000  C
  C22      1.0000 0.88170  0.10240  0.56290  Biso   1.000  C
  C23      1.0000 0.11830  0.60240  0.93710  Biso   1.000  C
  C24      1.0000 0.11830  0.89760  0.43710  Biso   1.000  C
  O1       1.0000 0.82140  0.46690  0.10060  Biso   1.000  O
  O2       1.0000 0.82140  0.03310  0.60060  Biso   1.000  O
  O3       1.0000 0.17860  0.53310  0.89940  Biso   1.000  O
  O4       1.0000 0.17860  0.96690  0.39940  Biso   1.000  O
  O5       1.0000 0.02150  0.38810  0.98040  Biso   1.000  O
  O6       1.0000 0.02150  0.11190  0.48040  Biso   1.000  O
  O7       1.0000 0.97850  0.61190  0.01960  Biso   1.000  O
  O8       1.0000 0.97850  0.88810  0.51960  Biso   1.000  O
  H13      1.0000 0.04770  0.42980  0.95710  Biso   1.000  H
  H14      1.0000 0.04770  0.07020  0.45710  Biso   1.000  H
  H15      1.0000 0.95230  0.57020  0.04290  Biso   1.000  H
  H16      1.0000 0.95230  0.92980  0.54290  Biso   1.000  H
  C25      1.0000 0.50400  0.08940  0.24870  Biso   1.000  C
  C26      1.0000 0.50400  0.41060  0.74870  Biso   1.000  C
  C27      1.0000 0.49600  0.91060  0.75130  Biso   1.000  C
  C28      1.0000 0.49600  0.58940  0.25130  Biso   1.000  C
  H17      1.0000 0.72390  0.06880  0.25400  Biso   1.000  H
  H18      1.0000 0.72390  0.43120  0.75400  Biso   1.000  H
  H19      1.0000 0.27610  0.93120  0.74600  Biso   1.000  H
  H20      1.0000 0.27610  0.56880  0.24600  Biso   1.000  H
  H21      1.0000 0.47010  0.10840  0.31470  Biso   1.000  H
  H22      1.0000 0.47010  0.39160  0.81470  Biso   1.000  H
  H23      1.0000 0.52990  0.89160  0.68530  Biso   1.000  H
  H24      1.0000 0.52990  0.60840  0.18530  Biso   1.000  H
  H25      1.0000 0.31400  0.05920  0.21490  Biso   1.000  H
  H26      1.0000 0.31400  0.44080  0.71490  Biso   1.000  H
  H27      1.0000 0.68600  0.94080  0.78510  Biso   1.000  H
  H28      1.0000 0.68600  0.55920  0.28510  Biso   1.000  H
