data_image0
_cell_length_a       7.3835
_cell_length_b       15.214
_cell_length_c       12.1963
_cell_angle_alpha    90
_cell_angle_beta     90
_cell_angle_gamma    90

_symmetry_space_group_name_H-M    "P 1"
_symmetry_int_tables_number       1

loop_
  _symmetry_equiv_pos_as_xyz
  'x, y, z'

loop_
  _atom_site_label
  _atom_site_occupancy
  _atom_site_fract_x
  _atom_site_fract_y
  _atom_site_fract_z
  _atom_site_thermal_displace_type
  _atom_site_B_iso_or_equiv
  _atom_site_type_symbol
  Cu1      1.0000 0.92788  0.11763  0.83302  Biso   1.000  Cu
  Cu2      1.0000 0.07212  0.88237  0.33302  Biso   1.000  Cu
  Cu3      1.0000 0.42788  0.38237  0.83302  Biso   1.000  Cu
  Cu4      1.0000 0.57212  0.61763  0.33302  Biso   1.000  Cu
  N1       1.0000 0.83210  0.17666  0.69743  Biso   1.000  N
  N2       1.0000 0.16790  0.82334  0.19743  Biso   1.000  N
  N3       1.0000 0.33210  0.32334  0.69743  Biso   1.000  N
  N4       1.0000 0.66790  0.67666  0.19743  Biso   1.000  N
  C1       1.0000 0.78940  0.12525  0.61173  Biso   1.000  C
  C2       1.0000 0.21060  0.87475  0.11173  Biso   1.000  C
  C3       1.0000 0.28940  0.37475  0.61173  Biso   1.000  C
  C4       1.0000 0.71060  0.62525  0.11173  Biso   1.000  C
  H1       1.0000 0.79560  0.06330  0.62120  Biso   1.000  H
  H2       1.0000 0.20440  0.93670  0.12120  Biso   1.000  H
  H3       1.0000 0.29560  0.43670  0.62120  Biso   1.000  H
  H4       1.0000 0.70440  0.56330  0.12120  Biso   1.000  H
  C5       1.0000 0.73690  0.15714  0.51066  Biso   1.000  C
  C6       1.0000 0.26310  0.84286  0.01066  Biso   1.000  C
  C7       1.0000 0.23690  0.34286  0.51066  Biso   1.000  C
  C8       1.0000 0.76310  0.65714  0.01066  Biso   1.000  C
  H5       1.0000 0.70860  0.11760  0.45280  Biso   1.000  H
  H6       1.0000 0.29140  0.88240  0.95280  Biso   1.000  H
  H7       1.0000 0.20860  0.38240  0.45280  Biso   1.000  H
  H8       1.0000 0.79140  0.61760  0.95280  Biso   1.000  H
  C9       1.0000 0.72570  0.24769  0.49377  Biso   1.000  C
  C10      1.0000 0.27430  0.75231  0.99377  Biso   1.000  C
  C11      1.0000 0.22570  0.25231  0.49377  Biso   1.000  C
  C12      1.0000 0.77430  0.74769  0.99377  Biso   1.000  C
  C13      1.0000 0.76810  0.30089  0.58228  Biso   1.000  C
  C14      1.0000 0.23190  0.69911  0.08228  Biso   1.000  C
  C15      1.0000 0.26810  0.19911  0.58228  Biso   1.000  C
  C16      1.0000 0.73190  0.80089  0.08228  Biso   1.000  C
  H9       1.0000 0.76190  0.36300  0.57530  Biso   1.000  H
  H10      1.0000 0.23810  0.63700  0.07530  Biso   1.000  H
  H11      1.0000 0.26190  0.13700  0.57530  Biso   1.000  H
  H12      1.0000 0.73810  0.86300  0.07530  Biso   1.000  H
  C17      1.0000 0.81980  0.26334  0.68124  Biso   1.000  C
  C18      1.0000 0.18020  0.73666  0.18124  Biso   1.000  C
  C19      1.0000 0.31980  0.23666  0.68124  Biso   1.000  C
  C20      1.0000 0.68020  0.76334  0.18124  Biso   1.000  C
  H13      1.0000 0.84800  0.30130  0.74070  Biso   1.000  H
  H14      1.0000 0.15200  0.69870  0.24070  Biso   1.000  H
  H15      1.0000 0.34800  0.19870  0.74070  Biso   1.000  H
  H16      1.0000 0.65200  0.80130  0.24070  Biso   1.000  H
  C21      1.0000 0.67130  0.28622  0.38803  Biso   1.000  C
  C22      1.0000 0.32870  0.71378  0.88803  Biso   1.000  C
  C23      1.0000 0.17130  0.21378  0.38803  Biso   1.000  C
  C24      1.0000 0.82870  0.78622  0.88803  Biso   1.000  C
  H17      1.0000 0.66270  0.34840  0.38330  Biso   1.000  H
  H18      1.0000 0.33730  0.65160  0.88330  Biso   1.000  H
  H19      1.0000 0.16270  0.15160  0.38330  Biso   1.000  H
  H20      1.0000 0.83730  0.84840  0.88330  Biso   1.000  H
  C25      1.0000 0.63370  0.23979  0.29907  Biso   1.000  C
  C26      1.0000 0.36630  0.76021  0.79907  Biso   1.000  C
  C27      1.0000 0.13370  0.26021  0.29907  Biso   1.000  C
  C28      1.0000 0.86630  0.73979  0.79907  Biso   1.000  C
  H21      1.0000 0.64300  0.17770  0.30580  Biso   1.000  H
  H22      1.0000 0.35700  0.82230  0.80580  Biso   1.000  H
  H23      1.0000 0.14300  0.32230  0.30580  Biso   1.000  H
  H24      1.0000 0.85700  0.67770  0.80580  Biso   1.000  H
  C29      1.0000 0.51310  0.24609  0.00151  Biso   1.000  C
  C30      1.0000 0.48690  0.75391  0.50151  Biso   1.000  C
  C31      1.0000 0.01310  0.25391  0.00151  Biso   1.000  C
  C32      1.0000 0.98690  0.74609  0.50151  Biso   1.000  C
  H25      1.0000 0.50390  0.20520  0.94290  Biso   1.000  H
  H26      1.0000 0.49610  0.79480  0.44290  Biso   1.000  H
  H27      1.0000 0.00390  0.29480  0.94290  Biso   1.000  H
  H28      1.0000 0.99610  0.70520  0.44290  Biso   1.000  H
  C33      1.0000 0.56050  0.21481  0.10386  Biso   1.000  C
  C34      1.0000 0.43950  0.78519  0.60386  Biso   1.000  C
  C35      1.0000 0.06050  0.28519  0.10386  Biso   1.000  C
  C36      1.0000 0.93950  0.71481  0.60386  Biso   1.000  C
  H29      1.0000 0.58040  0.15370  0.11480  Biso   1.000  H
  H30      1.0000 0.41960  0.84630  0.61480  Biso   1.000  H
  H31      1.0000 0.08040  0.34630  0.11480  Biso   1.000  H
  H32      1.0000 0.91960  0.65370  0.61480  Biso   1.000  H
  C37      1.0000 0.57910  0.27348  0.19106  Biso   1.000  C
  C38      1.0000 0.42090  0.72652  0.69106  Biso   1.000  C
  C39      1.0000 0.07910  0.22652  0.19106  Biso   1.000  C
  C40      1.0000 0.92090  0.77348  0.69106  Biso   1.000  C
  C41      1.0000 0.54390  0.36162  0.16988  Biso   1.000  C
  C42      1.0000 0.45610  0.63838  0.66988  Biso   1.000  C
  C43      1.0000 0.04390  0.13838  0.16988  Biso   1.000  C
  C44      1.0000 0.95610  0.86162  0.66988  Biso   1.000  C
  H33      1.0000 0.55460  0.40400  0.22670  Biso   1.000  H
  H34      1.0000 0.44540  0.59600  0.72670  Biso   1.000  H
  H35      1.0000 0.05460  0.09600  0.22670  Biso   1.000  H
  H36      1.0000 0.94540  0.90400  0.72670  Biso   1.000  H
  C45      1.0000 0.49340  0.38699  0.06601  Biso   1.000  C
  C46      1.0000 0.50660  0.61301  0.56601  Biso   1.000  C
  C47      1.0000 0.99340  0.11301  0.06601  Biso   1.000  C
  C48      1.0000 0.00660  0.88699  0.56601  Biso   1.000  C
  H37      1.0000 0.46710  0.44730  0.05380  Biso   1.000  H
  H38      1.0000 0.53290  0.55270  0.55380  Biso   1.000  H
  H39      1.0000 0.96710  0.05270  0.05380  Biso   1.000  H
  H40      1.0000 0.03290  0.94730  0.55380  Biso   1.000  H
  N5       1.0000 0.47930  0.33128  0.98046  Biso   1.000  N
  N6       1.0000 0.52070  0.66872  0.48046  Biso   1.000  N
  N7       1.0000 0.97930  0.16872  0.98046  Biso   1.000  N
  N8       1.0000 0.02070  0.83128  0.48046  Biso   1.000  N
  N9       1.0000 0.44720  0.98193  0.76440  Biso   1.000  N
  N10      1.0000 0.55280  0.01807  0.26440  Biso   1.000  N
  N11      1.0000 0.94720  0.51807  0.76440  Biso   1.000  N
  N12      1.0000 0.05280  0.48193  0.26440  Biso   1.000  N
  C49      1.0000 0.29030  0.01837  0.78452  Biso   1.000  C
  C50      1.0000 0.70970  0.98163  0.28452  Biso   1.000  C
  C51      1.0000 0.79030  0.48163  0.78452  Biso   1.000  C
  C52      1.0000 0.20970  0.51837  0.28452  Biso   1.000  C
  N13      1.0000 0.14650  0.04567  0.79484  Biso   1.000  N
  N14      1.0000 0.85350  0.95433  0.29484  Biso   1.000  N
  N15      1.0000 0.64650  0.45433  0.79484  Biso   1.000  N
  N16      1.0000 0.35350  0.54567  0.29484  Biso   1.000  N
  C53      1.0000 0.58910  0.00582  0.82100  Biso   1.000  C
  C54      1.0000 0.41090  0.99418  0.32100  Biso   1.000  C
  C55      1.0000 0.08910  0.49418  0.82100  Biso   1.000  C
  C56      1.0000 0.91090  0.50582  0.32100  Biso   1.000  C
  N17      1.0000 0.72410  0.02209  0.86444  Biso   1.000  N
  N18      1.0000 0.27590  0.97791  0.36444  Biso   1.000  N
  N19      1.0000 0.22410  0.47791  0.86444  Biso   1.000  N
  N20      1.0000 0.77590  0.52209  0.36444  Biso   1.000  N
