data_image0
_cell_length_a       4.0964
_cell_length_b       13.656
_cell_length_c       16.114
_cell_angle_alpha    90
_cell_angle_beta     92.225
_cell_angle_gamma    90

_symmetry_space_group_name_H-M    "P 1"
_symmetry_int_tables_number       1

loop_
  _symmetry_equiv_pos_as_xyz
  'x, y, z'

loop_
  _atom_site_label
  _atom_site_occupancy
  _atom_site_fract_x
  _atom_site_fract_y
  _atom_site_fract_z
  _atom_site_thermal_displace_type
  _atom_site_B_iso_or_equiv
  _atom_site_type_symbol
  Cu1      1.0000 0.17940  0.03106  0.93392  Biso   1.000  Cu
  Cu2      1.0000 0.17940  0.46894  0.43392  Biso   1.000  Cu
  Cu3      1.0000 0.82060  0.96894  0.06608  Biso   1.000  Cu
  Cu4      1.0000 0.82060  0.53106  0.56608  Biso   1.000  Cu
  I1       1.0000 0.66924  0.91163  0.90839  Biso   1.000  I
  I2       1.0000 0.66924  0.58837  0.40839  Biso   1.000  I
  I3       1.0000 0.33076  0.08837  0.09161  Biso   1.000  I
  I4       1.0000 0.33076  0.41163  0.59161  Biso   1.000  I
  N1       1.0000 0.03500  0.15590  0.87110  Biso   1.000  N
  N2       1.0000 0.03500  0.34410  0.37110  Biso   1.000  N
  N3       1.0000 0.96500  0.84410  0.12890  Biso   1.000  N
  N4       1.0000 0.96500  0.65590  0.62890  Biso   1.000  N
  C1       1.0000 0.91700  0.22970  0.91740  Biso   1.000  C
  C2       1.0000 0.91700  0.27030  0.41740  Biso   1.000  C
  C3       1.0000 0.08300  0.77030  0.08260  Biso   1.000  C
  C4       1.0000 0.08300  0.72970  0.58260  Biso   1.000  C
  H1       1.0000 0.98630  0.22600  0.96650  Biso   1.000  H
  H2       1.0000 0.98630  0.27400  0.46650  Biso   1.000  H
  H3       1.0000 0.01370  0.77400  0.03350  Biso   1.000  H
  H4       1.0000 0.01370  0.72600  0.53350  Biso   1.000  H
  C5       1.0000 0.75700  0.31040  0.88330  Biso   1.000  C
  C6       1.0000 0.75700  0.18960  0.38330  Biso   1.000  C
  C7       1.0000 0.24300  0.68960  0.11670  Biso   1.000  C
  C8       1.0000 0.24300  0.81040  0.61670  Biso   1.000  C
  C9       1.0000 0.71300  0.31480  0.79660  Biso   1.000  C
  C10      1.0000 0.71300  0.18520  0.29660  Biso   1.000  C
  C11      1.0000 0.28700  0.68520  0.20340  Biso   1.000  C
  C12      1.0000 0.28700  0.81480  0.70340  Biso   1.000  C
  H5       1.0000 0.59210  0.36340  0.76960  Biso   1.000  H
  H6       1.0000 0.59210  0.13660  0.26960  Biso   1.000  H
  H7       1.0000 0.40790  0.63660  0.23040  Biso   1.000  H
  H8       1.0000 0.40790  0.86340  0.73040  Biso   1.000  H
  C13      1.0000 0.83000  0.23940  0.74940  Biso   1.000  C
  C14      1.0000 0.83000  0.26060  0.24940  Biso   1.000  C
  C15      1.0000 0.17000  0.76060  0.25060  Biso   1.000  C
  C16      1.0000 0.17000  0.73940  0.75060  Biso   1.000  C
  H9       1.0000 0.79910  0.23320  0.68440  Biso   1.000  H
  H10      1.0000 0.79910  0.26680  0.18440  Biso   1.000  H
  H11      1.0000 0.20090  0.76680  0.31560  Biso   1.000  H
  H12      1.0000 0.20090  0.73320  0.81560  Biso   1.000  H
  C17      1.0000 0.99100  0.15970  0.78800  Biso   1.000  C
  C18      1.0000 0.99100  0.34030  0.28800  Biso   1.000  C
  C19      1.0000 0.00900  0.84030  0.21200  Biso   1.000  C
  C20      1.0000 0.00900  0.65970  0.71200  Biso   1.000  C
  C21      1.0000 0.64200  0.39220  0.93600  Biso   1.000  C
  C22      1.0000 0.64200  0.10780  0.43600  Biso   1.000  C
  C23      1.0000 0.35800  0.60780  0.06400  Biso   1.000  C
  C24      1.0000 0.35800  0.89220  0.56400  Biso   1.000  C
  O1       1.0000 0.73800  0.38770  0.01360  Biso   1.000  O
  O2       1.0000 0.73800  0.11230  0.51360  Biso   1.000  O
  O3       1.0000 0.26200  0.61230  0.98640  Biso   1.000  O
  O4       1.0000 0.26200  0.88770  0.48640  Biso   1.000  O
  H13      1.0000 0.67700  0.43480  0.04890  Biso   1.000  H
  H14      1.0000 0.67700  0.06520  0.54890  Biso   1.000  H
  H15      1.0000 0.32300  0.56520  0.95110  Biso   1.000  H
  H16      1.0000 0.32300  0.93480  0.45110  Biso   1.000  H
  O5       1.0000 0.47200  0.45820  0.90520  Biso   1.000  O
  O6       1.0000 0.47200  0.04180  0.40520  Biso   1.000  O
  O7       1.0000 0.52800  0.54180  0.09480  Biso   1.000  O
  O8       1.0000 0.52800  0.95820  0.59480  Biso   1.000  O
  C25      1.0000 0.12100  0.07820  0.73710  Biso   1.000  C
  C26      1.0000 0.12100  0.42180  0.23710  Biso   1.000  C
  C27      1.0000 0.87900  0.92180  0.26290  Biso   1.000  C
  C28      1.0000 0.87900  0.57820  0.76290  Biso   1.000  C
  H17      1.0000 0.22230  0.03050  0.77340  Biso   1.000  H
  H18      1.0000 0.22230  0.46950  0.27340  Biso   1.000  H
  H19      1.0000 0.77770  0.96950  0.22660  Biso   1.000  H
  H20      1.0000 0.77770  0.53050  0.72660  Biso   1.000  H
  H21      1.0000 0.94530  0.04820  0.70520  Biso   1.000  H
  H22      1.0000 0.94530  0.45180  0.20520  Biso   1.000  H
  H23      1.0000 0.05470  0.95180  0.29480  Biso   1.000  H
  H24      1.0000 0.05470  0.54820  0.79480  Biso   1.000  H
  H25      1.0000 0.27940  0.10350  0.70030  Biso   1.000  H
  H26      1.0000 0.27940  0.39650  0.20030  Biso   1.000  H
  H27      1.0000 0.72060  0.89650  0.29970  Biso   1.000  H
  H28      1.0000 0.72060  0.60350  0.79970  Biso   1.000  H
