data_image0
_cell_length_a       13.388
_cell_length_b       29.031
_cell_length_c       4.7706
_cell_angle_alpha    90
_cell_angle_beta     102.01
_cell_angle_gamma    90

_symmetry_space_group_name_H-M    "P 1"
_symmetry_int_tables_number       1

loop_
  _symmetry_equiv_pos_as_xyz
  'x, y, z'

loop_
  _atom_site_label
  _atom_site_occupancy
  _atom_site_fract_x
  _atom_site_fract_y
  _atom_site_fract_z
  _atom_site_thermal_displace_type
  _atom_site_B_iso_or_equiv
  _atom_site_type_symbol
  Cu1      1.0000 0.50000  0.10293  0.25000  Biso   1.000  Cu
  Cu2      1.0000 0.00000  0.60293  0.25000  Biso   1.000  Cu
  Cu3      1.0000 0.50000  0.89707  0.75000  Biso   1.000  Cu
  Cu4      1.0000 0.00000  0.39707  0.75000  Biso   1.000  Cu
  N1       1.0000 0.39530  0.11092  0.92150  Biso   1.000  N
  N2       1.0000 0.60470  0.11092  0.57850  Biso   1.000  N
  N3       1.0000 0.89530  0.61092  0.92150  Biso   1.000  N
  N4       1.0000 0.10470  0.61092  0.57850  Biso   1.000  N
  N5       1.0000 0.60470  0.88908  0.07850  Biso   1.000  N
  N6       1.0000 0.39530  0.88908  0.42150  Biso   1.000  N
  N7       1.0000 0.10470  0.38908  0.07850  Biso   1.000  N
  N8       1.0000 0.89530  0.38908  0.42150  Biso   1.000  N
  O1       1.0000 0.50450  0.01514  0.14080  Biso   1.000  O
  O2       1.0000 0.49550  0.01514  0.35920  Biso   1.000  O
  O3       1.0000 0.00450  0.51514  0.14080  Biso   1.000  O
  O4       1.0000 0.99550  0.51514  0.35920  Biso   1.000  O
  O5       1.0000 0.49550  0.98486  0.85920  Biso   1.000  O
  O6       1.0000 0.50450  0.98486  0.64080  Biso   1.000  O
  O7       1.0000 0.99550  0.48486  0.85920  Biso   1.000  O
  O8       1.0000 0.00450  0.48486  0.64080  Biso   1.000  O
  N9       1.0000 0.36400  0.07660  0.73160  Biso   1.000  N
  N10      1.0000 0.63600  0.07660  0.76840  Biso   1.000  N
  N11      1.0000 0.86400  0.57660  0.73160  Biso   1.000  N
  N12      1.0000 0.13600  0.57660  0.76840  Biso   1.000  N
  N13      1.0000 0.63600  0.92340  0.26840  Biso   1.000  N
  N14      1.0000 0.36400  0.92340  0.23160  Biso   1.000  N
  N15      1.0000 0.13600  0.42340  0.26840  Biso   1.000  N
  N16      1.0000 0.86400  0.42340  0.23160  Biso   1.000  N
  C1       1.0000 0.33060  0.14605  0.83560  Biso   1.000  C
  C2       1.0000 0.66940  0.14605  0.66440  Biso   1.000  C
  C3       1.0000 0.83060  0.64605  0.83560  Biso   1.000  C
  C4       1.0000 0.16940  0.64605  0.66440  Biso   1.000  C
  C5       1.0000 0.66940  0.85395  0.16440  Biso   1.000  C
  C6       1.0000 0.33060  0.85395  0.33560  Biso   1.000  C
  C7       1.0000 0.16940  0.35395  0.16440  Biso   1.000  C
  C8       1.0000 0.83060  0.35395  0.33560  Biso   1.000  C
  C9       1.0000 0.28290  0.08848  0.53280  Biso   1.000  C
  C10      1.0000 0.71710  0.08848  0.96720  Biso   1.000  C
  C11      1.0000 0.78290  0.58848  0.53280  Biso   1.000  C
  C12      1.0000 0.21710  0.58848  0.96720  Biso   1.000  C
  C13      1.0000 0.71710  0.91152  0.46720  Biso   1.000  C
  C14      1.0000 0.28290  0.91152  0.03280  Biso   1.000  C
  C15      1.0000 0.21710  0.41152  0.46720  Biso   1.000  C
  C16      1.0000 0.78290  0.41152  0.03280  Biso   1.000  C
  H1       1.0000 0.39100  0.05590  0.74000  Biso   1.000  H
  H2       1.0000 0.60900  0.05590  0.76000  Biso   1.000  H
  H3       1.0000 0.89100  0.55590  0.74000  Biso   1.000  H
  H4       1.0000 0.10900  0.55590  0.76000  Biso   1.000  H
  H5       1.0000 0.60900  0.94410  0.26000  Biso   1.000  H
  H6       1.0000 0.39100  0.94410  0.24000  Biso   1.000  H
  H7       1.0000 0.10900  0.44410  0.26000  Biso   1.000  H
  H8       1.0000 0.89100  0.44410  0.24000  Biso   1.000  H
  C17      1.0000 0.34390  0.19121  0.98850  Biso   1.000  C
  C18      1.0000 0.65610  0.19121  0.51150  Biso   1.000  C
  C19      1.0000 0.84390  0.69121  0.98850  Biso   1.000  C
  C20      1.0000 0.15610  0.69121  0.51150  Biso   1.000  C
  C21      1.0000 0.65610  0.80879  0.01150  Biso   1.000  C
  C22      1.0000 0.34390  0.80879  0.48850  Biso   1.000  C
  C23      1.0000 0.15610  0.30879  0.01150  Biso   1.000  C
  C24      1.0000 0.84390  0.30879  0.48850  Biso   1.000  C
  C25      1.0000 0.25720  0.13353  0.59160  Biso   1.000  C
  C26      1.0000 0.74280  0.13353  0.90840  Biso   1.000  C
  C27      1.0000 0.75720  0.63353  0.59160  Biso   1.000  C
  C28      1.0000 0.24280  0.63353  0.90840  Biso   1.000  C
  C29      1.0000 0.74280  0.86647  0.40840  Biso   1.000  C
  C30      1.0000 0.25720  0.86647  0.09160  Biso   1.000  C
  C31      1.0000 0.24280  0.36647  0.40840  Biso   1.000  C
  C32      1.0000 0.75720  0.36647  0.09160  Biso   1.000  C
  C33      1.0000 0.23470  0.05587  0.29970  Biso   1.000  C
  C34      1.0000 0.76530  0.05587  0.20030  Biso   1.000  C
  C35      1.0000 0.73470  0.55587  0.29970  Biso   1.000  C
  C36      1.0000 0.26530  0.55587  0.20030  Biso   1.000  C
  C37      1.0000 0.76530  0.94413  0.70030  Biso   1.000  C
  C38      1.0000 0.23470  0.94413  0.79970  Biso   1.000  C
  C39      1.0000 0.26530  0.44413  0.70030  Biso   1.000  C
  C40      1.0000 0.73470  0.44413  0.79970  Biso   1.000  C
  H9       1.0000 0.38440  0.18680  0.18290  Biso   1.000  H
  H10      1.0000 0.61560  0.18680  0.31710  Biso   1.000  H
  H11      1.0000 0.88440  0.68680  0.18290  Biso   1.000  H
  H12      1.0000 0.11560  0.68680  0.31710  Biso   1.000  H
  H13      1.0000 0.61560  0.81320  0.81710  Biso   1.000  H
  H14      1.0000 0.38440  0.81320  0.68290  Biso   1.000  H
  H15      1.0000 0.11560  0.31320  0.81710  Biso   1.000  H
  H16      1.0000 0.88440  0.31320  0.68290  Biso   1.000  H
  H17      1.0000 0.27680  0.20380  0.99890  Biso   1.000  H
  H18      1.0000 0.72320  0.20380  0.50110  Biso   1.000  H
  H19      1.0000 0.77680  0.70380  0.99890  Biso   1.000  H
  H20      1.0000 0.22320  0.70380  0.50110  Biso   1.000  H
  H21      1.0000 0.72320  0.79620  0.00110  Biso   1.000  H
  H22      1.0000 0.27680  0.79620  0.49890  Biso   1.000  H
  H23      1.0000 0.22320  0.29620  0.00110  Biso   1.000  H
  H24      1.0000 0.77680  0.29620  0.49890  Biso   1.000  H
  H25      1.0000 0.37930  0.21270  0.88430  Biso   1.000  H
  H26      1.0000 0.62070  0.21270  0.61570  Biso   1.000  H
  H27      1.0000 0.87930  0.71270  0.88430  Biso   1.000  H
  H28      1.0000 0.12070  0.71270  0.61570  Biso   1.000  H
  H29      1.0000 0.62070  0.78730  0.11570  Biso   1.000  H
  H30      1.0000 0.37930  0.78730  0.38430  Biso   1.000  H
  H31      1.0000 0.12070  0.28730  0.11570  Biso   1.000  H
  H32      1.0000 0.87930  0.28730  0.38430  Biso   1.000  H
  C41      1.0000 0.16820  0.16168  0.44220  Biso   1.000  C
  C42      1.0000 0.83180  0.16168  0.05780  Biso   1.000  C
  C43      1.0000 0.66820  0.66168  0.44220  Biso   1.000  C
  C44      1.0000 0.33180  0.66168  0.05780  Biso   1.000  C
  C45      1.0000 0.83180  0.83832  0.55780  Biso   1.000  C
  C46      1.0000 0.16820  0.83832  0.94220  Biso   1.000  C
  C47      1.0000 0.33180  0.33832  0.55780  Biso   1.000  C
  C48      1.0000 0.66820  0.33832  0.94220  Biso   1.000  C
  H33      1.0000 0.28370  0.03170  0.27840  Biso   1.000  H
  H34      1.0000 0.71630  0.03170  0.22160  Biso   1.000  H
  H35      1.0000 0.78370  0.53170  0.27840  Biso   1.000  H
  H36      1.0000 0.21630  0.53170  0.22160  Biso   1.000  H
  H37      1.0000 0.71630  0.96830  0.72160  Biso   1.000  H
  H38      1.0000 0.28370  0.96830  0.77840  Biso   1.000  H
  H39      1.0000 0.21630  0.46830  0.72160  Biso   1.000  H
  H40      1.0000 0.78370  0.46830  0.77840  Biso   1.000  H
  H41      1.0000 0.21460  0.07280  0.11890  Biso   1.000  H
  H42      1.0000 0.78540  0.07280  0.38110  Biso   1.000  H
  H43      1.0000 0.71460  0.57280  0.11890  Biso   1.000  H
  H44      1.0000 0.28540  0.57280  0.38110  Biso   1.000  H
  H45      1.0000 0.78540  0.92720  0.88110  Biso   1.000  H
  H46      1.0000 0.21460  0.92720  0.61890  Biso   1.000  H
  H47      1.0000 0.28540  0.42720  0.88110  Biso   1.000  H
  H48      1.0000 0.71460  0.42720  0.61890  Biso   1.000  H
  H49      1.0000 0.17410  0.04180  0.34950  Biso   1.000  H
  H50      1.0000 0.82590  0.04180  0.15050  Biso   1.000  H
  H51      1.0000 0.67410  0.54180  0.34950  Biso   1.000  H
  H52      1.0000 0.32590  0.54180  0.15050  Biso   1.000  H
  H53      1.0000 0.82590  0.95820  0.65050  Biso   1.000  H
  H54      1.0000 0.17410  0.95820  0.84950  Biso   1.000  H
  H55      1.0000 0.32590  0.45820  0.65050  Biso   1.000  H
  H56      1.0000 0.67410  0.45820  0.84950  Biso   1.000  H
  H57      1.0000 0.14300  0.14910  0.24750  Biso   1.000  H
  H58      1.0000 0.85700  0.14910  0.25250  Biso   1.000  H
  H59      1.0000 0.64300  0.64910  0.24750  Biso   1.000  H
  H60      1.0000 0.35700  0.64910  0.25250  Biso   1.000  H
  H61      1.0000 0.85700  0.85090  0.75250  Biso   1.000  H
  H62      1.0000 0.14300  0.85090  0.74750  Biso   1.000  H
  H63      1.0000 0.35700  0.35090  0.75250  Biso   1.000  H
  H64      1.0000 0.64300  0.35090  0.74750  Biso   1.000  H
  H65      1.0000 0.19120  0.19370  0.42170  Biso   1.000  H
  H66      1.0000 0.80880  0.19370  0.07830  Biso   1.000  H
  H67      1.0000 0.69120  0.69370  0.42170  Biso   1.000  H
  H68      1.0000 0.30880  0.69370  0.07830  Biso   1.000  H
  H69      1.0000 0.80880  0.80630  0.57830  Biso   1.000  H
  H70      1.0000 0.19120  0.80630  0.92170  Biso   1.000  H
  H71      1.0000 0.30880  0.30630  0.57830  Biso   1.000  H
  H72      1.0000 0.69120  0.30630  0.92170  Biso   1.000  H
  C49      1.0000 0.08120  0.16218  0.60170  Biso   1.000  C
  C50      1.0000 0.91880  0.16218  0.89830  Biso   1.000  C
  C51      1.0000 0.58120  0.66218  0.60170  Biso   1.000  C
  C52      1.0000 0.41880  0.66218  0.89830  Biso   1.000  C
  C53      1.0000 0.91880  0.83782  0.39830  Biso   1.000  C
  C54      1.0000 0.08120  0.83782  0.10170  Biso   1.000  C
  C55      1.0000 0.41880  0.33782  0.39830  Biso   1.000  C
  C56      1.0000 0.58120  0.33782  0.10170  Biso   1.000  C
  C57      1.0000 0.03980  0.12081  0.67790  Biso   1.000  C
  C58      1.0000 0.96020  0.12081  0.82210  Biso   1.000  C
  C59      1.0000 0.53980  0.62081  0.67790  Biso   1.000  C
  C60      1.0000 0.46020  0.62081  0.82210  Biso   1.000  C
  C61      1.0000 0.96020  0.87919  0.32210  Biso   1.000  C
  C62      1.0000 0.03980  0.87919  0.17790  Biso   1.000  C
  C63      1.0000 0.46020  0.37919  0.32210  Biso   1.000  C
  C64      1.0000 0.53980  0.37919  0.17790  Biso   1.000  C
  C65      1.0000 0.03990  0.20299  0.67620  Biso   1.000  C
  C66      1.0000 0.96010  0.20299  0.82380  Biso   1.000  C
  C67      1.0000 0.53990  0.70299  0.67620  Biso   1.000  C
  C68      1.0000 0.46010  0.70299  0.82380  Biso   1.000  C
  C69      1.0000 0.96010  0.79701  0.32380  Biso   1.000  C
  C70      1.0000 0.03990  0.79701  0.17620  Biso   1.000  C
  C71      1.0000 0.46010  0.29701  0.32380  Biso   1.000  C
  C72      1.0000 0.53990  0.29701  0.17620  Biso   1.000  C
  H73      1.0000 0.06680  0.09230  0.62970  Biso   1.000  H
  H74      1.0000 0.93320  0.09230  0.87030  Biso   1.000  H
  H75      1.0000 0.56680  0.59230  0.62970  Biso   1.000  H
  H76      1.0000 0.43320  0.59230  0.87030  Biso   1.000  H
  H77      1.0000 0.93320  0.90770  0.37030  Biso   1.000  H
  H78      1.0000 0.06680  0.90770  0.12970  Biso   1.000  H
  H79      1.0000 0.43320  0.40770  0.37030  Biso   1.000  H
  H80      1.0000 0.56680  0.40770  0.12970  Biso   1.000  H
  H81      1.0000 0.06620  0.23150  0.62590  Biso   1.000  H
  H82      1.0000 0.93380  0.23150  0.87410  Biso   1.000  H
  H83      1.0000 0.56620  0.73150  0.62590  Biso   1.000  H
  H84      1.0000 0.43380  0.73150  0.87410  Biso   1.000  H
  H85      1.0000 0.93380  0.76850  0.37410  Biso   1.000  H
  H86      1.0000 0.06620  0.76850  0.12590  Biso   1.000  H
  H87      1.0000 0.43380  0.26850  0.37410  Biso   1.000  H
  H88      1.0000 0.56620  0.26850  0.12590  Biso   1.000  H
  Cl1      1.0000 0.00000  0.00000  0.00000  Biso   1.000  Cl
  Cl2      1.0000 0.00000  0.00000  0.50000  Biso   1.000  Cl
  Cl3      1.0000 0.50000  0.50000  0.00000  Biso   1.000  Cl
  Cl4      1.0000 0.50000  0.50000  0.50000  Biso   1.000  Cl
  Cl5      1.0000 0.00370  0.99970  0.37000  Biso   1.000  Cl
  Cl6      1.0000 0.99630  0.99970  0.13000  Biso   1.000  Cl
  Cl7      1.0000 0.50370  0.49970  0.37000  Biso   1.000  Cl
  Cl8      1.0000 0.49630  0.49970  0.13000  Biso   1.000  Cl
  Cl9      1.0000 0.99630  0.00030  0.63000  Biso   1.000  Cl
  Cl10     1.0000 0.00370  0.00030  0.87000  Biso   1.000  Cl
  Cl11     1.0000 0.49630  0.50030  0.63000  Biso   1.000  Cl
  Cl12     1.0000 0.50370  0.50030  0.87000  Biso   1.000  Cl
