data_image0
_cell_length_a       5.576
_cell_length_b       19.473
_cell_length_c       6.039
_cell_angle_alpha    90
_cell_angle_beta     93.05
_cell_angle_gamma    90

_symmetry_space_group_name_H-M    "P 1"
_symmetry_int_tables_number       1

loop_
  _symmetry_equiv_pos_as_xyz
  'x, y, z'

loop_
  _atom_site_label
  _atom_site_occupancy
  _atom_site_fract_x
  _atom_site_fract_y
  _atom_site_fract_z
  _atom_site_thermal_displace_type
  _atom_site_B_iso_or_equiv
  _atom_site_type_symbol
  Cu1      1.0000 0.39870  0.00000  0.49960  Biso   1.000  Cu
  Cu2      1.0000 0.89870  0.50000  0.49960  Biso   1.000  Cu
  N1       1.0000 0.49950  0.00000  0.19710  Biso   1.000  N
  N2       1.0000 0.99950  0.50000  0.19710  Biso   1.000  N
  S1       1.0000 0.70280  0.00000  0.78170  Biso   1.000  S
  S2       1.0000 0.20280  0.50000  0.78170  Biso   1.000  S
  C1       1.0000 0.57740  0.00000  0.03070  Biso   1.000  C
  C2       1.0000 0.07740  0.50000  0.03070  Biso   1.000  C
  N3       1.0000 0.86380  0.19380  0.62600  Biso   1.000  N
  N4       1.0000 0.86380  0.80620  0.62600  Biso   1.000  N
  N5       1.0000 0.36380  0.69380  0.62600  Biso   1.000  N
  N6       1.0000 0.36380  0.30620  0.62600  Biso   1.000  N
  N7       1.0000 0.18200  0.08620  0.54200  Biso   1.000  N
  N8       1.0000 0.18200  0.91380  0.54200  Biso   1.000  N
  N9       1.0000 0.68200  0.58620  0.54200  Biso   1.000  N
  N10      1.0000 0.68200  0.41380  0.54200  Biso   1.000  N
  C3       1.0000 0.84670  0.15820  0.44560  Biso   1.000  C
  C4       1.0000 0.84670  0.84180  0.44560  Biso   1.000  C
  C5       1.0000 0.34670  0.65820  0.44560  Biso   1.000  C
  C6       1.0000 0.34670  0.34180  0.44560  Biso   1.000  C
  C7       1.0000 0.64460  0.17350  0.27920  Biso   1.000  C
  C8       1.0000 0.64460  0.82650  0.27920  Biso   1.000  C
  C9       1.0000 0.14460  0.67350  0.27920  Biso   1.000  C
  C10      1.0000 0.14460  0.32650  0.27920  Biso   1.000  C
  N11      1.0000 0.49430  0.18840  0.16160  Biso   1.000  N
  N12      1.0000 0.49430  0.81160  0.16160  Biso   1.000  N
  N13      1.0000 0.99430  0.68840  0.16160  Biso   1.000  N
  N14      1.0000 0.99430  0.31160  0.16160  Biso   1.000  N
  C11      1.0000 0.00140  0.10440  0.39910  Biso   1.000  C
  C12      1.0000 0.00140  0.89560  0.39910  Biso   1.000  C
  C13      1.0000 0.50140  0.60440  0.39910  Biso   1.000  C
  C14      1.0000 0.50140  0.39560  0.39910  Biso   1.000  C
  H1       1.0000 0.97860  0.08070  0.26590  Biso   1.000  H
  H2       1.0000 0.97860  0.91930  0.26590  Biso   1.000  H
  H3       1.0000 0.47860  0.58070  0.26590  Biso   1.000  H
  H4       1.0000 0.47860  0.41930  0.26590  Biso   1.000  H
  C15      1.0000 0.20420  0.12490  0.73070  Biso   1.000  C
  C16      1.0000 0.20420  0.87510  0.73070  Biso   1.000  C
  C17      1.0000 0.70420  0.62490  0.73070  Biso   1.000  C
  C18      1.0000 0.70420  0.37510  0.73070  Biso   1.000  C
  H5       1.0000 0.32770  0.11600  0.83640  Biso   1.000  H
  H6       1.0000 0.32770  0.88400  0.83640  Biso   1.000  H
  H7       1.0000 0.82770  0.61600  0.83640  Biso   1.000  H
  H8       1.0000 0.82770  0.38400  0.83640  Biso   1.000  H
  C19      1.0000 0.03860  0.17870  0.76530  Biso   1.000  C
  C20      1.0000 0.03860  0.82130  0.76530  Biso   1.000  C
  C21      1.0000 0.53860  0.67870  0.76530  Biso   1.000  C
  C22      1.0000 0.53860  0.32130  0.76530  Biso   1.000  C
  H9       1.0000 0.05730  0.20430  0.89510  Biso   1.000  H
  H10      1.0000 0.05730  0.79570  0.89510  Biso   1.000  H
  H11      1.0000 0.55730  0.70430  0.89510  Biso   1.000  H
  H12      1.0000 0.55730  0.29570  0.89510  Biso   1.000  H
