data_image0
_cell_length_a       5.728
_cell_length_b       8.023
_cell_length_c       12.491
_cell_angle_alpha    75.05
_cell_angle_beta     81.27
_cell_angle_gamma    71.3

_symmetry_space_group_name_H-M    "P 1"
_symmetry_int_tables_number       1

loop_
  _symmetry_equiv_pos_as_xyz
  'x, y, z'

loop_
  _atom_site_label
  _atom_site_occupancy
  _atom_site_fract_x
  _atom_site_fract_y
  _atom_site_fract_z
  _atom_site_thermal_displace_type
  _atom_site_B_iso_or_equiv
  _atom_site_type_symbol
  Cu1      1.0000 0.92740  0.01780  0.18680  Biso   1.000  Cu
  Cu2      1.0000 0.07260  0.98220  0.81320  Biso   1.000  Cu
  Cu3      1.0000 0.97320  0.31010  0.26970  Biso   1.000  Cu
  Cu4      1.0000 0.02680  0.68990  0.73030  Biso   1.000  Cu
  S1       1.0000 0.78420  0.08920  0.38660  Biso   1.000  S
  S2       1.0000 0.21580  0.91080  0.61340  Biso   1.000  S
  S3       1.0000 0.11550  0.24440  0.08110  Biso   1.000  S
  S4       1.0000 0.88450  0.75560  0.91890  Biso   1.000  S
  N1       1.0000 0.61410  0.07720  0.12590  Biso   1.000  N
  N2       1.0000 0.38590  0.92280  0.87410  Biso   1.000  N
  N3       1.0000 0.28850  0.25620  0.33150  Biso   1.000  N
  N4       1.0000 0.71150  0.74380  0.66850  Biso   1.000  N
  C1       1.0000 0.49660  0.18610  0.35740  Biso   1.000  C
  C2       1.0000 0.50340  0.81390  0.64260  Biso   1.000  C
  C3       1.0000 0.41130  0.13820  0.10810  Biso   1.000  C
  C4       1.0000 0.58870  0.86180  0.89190  Biso   1.000  C
  N5       1.0000 0.68040  0.52760  0.24250  Biso   1.000  N
  N6       1.0000 0.31960  0.47240  0.75750  Biso   1.000  N
  N7       1.0000 0.22230  0.79450  0.22140  Biso   1.000  N
  N8       1.0000 0.77770  0.20550  0.77860  Biso   1.000  N
  C5       1.0000 0.58730  0.63710  0.31700  Biso   1.000  C
  C6       1.0000 0.41270  0.36290  0.68300  Biso   1.000  C
  C7       1.0000 0.73990  0.61130  0.40820  Biso   1.000  C
  C8       1.0000 0.26010  0.38870  0.59180  Biso   1.000  C
  H1       1.0000 0.72600  0.50700  0.46460  Biso   1.000  H
  H2       1.0000 0.27400  0.49300  0.53540  Biso   1.000  H
  H3       1.0000 0.68400  0.71620  0.43940  Biso   1.000  H
  H4       1.0000 0.31600  0.28380  0.56060  Biso   1.000  H
  H5       1.0000 0.90960  0.59300  0.38000  Biso   1.000  H
  H6       1.0000 0.09040  0.40700  0.62000  Biso   1.000  H
  C9       1.0000 0.36080  0.77030  0.30450  Biso   1.000  C
  C10      1.0000 0.63920  0.22970  0.69550  Biso   1.000  C
  H7       1.0000 0.30440  0.84430  0.35510  Biso   1.000  H
  H8       1.0000 0.69560  0.15570  0.64490  Biso   1.000  H
  C11      1.0000 0.30420  0.69230  0.15140  Biso   1.000  C
  C12      1.0000 0.69580  0.30770  0.84860  Biso   1.000  C
  H9       1.0000 0.20970  0.70710  0.09350  Biso   1.000  H
  H10      1.0000 0.79030  0.29290  0.90650  Biso   1.000  H
  C13      1.0000 0.52640  0.56330  0.16090  Biso   1.000  C
  C14      1.0000 0.47360  0.43670  0.83910  Biso   1.000  C
  H11      1.0000 0.57740  0.49400  0.10770  Biso   1.000  H
  H12      1.0000 0.42260  0.50600  0.89230  Biso   1.000  H
