data_image0
_cell_length_a       17.622
_cell_length_b       9.022
_cell_length_c       7.5203
_cell_angle_alpha    90
_cell_angle_beta     90
_cell_angle_gamma    90

_symmetry_space_group_name_H-M    "P 1"
_symmetry_int_tables_number       1

loop_
  _symmetry_equiv_pos_as_xyz
  'x, y, z'

loop_
  _atom_site_label
  _atom_site_occupancy
  _atom_site_fract_x
  _atom_site_fract_y
  _atom_site_fract_z
  _atom_site_thermal_displace_type
  _atom_site_B_iso_or_equiv
  _atom_site_type_symbol
  Cu1      1.0000 0.25000  0.32068  0.48804  Biso   1.000  Cu
  Cu2      1.0000 0.75000  0.67932  0.48804  Biso   1.000  Cu
  Cu3      1.0000 0.25000  0.82068  0.98804  Biso   1.000  Cu
  Cu4      1.0000 0.75000  0.17932  0.98804  Biso   1.000  Cu
  S1       1.0000 0.25000  0.32206  0.17390  Biso   1.000  S
  S2       1.0000 0.75000  0.67794  0.17390  Biso   1.000  S
  S3       1.0000 0.25000  0.82206  0.67390  Biso   1.000  S
  S4       1.0000 0.75000  0.17794  0.67390  Biso   1.000  S
  N1       1.0000 0.25000  0.62610  0.09180  Biso   1.000  N
  N2       1.0000 0.75000  0.37390  0.09180  Biso   1.000  N
  N3       1.0000 0.25000  0.12610  0.59180  Biso   1.000  N
  N4       1.0000 0.75000  0.87390  0.59180  Biso   1.000  N
  C1       1.0000 0.25000  0.50030  0.12920  Biso   1.000  C
  C2       1.0000 0.75000  0.49970  0.12920  Biso   1.000  C
  C3       1.0000 0.25000  0.00030  0.62920  Biso   1.000  C
  C4       1.0000 0.75000  0.99970  0.62920  Biso   1.000  C
  N5       1.0000 0.15630  0.45170  0.56740  Biso   1.000  N
  N6       1.0000 0.84370  0.54830  0.56740  Biso   1.000  N
  N7       1.0000 0.65630  0.54830  0.56740  Biso   1.000  N
  N8       1.0000 0.34370  0.45170  0.56740  Biso   1.000  N
  N9       1.0000 0.15630  0.95170  0.06740  Biso   1.000  N
  N10      1.0000 0.84370  0.04830  0.06740  Biso   1.000  N
  N11      1.0000 0.65630  0.04830  0.06740  Biso   1.000  N
  N12      1.0000 0.34370  0.95170  0.06740  Biso   1.000  N
  N13      1.0000 0.06681  0.63320  0.49380  Biso   1.000  N
  N14      1.0000 0.93319  0.36680  0.49380  Biso   1.000  N
  N15      1.0000 0.56681  0.36680  0.49380  Biso   1.000  N
  N16      1.0000 0.43319  0.63320  0.49380  Biso   1.000  N
  N17      1.0000 0.06681  0.13320  0.99380  Biso   1.000  N
  N18      1.0000 0.93319  0.86680  0.99380  Biso   1.000  N
  N19      1.0000 0.56681  0.86680  0.99380  Biso   1.000  N
  N20      1.0000 0.43319  0.13320  0.99380  Biso   1.000  N
  C5       1.0000 0.11810  0.52830  0.45190  Biso   1.000  C
  C6       1.0000 0.88190  0.47170  0.45190  Biso   1.000  C
  C7       1.0000 0.61810  0.47170  0.45190  Biso   1.000  C
  C8       1.0000 0.38190  0.52830  0.45190  Biso   1.000  C
  C9       1.0000 0.11810  0.02830  0.95190  Biso   1.000  C
  C10      1.0000 0.88190  0.97170  0.95190  Biso   1.000  C
  C11      1.0000 0.61810  0.97170  0.95190  Biso   1.000  C
  C12      1.0000 0.38190  0.02830  0.95190  Biso   1.000  C
  H1       1.0000 0.12670  0.50930  0.33210  Biso   1.000  H
  H2       1.0000 0.87330  0.49070  0.33210  Biso   1.000  H
  H3       1.0000 0.62670  0.49070  0.33210  Biso   1.000  H
  H4       1.0000 0.37330  0.50930  0.33210  Biso   1.000  H
  H5       1.0000 0.12670  0.00930  0.83210  Biso   1.000  H
  H6       1.0000 0.87330  0.99070  0.83210  Biso   1.000  H
  H7       1.0000 0.62670  0.99070  0.83210  Biso   1.000  H
  H8       1.0000 0.37330  0.00930  0.83210  Biso   1.000  H
  C13      1.0000 0.05090  0.67230  0.66720  Biso   1.000  C
  C14      1.0000 0.94910  0.32770  0.66720  Biso   1.000  C
  C15      1.0000 0.55090  0.32770  0.66720  Biso   1.000  C
  C16      1.0000 0.44910  0.67230  0.66720  Biso   1.000  C
  C17      1.0000 0.05090  0.17230  0.16720  Biso   1.000  C
  C18      1.0000 0.94910  0.82770  0.16720  Biso   1.000  C
  C19      1.0000 0.55090  0.82770  0.16720  Biso   1.000  C
  C20      1.0000 0.44910  0.17230  0.16720  Biso   1.000  C
  O1       1.0000 0.00500  0.77450  0.69470  Biso   1.000  O
  O2       1.0000 0.99500  0.22550  0.69470  Biso   1.000  O
  O3       1.0000 0.50500  0.22550  0.69470  Biso   1.000  O
  O4       1.0000 0.49500  0.77450  0.69470  Biso   1.000  O
  O5       1.0000 0.00500  0.27450  0.19470  Biso   1.000  O
  O6       1.0000 0.99500  0.72550  0.19470  Biso   1.000  O
  O7       1.0000 0.50500  0.72550  0.19470  Biso   1.000  O
  O8       1.0000 0.49500  0.27450  0.19470  Biso   1.000  O
  H9       1.0000 0.96490  0.73980  0.73080  Biso   1.000  H
  H10      1.0000 0.03510  0.26020  0.73080  Biso   1.000  H
  H11      1.0000 0.46490  0.26020  0.73080  Biso   1.000  H
  H12      1.0000 0.53510  0.73980  0.73080  Biso   1.000  H
  H13      1.0000 0.96490  0.23980  0.23080  Biso   1.000  H
  H14      1.0000 0.03510  0.76020  0.23080  Biso   1.000  H
  H15      1.0000 0.46490  0.76020  0.23080  Biso   1.000  H
  H16      1.0000 0.53510  0.23980  0.23080  Biso   1.000  H
  C21      1.0000 0.08960  0.58490  0.79690  Biso   1.000  C
  C22      1.0000 0.91040  0.41510  0.79690  Biso   1.000  C
  C23      1.0000 0.58960  0.41510  0.79690  Biso   1.000  C
  C24      1.0000 0.41040  0.58490  0.79690  Biso   1.000  C
  C25      1.0000 0.08960  0.08490  0.29690  Biso   1.000  C
  C26      1.0000 0.91040  0.91510  0.29690  Biso   1.000  C
  C27      1.0000 0.58960  0.91510  0.29690  Biso   1.000  C
  C28      1.0000 0.41040  0.08490  0.29690  Biso   1.000  C
  H17      1.0000 0.08040  0.59940  0.91750  Biso   1.000  H
  H18      1.0000 0.91960  0.40060  0.91750  Biso   1.000  H
  H19      1.0000 0.58040  0.40060  0.91750  Biso   1.000  H
  H20      1.0000 0.41960  0.59940  0.91750  Biso   1.000  H
  H21      1.0000 0.08040  0.09940  0.41750  Biso   1.000  H
  H22      1.0000 0.91960  0.90060  0.41750  Biso   1.000  H
  H23      1.0000 0.58040  0.90060  0.41750  Biso   1.000  H
  H24      1.0000 0.41960  0.09940  0.41750  Biso   1.000  H
  C29      1.0000 0.13980  0.48100  0.74250  Biso   1.000  C
  C30      1.0000 0.86020  0.51900  0.74250  Biso   1.000  C
  C31      1.0000 0.63980  0.51900  0.74250  Biso   1.000  C
  C32      1.0000 0.36020  0.48100  0.74250  Biso   1.000  C
  C33      1.0000 0.13980  0.98100  0.24250  Biso   1.000  C
  C34      1.0000 0.86020  0.01900  0.24250  Biso   1.000  C
  C35      1.0000 0.63980  0.01900  0.24250  Biso   1.000  C
  C36      1.0000 0.36020  0.98100  0.24250  Biso   1.000  C
  H25      1.0000 0.16470  0.42570  0.82910  Biso   1.000  H
  H26      1.0000 0.83530  0.57430  0.82910  Biso   1.000  H
  H27      1.0000 0.66470  0.57430  0.82910  Biso   1.000  H
  H28      1.0000 0.33530  0.42570  0.82910  Biso   1.000  H
  H29      1.0000 0.16470  0.92570  0.32910  Biso   1.000  H
  H30      1.0000 0.83530  0.07430  0.32910  Biso   1.000  H
  H31      1.0000 0.66470  0.07430  0.32910  Biso   1.000  H
  H32      1.0000 0.33530  0.92570  0.32910  Biso   1.000  H
