data_image0
_cell_length_a       3.824
_cell_length_b       8.616
_cell_length_c       20.919
_cell_angle_alpha    90
_cell_angle_beta     90.12
_cell_angle_gamma    90

_symmetry_space_group_name_H-M    "P 1"
_symmetry_int_tables_number       1

loop_
  _symmetry_equiv_pos_as_xyz
  'x, y, z'

loop_
  _atom_site_label
  _atom_site_occupancy
  _atom_site_fract_x
  _atom_site_fract_y
  _atom_site_fract_z
  _atom_site_thermal_displace_type
  _atom_site_B_iso_or_equiv
  _atom_site_type_symbol
  Cu1      1.0000 0.57320  0.67630  0.40288  Biso   1.000  Cu
  Cu2      1.0000 0.57320  0.32370  0.90288  Biso   1.000  Cu
  Cu3      1.0000 0.07620  0.26410  0.43090  Biso   1.000  Cu
  Cu4      1.0000 0.07620  0.73590  0.93090  Biso   1.000  Cu
  Cu5      1.0000 0.07330  0.44400  0.16227  Biso   1.000  Cu
  Cu6      1.0000 0.07330  0.55600  0.66227  Biso   1.000  Cu
  S1       1.0000 0.07340  0.53110  0.43660  Biso   1.000  S
  S2       1.0000 0.07340  0.46890  0.93660  Biso   1.000  S
  S3       1.0000 0.57440  0.18040  0.48980  Biso   1.000  S
  S4       1.0000 0.57440  0.81960  0.98980  Biso   1.000  S
  S5       1.0000 0.56930  0.60890  0.17770  Biso   1.000  S
  S6       1.0000 0.56930  0.39110  0.67770  Biso   1.000  S
  N1       1.0000 0.07450  0.58090  0.57120  Biso   1.000  N
  N2       1.0000 0.07450  0.41910  0.07120  Biso   1.000  N
  N3       1.0000 0.58450  0.87460  0.44710  Biso   1.000  N
  N4       1.0000 0.58450  0.12540  0.94710  Biso   1.000  N
  N5       1.0000 0.57700  0.65840  0.31130  Biso   1.000  N
  N6       1.0000 0.57700  0.34160  0.81130  Biso   1.000  N
  C1       1.0000 0.07500  0.55840  0.51740  Biso   1.000  C
  C2       1.0000 0.07500  0.44160  0.01740  Biso   1.000  C
  C3       1.0000 0.57630  0.99620  0.46370  Biso   1.000  C
  C4       1.0000 0.57630  0.00380  0.96370  Biso   1.000  C
  C5       1.0000 0.56690  0.63390  0.25790  Biso   1.000  C
  C6       1.0000 0.56690  0.36610  0.75790  Biso   1.000  C
  N7       1.0000 0.07520  0.19320  0.33780  Biso   1.000  N
  N8       1.0000 0.07520  0.80680  0.83780  Biso   1.000  N
  N9       1.0000 0.08230  0.25930  0.22700  Biso   1.000  N
  N10      1.0000 0.08230  0.74070  0.72700  Biso   1.000  N
  C7       1.0000 0.07710  0.29600  0.29090  Biso   1.000  C
  C8       1.0000 0.07710  0.70400  0.79090  Biso   1.000  C
  H1       1.0000 0.07470  0.40060  0.30190  Biso   1.000  H
  H2       1.0000 0.07470  0.59940  0.80190  Biso   1.000  H
  C9       1.0000 0.07010  0.11360  0.21030  Biso   1.000  C
  C10      1.0000 0.07010  0.88640  0.71030  Biso   1.000  C
  C11      1.0000 0.11900  0.07100  0.14060  Biso   1.000  C
  C12      1.0000 0.11900  0.92900  0.64060  Biso   1.000  C
  H3       1.0000 0.90500  0.08900  0.11770  Biso   1.000  H
  H4       1.0000 0.90500  0.91100  0.61770  Biso   1.000  H
  H5       1.0000 0.30100  0.13400  0.12250  Biso   1.000  H
  H6       1.0000 0.30100  0.86600  0.62250  Biso   1.000  H
  H7       1.0000 0.18300  0.96350  0.13740  Biso   1.000  H
  H8       1.0000 0.18300  0.03650  0.63740  Biso   1.000  H
  C13      1.0000 0.07060  0.00420  0.25630  Biso   1.000  C
  C14      1.0000 0.07060  0.99580  0.75630  Biso   1.000  C
  H9       1.0000 0.06830  0.90010  0.24450  Biso   1.000  H
  H10      1.0000 0.06830  0.09990  0.74450  Biso   1.000  H
  C15      1.0000 0.07410  0.04180  0.32040  Biso   1.000  C
  C16      1.0000 0.07410  0.95820  0.82040  Biso   1.000  C
  H11      1.0000 0.07580  0.96410  0.35120  Biso   1.000  H
  H12      1.0000 0.07580  0.03590  0.85120  Biso   1.000  H
