data_image0
_cell_length_a       5.729
_cell_length_b       7.0037
_cell_length_c       31.751
_cell_angle_alpha    90
_cell_angle_beta     90
_cell_angle_gamma    90

_symmetry_space_group_name_H-M    "P 1"
_symmetry_int_tables_number       1

loop_
  _symmetry_equiv_pos_as_xyz
  'x, y, z'

loop_
  _atom_site_label
  _atom_site_occupancy
  _atom_site_fract_x
  _atom_site_fract_y
  _atom_site_fract_z
  _atom_site_thermal_displace_type
  _atom_site_B_iso_or_equiv
  _atom_site_type_symbol
  Cu1      1.0000 0.04973  0.37303  0.27149  Biso   1.000  Cu
  Cu2      1.0000 0.45027  0.62697  0.77149  Biso   1.000  Cu
  Cu3      1.0000 0.54973  0.12697  0.72851  Biso   1.000  Cu
  Cu4      1.0000 0.95027  0.87303  0.22851  Biso   1.000  Cu
  Cu5      1.0000 0.95027  0.62697  0.72851  Biso   1.000  Cu
  Cu6      1.0000 0.54973  0.37303  0.22851  Biso   1.000  Cu
  Cu7      1.0000 0.45027  0.87303  0.27149  Biso   1.000  Cu
  Cu8      1.0000 0.04973  0.12697  0.77149  Biso   1.000  Cu
  S1       1.0000 0.07900  0.04992  0.28402  Biso   1.000  S
  S2       1.0000 0.42100  0.95008  0.78402  Biso   1.000  S
  S3       1.0000 0.57900  0.45008  0.71598  Biso   1.000  S
  S4       1.0000 0.92100  0.54992  0.21598  Biso   1.000  S
  S5       1.0000 0.92100  0.95008  0.71598  Biso   1.000  S
  S6       1.0000 0.57900  0.04992  0.21598  Biso   1.000  S
  S7       1.0000 0.42100  0.54992  0.28402  Biso   1.000  S
  S8       1.0000 0.07900  0.45008  0.78402  Biso   1.000  S
  C1       1.0000 0.95050  0.07140  0.36994  Biso   1.000  C
  C2       1.0000 0.54950  0.92860  0.86994  Biso   1.000  C
  C3       1.0000 0.45050  0.42860  0.63006  Biso   1.000  C
  C4       1.0000 0.04950  0.57140  0.13006  Biso   1.000  C
  C5       1.0000 0.04950  0.92860  0.63006  Biso   1.000  C
  C6       1.0000 0.45050  0.07140  0.13006  Biso   1.000  C
  C7       1.0000 0.54950  0.57140  0.36994  Biso   1.000  C
  C8       1.0000 0.95050  0.42860  0.86994  Biso   1.000  C
  C9       1.0000 0.21820  0.20200  0.42046  Biso   1.000  C
  C10      1.0000 0.28180  0.79800  0.92046  Biso   1.000  C
  C11      1.0000 0.71820  0.29800  0.57954  Biso   1.000  C
  C12      1.0000 0.78180  0.70200  0.07954  Biso   1.000  C
  C13      1.0000 0.78180  0.79800  0.57954  Biso   1.000  C
  C14      1.0000 0.71820  0.20200  0.07954  Biso   1.000  C
  C15      1.0000 0.28180  0.70200  0.42046  Biso   1.000  C
  C16      1.0000 0.21820  0.29800  0.92046  Biso   1.000  C
  H1       1.0000 0.36090  0.25850  0.42680  Biso   1.000  H
  H2       1.0000 0.13910  0.74150  0.92680  Biso   1.000  H
  H3       1.0000 0.86090  0.24150  0.57320  Biso   1.000  H
  H4       1.0000 0.63910  0.75850  0.07320  Biso   1.000  H
  H5       1.0000 0.63910  0.74150  0.57320  Biso   1.000  H
  H6       1.0000 0.86090  0.25850  0.07320  Biso   1.000  H
  H7       1.0000 0.13910  0.75850  0.42680  Biso   1.000  H
  H8       1.0000 0.36090  0.24150  0.92680  Biso   1.000  H
  C17      1.0000 0.79540  0.03620  0.40219  Biso   1.000  C
  C18      1.0000 0.70460  0.96380  0.90219  Biso   1.000  C
  C19      1.0000 0.29540  0.46380  0.59781  Biso   1.000  C
  C20      1.0000 0.20460  0.53620  0.09781  Biso   1.000  C
  C21      1.0000 0.20460  0.96380  0.59781  Biso   1.000  C
  C22      1.0000 0.29540  0.03620  0.09781  Biso   1.000  C
  C23      1.0000 0.70460  0.53620  0.40219  Biso   1.000  C
  C24      1.0000 0.79540  0.46380  0.90219  Biso   1.000  C
  H9       1.0000 0.65220  0.97980  0.39620  Biso   1.000  H
  H10      1.0000 0.84780  0.02020  0.89620  Biso   1.000  H
  H11      1.0000 0.15220  0.52020  0.60380  Biso   1.000  H
  H12      1.0000 0.34780  0.47980  0.10380  Biso   1.000  H
  H13      1.0000 0.34780  0.02020  0.60380  Biso   1.000  H
  H14      1.0000 0.15220  0.97980  0.10380  Biso   1.000  H
  H15      1.0000 0.84780  0.47980  0.39620  Biso   1.000  H
  H16      1.0000 0.65220  0.52020  0.89620  Biso   1.000  H
  C25      1.0000 0.06010  0.16700  0.45225  Biso   1.000  C
  C26      1.0000 0.43990  0.83300  0.95225  Biso   1.000  C
  C27      1.0000 0.56010  0.33300  0.54775  Biso   1.000  C
  C28      1.0000 0.93990  0.66700  0.04775  Biso   1.000  C
  C29      1.0000 0.93990  0.83300  0.54775  Biso   1.000  C
  C30      1.0000 0.56010  0.16700  0.04775  Biso   1.000  C
  C31      1.0000 0.43990  0.66700  0.45225  Biso   1.000  C
  C32      1.0000 0.06010  0.33300  0.95225  Biso   1.000  C
  H17      1.0000 0.09590  0.19990  0.47990  Biso   1.000  H
  H18      1.0000 0.40410  0.80010  0.97990  Biso   1.000  H
  H19      1.0000 0.59590  0.30010  0.52010  Biso   1.000  H
  H20      1.0000 0.90410  0.69990  0.02010  Biso   1.000  H
  H21      1.0000 0.90410  0.80010  0.52010  Biso   1.000  H
  H22      1.0000 0.59590  0.19990  0.02010  Biso   1.000  H
  H23      1.0000 0.40410  0.69990  0.47990  Biso   1.000  H
  H24      1.0000 0.09590  0.30010  0.97990  Biso   1.000  H
  C33      1.0000 0.16700  0.15400  0.37932  Biso   1.000  C
  C34      1.0000 0.33300  0.84600  0.87932  Biso   1.000  C
  C35      1.0000 0.66700  0.34600  0.62068  Biso   1.000  C
  C36      1.0000 0.83300  0.65400  0.12068  Biso   1.000  C
  C37      1.0000 0.83300  0.84600  0.62068  Biso   1.000  C
  C38      1.0000 0.66700  0.15400  0.12068  Biso   1.000  C
  C39      1.0000 0.33300  0.65400  0.37932  Biso   1.000  C
  C40      1.0000 0.16700  0.34600  0.87932  Biso   1.000  C
  H25      1.0000 0.27520  0.17630  0.35800  Biso   1.000  H
  H26      1.0000 0.22480  0.82370  0.85800  Biso   1.000  H
  H27      1.0000 0.77520  0.32370  0.64200  Biso   1.000  H
  H28      1.0000 0.72480  0.67630  0.14200  Biso   1.000  H
  H29      1.0000 0.72480  0.82370  0.64200  Biso   1.000  H
  H30      1.0000 0.77520  0.17630  0.14200  Biso   1.000  H
  H31      1.0000 0.22480  0.67630  0.35800  Biso   1.000  H
  H32      1.0000 0.27520  0.32370  0.85800  Biso   1.000  H
  C41      1.0000 0.84960  0.08360  0.44301  Biso   1.000  C
  C42      1.0000 0.65040  0.91640  0.94301  Biso   1.000  C
  C43      1.0000 0.34960  0.41640  0.55699  Biso   1.000  C
  C44      1.0000 0.15040  0.58360  0.05699  Biso   1.000  C
  C45      1.0000 0.15040  0.91640  0.55699  Biso   1.000  C
  C46      1.0000 0.34960  0.08360  0.05699  Biso   1.000  C
  C47      1.0000 0.65040  0.58360  0.44301  Biso   1.000  C
  C48      1.0000 0.84960  0.41640  0.94301  Biso   1.000  C
  H33      1.0000 0.74330  0.05890  0.46450  Biso   1.000  H
  H34      1.0000 0.75670  0.94110  0.96450  Biso   1.000  H
  H35      1.0000 0.24330  0.44110  0.53550  Biso   1.000  H
  H36      1.0000 0.25670  0.55890  0.03550  Biso   1.000  H
  H37      1.0000 0.25670  0.94110  0.53550  Biso   1.000  H
  H38      1.0000 0.24330  0.05890  0.03550  Biso   1.000  H
  H39      1.0000 0.75670  0.55890  0.46450  Biso   1.000  H
  H40      1.0000 0.74330  0.44110  0.96450  Biso   1.000  H
  C49      1.0000 0.87910  0.01840  0.32601  Biso   1.000  C
  C50      1.0000 0.62090  0.98160  0.82601  Biso   1.000  C
  C51      1.0000 0.37910  0.48160  0.67399  Biso   1.000  C
  C52      1.0000 0.12090  0.51840  0.17399  Biso   1.000  C
  C53      1.0000 0.12090  0.98160  0.67399  Biso   1.000  C
  C54      1.0000 0.37910  0.01840  0.17399  Biso   1.000  C
  C55      1.0000 0.62090  0.51840  0.32601  Biso   1.000  C
  C56      1.0000 0.87910  0.48160  0.82601  Biso   1.000  C
  O1       1.0000 0.68090  0.95750  0.32068  Biso   1.000  O
  O2       1.0000 0.81910  0.04250  0.82068  Biso   1.000  O
  O3       1.0000 0.18090  0.54250  0.67932  Biso   1.000  O
  O4       1.0000 0.31910  0.45750  0.17932  Biso   1.000  O
  O5       1.0000 0.31910  0.04250  0.67932  Biso   1.000  O
  O6       1.0000 0.18090  0.95750  0.17932  Biso   1.000  O
  O7       1.0000 0.81910  0.45750  0.32068  Biso   1.000  O
  O8       1.0000 0.68090  0.54250  0.82068  Biso   1.000  O
