data_image0
_cell_length_a       8.229
_cell_length_b       14.2028
_cell_length_c       10.407
_cell_angle_alpha    90
_cell_angle_beta     107.879
_cell_angle_gamma    90

_symmetry_space_group_name_H-M    "P 1"
_symmetry_int_tables_number       1

loop_
  _symmetry_equiv_pos_as_xyz
  'x, y, z'

loop_
  _atom_site_label
  _atom_site_occupancy
  _atom_site_fract_x
  _atom_site_fract_y
  _atom_site_fract_z
  _atom_site_thermal_displace_type
  _atom_site_B_iso_or_equiv
  _atom_site_type_symbol
  I1       1.0000 0.28130  0.55871  0.53719  Biso   1.000  I
  I2       1.0000 0.71870  0.05871  0.96281  Biso   1.000  I
  I3       1.0000 0.71870  0.44129  0.46281  Biso   1.000  I
  I4       1.0000 0.28130  0.94129  0.03719  Biso   1.000  I
  Cu1      1.0000 0.38387  0.45976  0.35356  Biso   1.000  Cu
  Cu2      1.0000 0.61613  0.95976  0.14644  Biso   1.000  Cu
  Cu3      1.0000 0.61613  0.54024  0.64644  Biso   1.000  Cu
  Cu4      1.0000 0.38387  0.04024  0.85356  Biso   1.000  Cu
  N1       1.0000 0.24340  0.33520  0.32400  Biso   1.000  N
  N2       1.0000 0.75660  0.83520  0.17600  Biso   1.000  N
  N3       1.0000 0.75660  0.66480  0.67600  Biso   1.000  N
  N4       1.0000 0.24340  0.16480  0.82400  Biso   1.000  N
  N5       1.0000 0.65630  0.03760  0.31960  Biso   1.000  N
  N6       1.0000 0.34370  0.53760  0.18040  Biso   1.000  N
  N7       1.0000 0.34370  0.96240  0.68040  Biso   1.000  N
  N8       1.0000 0.65630  0.46240  0.81960  Biso   1.000  N
  C1       1.0000 0.11000  0.33310  0.37360  Biso   1.000  C
  C2       1.0000 0.89000  0.83310  0.12640  Biso   1.000  C
  C3       1.0000 0.89000  0.66690  0.62640  Biso   1.000  C
  C4       1.0000 0.11000  0.16690  0.87360  Biso   1.000  C
  H1       1.0000 0.09010  0.38660  0.42140  Biso   1.000  H
  H2       1.0000 0.90990  0.88660  0.07860  Biso   1.000  H
  H3       1.0000 0.90990  0.61340  0.57860  Biso   1.000  H
  H4       1.0000 0.09010  0.11340  0.92140  Biso   1.000  H
  C5       1.0000 0.00030  0.25660  0.35830  Biso   1.000  C
  C6       1.0000 0.99970  0.75660  0.14170  Biso   1.000  C
  C7       1.0000 0.99970  0.74340  0.64170  Biso   1.000  C
  C8       1.0000 0.00030  0.24340  0.85830  Biso   1.000  C
  H5       1.0000 0.90810  0.25820  0.39510  Biso   1.000  H
  H6       1.0000 0.09190  0.75820  0.10490  Biso   1.000  H
  H7       1.0000 0.09190  0.74180  0.60490  Biso   1.000  H
  H8       1.0000 0.90810  0.24180  0.89510  Biso   1.000  H
  C9       1.0000 0.02700  0.17900  0.28930  Biso   1.000  C
  C10      1.0000 0.97300  0.67900  0.21070  Biso   1.000  C
  C11      1.0000 0.97300  0.82100  0.71070  Biso   1.000  C
  C12      1.0000 0.02700  0.32100  0.78930  Biso   1.000  C
  H9       1.0000 0.95220  0.12650  0.27560  Biso   1.000  H
  H10      1.0000 0.04780  0.62650  0.22440  Biso   1.000  H
  H11      1.0000 0.04780  0.87350  0.72440  Biso   1.000  H
  H12      1.0000 0.95220  0.37350  0.77560  Biso   1.000  H
  C13      1.0000 0.16500  0.17890  0.24020  Biso   1.000  C
  C14      1.0000 0.83500  0.67890  0.25980  Biso   1.000  C
  C15      1.0000 0.83500  0.82110  0.75980  Biso   1.000  C
  C16      1.0000 0.16500  0.32110  0.74020  Biso   1.000  C
  H13      1.0000 0.18760  0.12520  0.19400  Biso   1.000  H
  H14      1.0000 0.81240  0.62520  0.30600  Biso   1.000  H
  H15      1.0000 0.81240  0.87480  0.80600  Biso   1.000  H
  H16      1.0000 0.18760  0.37480  0.69400  Biso   1.000  H
  C17      1.0000 0.27110  0.25740  0.25860  Biso   1.000  C
  C18      1.0000 0.72890  0.75740  0.24140  Biso   1.000  C
  C19      1.0000 0.72890  0.74260  0.74140  Biso   1.000  C
  C20      1.0000 0.27110  0.24260  0.75860  Biso   1.000  C
  N9       1.0000 0.41950  0.25980  0.21050  Biso   1.000  N
  N10      1.0000 0.58050  0.75980  0.28950  Biso   1.000  N
  N11      1.0000 0.58050  0.74020  0.78950  Biso   1.000  N
  N12      1.0000 0.41950  0.24020  0.71050  Biso   1.000  N
  H17      1.0000 0.45650  0.31270  0.18550  Biso   1.000  H
  H18      1.0000 0.54350  0.81270  0.31450  Biso   1.000  H
  H19      1.0000 0.54350  0.68730  0.81450  Biso   1.000  H
  H20      1.0000 0.45650  0.18730  0.68550  Biso   1.000  H
  C21      1.0000 0.50360  0.17040  0.20570  Biso   1.000  C
  C22      1.0000 0.49640  0.67040  0.29430  Biso   1.000  C
  C23      1.0000 0.49640  0.82960  0.79430  Biso   1.000  C
  C24      1.0000 0.50360  0.32960  0.70570  Biso   1.000  C
  H21      1.0000 0.41580  0.12600  0.15250  Biso   1.000  H
  H22      1.0000 0.58420  0.62600  0.34750  Biso   1.000  H
  H23      1.0000 0.58420  0.87400  0.84750  Biso   1.000  H
  H24      1.0000 0.41580  0.37400  0.65250  Biso   1.000  H
  H25      1.0000 0.58560  0.18050  0.15460  Biso   1.000  H
  H26      1.0000 0.41440  0.68050  0.34540  Biso   1.000  H
  H27      1.0000 0.41440  0.81950  0.84540  Biso   1.000  H
  H28      1.0000 0.58560  0.31950  0.65460  Biso   1.000  H
  C25      1.0000 0.59270  0.12500  0.32880  Biso   1.000  C
  C26      1.0000 0.40730  0.62500  0.17120  Biso   1.000  C
  C27      1.0000 0.40730  0.87500  0.67120  Biso   1.000  C
  C28      1.0000 0.59270  0.37500  0.82880  Biso   1.000  C
  C29      1.0000 0.61650  0.16940  0.45370  Biso   1.000  C
  C30      1.0000 0.38350  0.66940  0.04630  Biso   1.000  C
  C31      1.0000 0.38350  0.83060  0.54630  Biso   1.000  C
  C32      1.0000 0.61650  0.33060  0.95370  Biso   1.000  C
  H29      1.0000 0.56820  0.22970  0.45790  Biso   1.000  H
  H30      1.0000 0.43180  0.72970  0.04210  Biso   1.000  H
  H31      1.0000 0.43180  0.77030  0.54210  Biso   1.000  H
  H32      1.0000 0.56820  0.27030  0.95790  Biso   1.000  H
  C33      1.0000 0.70980  0.12500  0.56900  Biso   1.000  C
  C34      1.0000 0.29020  0.62500  0.93100  Biso   1.000  C
  C35      1.0000 0.29020  0.87500  0.43100  Biso   1.000  C
  C36      1.0000 0.70980  0.37500  0.06900  Biso   1.000  C
  H33      1.0000 0.72930  0.15480  0.65420  Biso   1.000  H
  H34      1.0000 0.27070  0.65480  0.84580  Biso   1.000  H
  H35      1.0000 0.27070  0.84520  0.34580  Biso   1.000  H
  H36      1.0000 0.72930  0.34520  0.15420  Biso   1.000  H
  C37      1.0000 0.77620  0.03610  0.56110  Biso   1.000  C
  C38      1.0000 0.22380  0.53610  0.93890  Biso   1.000  C
  C39      1.0000 0.22380  0.96390  0.43890  Biso   1.000  C
  C40      1.0000 0.77620  0.46390  0.06110  Biso   1.000  C
  H37      1.0000 0.83980  0.00340  0.64010  Biso   1.000  H
  H38      1.0000 0.16020  0.50340  0.85990  Biso   1.000  H
  H39      1.0000 0.16020  0.99660  0.35990  Biso   1.000  H
  H40      1.0000 0.83980  0.49660  0.14010  Biso   1.000  H
  C41      1.0000 0.74710  0.99720  0.43610  Biso   1.000  C
  C42      1.0000 0.25290  0.49720  0.06390  Biso   1.000  C
  C43      1.0000 0.25290  0.00280  0.56390  Biso   1.000  C
  C44      1.0000 0.74710  0.50280  0.93610  Biso   1.000  C
  H41      1.0000 0.79470  0.93690  0.43110  Biso   1.000  H
  H42      1.0000 0.20530  0.43690  0.06890  Biso   1.000  H
  H43      1.0000 0.20530  0.06310  0.56890  Biso   1.000  H
  H44      1.0000 0.79470  0.56310  0.93110  Biso   1.000  H
  H45      1.0000 0.49930  0.14480  0.12770  Biso   1.000  H
  H46      1.0000 0.50070  0.64480  0.37230  Biso   1.000  H
  H47      1.0000 0.50070  0.85520  0.87230  Biso   1.000  H
  H48      1.0000 0.49930  0.35520  0.62770  Biso   1.000  H
  H49      1.0000 0.50450  0.30310  0.26910  Biso   1.000  H
  H50      1.0000 0.49550  0.80310  0.23090  Biso   1.000  H
  H51      1.0000 0.49550  0.69690  0.73090  Biso   1.000  H
  H52      1.0000 0.50450  0.19690  0.76910  Biso   1.000  H
  H53      1.0000 0.38380  0.28700  0.11840  Biso   1.000  H
  H54      1.0000 0.61620  0.78700  0.38160  Biso   1.000  H
  H55      1.0000 0.61620  0.71300  0.88160  Biso   1.000  H
  H56      1.0000 0.38380  0.21300  0.61840  Biso   1.000  H
