data_image0
_cell_length_a       8.126
_cell_length_b       13.971
_cell_length_c       10.2366
_cell_angle_alpha    90
_cell_angle_beta     108.07
_cell_angle_gamma    90

_symmetry_space_group_name_H-M    "P 1"
_symmetry_int_tables_number       1

loop_
  _symmetry_equiv_pos_as_xyz
  'x, y, z'

loop_
  _atom_site_label
  _atom_site_occupancy
  _atom_site_fract_x
  _atom_site_fract_y
  _atom_site_fract_z
  _atom_site_thermal_displace_type
  _atom_site_B_iso_or_equiv
  _atom_site_type_symbol
  Br1      1.0000 0.29665  0.55916  0.53479  Biso   1.000  Br
  Br2      1.0000 0.70335  0.05916  0.96521  Biso   1.000  Br
  Br3      1.0000 0.70335  0.44084  0.46521  Biso   1.000  Br
  Br4      1.0000 0.29665  0.94084  0.03479  Biso   1.000  Br
  Cu1      1.0000 0.38287  0.46204  0.35546  Biso   1.000  Cu
  Cu2      1.0000 0.61713  0.96204  0.14454  Biso   1.000  Cu
  Cu3      1.0000 0.61713  0.53796  0.64454  Biso   1.000  Cu
  Cu4      1.0000 0.38287  0.03796  0.85546  Biso   1.000  Cu
  N1       1.0000 0.23510  0.33800  0.32930  Biso   1.000  N
  N2       1.0000 0.76490  0.83800  0.17070  Biso   1.000  N
  N3       1.0000 0.76490  0.66200  0.67070  Biso   1.000  N
  N4       1.0000 0.23510  0.16200  0.82930  Biso   1.000  N
  N5       1.0000 0.65240  0.03700  0.32210  Biso   1.000  N
  N6       1.0000 0.34760  0.53700  0.17790  Biso   1.000  N
  N7       1.0000 0.34760  0.96300  0.67790  Biso   1.000  N
  N8       1.0000 0.65240  0.46300  0.82210  Biso   1.000  N
  C1       1.0000 0.10160  0.34040  0.38090  Biso   1.000  C
  C2       1.0000 0.89840  0.84040  0.11910  Biso   1.000  C
  C3       1.0000 0.89840  0.65960  0.61910  Biso   1.000  C
  C4       1.0000 0.10160  0.15960  0.88090  Biso   1.000  C
  H1       1.0000 0.08320  0.39600  0.42790  Biso   1.000  H
  H2       1.0000 0.91680  0.89600  0.07210  Biso   1.000  H
  H3       1.0000 0.91680  0.60400  0.57210  Biso   1.000  H
  H4       1.0000 0.08320  0.10400  0.92790  Biso   1.000  H
  C5       1.0000 0.98810  0.26140  0.36630  Biso   1.000  C
  C6       1.0000 0.01190  0.76140  0.13370  Biso   1.000  C
  C7       1.0000 0.01190  0.73860  0.63370  Biso   1.000  C
  C8       1.0000 0.98810  0.23860  0.86630  Biso   1.000  C
  H5       1.0000 0.89730  0.26260  0.40650  Biso   1.000  H
  H6       1.0000 0.10270  0.76260  0.09350  Biso   1.000  H
  H7       1.0000 0.10270  0.73740  0.59350  Biso   1.000  H
  H8       1.0000 0.89730  0.23740  0.90650  Biso   1.000  H
  C9       1.0000 0.01150  0.18270  0.29280  Biso   1.000  C
  C10      1.0000 0.98850  0.68270  0.20720  Biso   1.000  C
  C11      1.0000 0.98850  0.81730  0.70720  Biso   1.000  C
  C12      1.0000 0.01150  0.31730  0.79280  Biso   1.000  C
  H9       1.0000 0.93440  0.12980  0.27870  Biso   1.000  H
  H10      1.0000 0.06560  0.62980  0.22130  Biso   1.000  H
  H11      1.0000 0.06560  0.87020  0.72130  Biso   1.000  H
  H12      1.0000 0.93440  0.37020  0.77870  Biso   1.000  H
  C13      1.0000 0.14730  0.18190  0.24060  Biso   1.000  C
  C14      1.0000 0.85270  0.68190  0.25940  Biso   1.000  C
  C15      1.0000 0.85270  0.81810  0.75940  Biso   1.000  C
  C16      1.0000 0.14730  0.31810  0.74060  Biso   1.000  C
  H13      1.0000 0.16450  0.12810  0.18960  Biso   1.000  H
  H14      1.0000 0.83550  0.62810  0.31040  Biso   1.000  H
  H15      1.0000 0.83550  0.87190  0.81040  Biso   1.000  H
  H16      1.0000 0.16450  0.37190  0.68960  Biso   1.000  H
  C17      1.0000 0.26150  0.26000  0.26170  Biso   1.000  C
  C18      1.0000 0.73850  0.76000  0.23830  Biso   1.000  C
  C19      1.0000 0.73850  0.74000  0.73830  Biso   1.000  C
  C20      1.0000 0.26150  0.24000  0.76170  Biso   1.000  C
  N9       1.0000 0.40990  0.26140  0.20990  Biso   1.000  N
  N10      1.0000 0.59010  0.76140  0.29010  Biso   1.000  N
  N11      1.0000 0.59010  0.73860  0.79010  Biso   1.000  N
  N12      1.0000 0.40990  0.23860  0.70990  Biso   1.000  N
  H17      1.0000 0.44700  0.31460  0.18250  Biso   1.000  H
  H18      1.0000 0.55300  0.81460  0.31750  Biso   1.000  H
  H19      1.0000 0.55300  0.68540  0.81750  Biso   1.000  H
  H20      1.0000 0.44700  0.18540  0.68250  Biso   1.000  H
  C21      1.0000 0.49210  0.17040  0.20620  Biso   1.000  C
  C22      1.0000 0.50790  0.67040  0.29380  Biso   1.000  C
  C23      1.0000 0.50790  0.82960  0.79380  Biso   1.000  C
  C24      1.0000 0.49210  0.32960  0.70620  Biso   1.000  C
  H21      1.0000 0.40130  0.12510  0.15500  Biso   1.000  H
  H22      1.0000 0.59870  0.62510  0.34500  Biso   1.000  H
  H23      1.0000 0.59870  0.87490  0.84500  Biso   1.000  H
  H24      1.0000 0.40130  0.37490  0.65500  Biso   1.000  H
  H25      1.0000 0.57270  0.17890  0.15180  Biso   1.000  H
  H26      1.0000 0.42730  0.67890  0.34820  Biso   1.000  H
  H27      1.0000 0.42730  0.82110  0.84820  Biso   1.000  H
  H28      1.0000 0.57270  0.32110  0.65180  Biso   1.000  H
  C25      1.0000 0.58540  0.12590  0.33170  Biso   1.000  C
  C26      1.0000 0.41460  0.62590  0.16830  Biso   1.000  C
  C27      1.0000 0.41460  0.87410  0.66830  Biso   1.000  C
  C28      1.0000 0.58540  0.37410  0.83170  Biso   1.000  C
  C29      1.0000 0.61020  0.17000  0.45790  Biso   1.000  C
  C30      1.0000 0.38980  0.67000  0.04210  Biso   1.000  C
  C31      1.0000 0.38980  0.83000  0.54210  Biso   1.000  C
  C32      1.0000 0.61020  0.33000  0.95790  Biso   1.000  C
  H29      1.0000 0.56050  0.23090  0.46310  Biso   1.000  H
  H30      1.0000 0.43950  0.73090  0.03690  Biso   1.000  H
  H31      1.0000 0.43950  0.76910  0.53690  Biso   1.000  H
  H32      1.0000 0.56050  0.26910  0.96310  Biso   1.000  H
  C33      1.0000 0.70700  0.12450  0.57420  Biso   1.000  C
  C34      1.0000 0.29300  0.62450  0.92580  Biso   1.000  C
  C35      1.0000 0.29300  0.87550  0.42580  Biso   1.000  C
  C36      1.0000 0.70700  0.37550  0.07420  Biso   1.000  C
  H33      1.0000 0.72520  0.15400  0.66120  Biso   1.000  H
  H34      1.0000 0.27480  0.65400  0.83880  Biso   1.000  H
  H35      1.0000 0.27480  0.84600  0.33880  Biso   1.000  H
  H36      1.0000 0.72520  0.34600  0.16120  Biso   1.000  H
  C37      1.0000 0.77690  0.03830  0.56680  Biso   1.000  C
  C38      1.0000 0.22310  0.53830  0.93320  Biso   1.000  C
  C39      1.0000 0.22310  0.96170  0.43320  Biso   1.000  C
  C40      1.0000 0.77690  0.46170  0.06680  Biso   1.000  C
  H37      1.0000 0.84530  0.00660  0.64760  Biso   1.000  H
  H38      1.0000 0.15470  0.50660  0.85240  Biso   1.000  H
  H39      1.0000 0.15470  0.99340  0.35240  Biso   1.000  H
  H40      1.0000 0.84530  0.49340  0.14760  Biso   1.000  H
  C41      1.0000 0.74720  0.99690  0.43970  Biso   1.000  C
  C42      1.0000 0.25280  0.49690  0.06030  Biso   1.000  C
  C43      1.0000 0.25280  0.00310  0.56030  Biso   1.000  C
  C44      1.0000 0.74720  0.50310  0.93970  Biso   1.000  C
  H41      1.0000 0.79720  0.93610  0.43530  Biso   1.000  H
  H42      1.0000 0.20280  0.43610  0.06470  Biso   1.000  H
  H43      1.0000 0.20280  0.06390  0.56470  Biso   1.000  H
  H44      1.0000 0.79720  0.56390  0.93530  Biso   1.000  H
  H45      1.0000 0.48450  0.14290  0.12720  Biso   1.000  H
  H46      1.0000 0.51550  0.64290  0.37280  Biso   1.000  H
  H47      1.0000 0.51550  0.85710  0.87280  Biso   1.000  H
  H48      1.0000 0.48450  0.35710  0.62720  Biso   1.000  H
  H49      1.0000 0.37160  0.28800  0.11560  Biso   1.000  H
  H50      1.0000 0.62840  0.78800  0.38440  Biso   1.000  H
  H51      1.0000 0.62840  0.71200  0.88440  Biso   1.000  H
  H52      1.0000 0.37160  0.21200  0.61560  Biso   1.000  H
  H53      1.0000 0.49760  0.30570  0.26780  Biso   1.000  H
  H54      1.0000 0.50240  0.80570  0.23220  Biso   1.000  H
  H55      1.0000 0.50240  0.69430  0.73220  Biso   1.000  H
  H56      1.0000 0.49760  0.19430  0.76780  Biso   1.000  H
