data_image0
_cell_length_a       7.7025
_cell_length_b       15.7726
_cell_length_c       8.2876
_cell_angle_alpha    90
_cell_angle_beta     114.302
_cell_angle_gamma    90

_symmetry_space_group_name_H-M    "P 1"
_symmetry_int_tables_number       1

loop_
  _symmetry_equiv_pos_as_xyz
  'x, y, z'

loop_
  _atom_site_label
  _atom_site_occupancy
  _atom_site_fract_x
  _atom_site_fract_y
  _atom_site_fract_z
  _atom_site_thermal_displace_type
  _atom_site_B_iso_or_equiv
  _atom_site_type_symbol
  I1       1.0000 0.24207  0.31069  0.24654  Biso   1.000  I
  I2       1.0000 0.74207  0.81069  0.24654  Biso   1.000  I
  I3       1.0000 0.24207  0.68931  0.24654  Biso   1.000  I
  I4       1.0000 0.74207  0.18931  0.24654  Biso   1.000  I
  I5       1.0000 0.75793  0.68931  0.75346  Biso   1.000  I
  I6       1.0000 0.25793  0.18931  0.75346  Biso   1.000  I
  I7       1.0000 0.75793  0.31069  0.75346  Biso   1.000  I
  I8       1.0000 0.25793  0.81069  0.75346  Biso   1.000  I
  Cu1      1.0000 0.13683  0.31152  0.90191  Biso   1.000  Cu
  Cu2      1.0000 0.63683  0.81152  0.90191  Biso   1.000  Cu
  Cu3      1.0000 0.13683  0.68848  0.90191  Biso   1.000  Cu
  Cu4      1.0000 0.63683  0.18848  0.90191  Biso   1.000  Cu
  Cu5      1.0000 0.86317  0.68848  0.09809  Biso   1.000  Cu
  Cu6      1.0000 0.36317  0.18848  0.09809  Biso   1.000  Cu
  Cu7      1.0000 0.86317  0.31152  0.09809  Biso   1.000  Cu
  Cu8      1.0000 0.36317  0.81152  0.09809  Biso   1.000  Cu
  N1       1.0000 0.22270  0.42410  0.82810  Biso   1.000  N
  N2       1.0000 0.72270  0.92410  0.82810  Biso   1.000  N
  N3       1.0000 0.22270  0.57590  0.82810  Biso   1.000  N
  N4       1.0000 0.72270  0.07590  0.82810  Biso   1.000  N
  N5       1.0000 0.77730  0.57590  0.17190  Biso   1.000  N
  N6       1.0000 0.27730  0.07590  0.17190  Biso   1.000  N
  N7       1.0000 0.77730  0.42410  0.17190  Biso   1.000  N
  N8       1.0000 0.27730  0.92410  0.17190  Biso   1.000  N
  C1       1.0000 0.30700  0.42430  0.71530  Biso   1.000  C
  C2       1.0000 0.80700  0.92430  0.71530  Biso   1.000  C
  C3       1.0000 0.30700  0.57570  0.71530  Biso   1.000  C
  C4       1.0000 0.80700  0.07570  0.71530  Biso   1.000  C
  C5       1.0000 0.69300  0.57570  0.28470  Biso   1.000  C
  C6       1.0000 0.19300  0.07570  0.28470  Biso   1.000  C
  C7       1.0000 0.69300  0.42430  0.28470  Biso   1.000  C
  C8       1.0000 0.19300  0.92430  0.28470  Biso   1.000  C
  H1       1.0000 0.33240  0.37160  0.67360  Biso   1.000  H
  H2       1.0000 0.83240  0.87160  0.67360  Biso   1.000  H
  H3       1.0000 0.33240  0.62840  0.67360  Biso   1.000  H
  H4       1.0000 0.83240  0.12840  0.67360  Biso   1.000  H
  H5       1.0000 0.66760  0.62840  0.32640  Biso   1.000  H
  H6       1.0000 0.16760  0.12840  0.32640  Biso   1.000  H
  H7       1.0000 0.66760  0.37160  0.32640  Biso   1.000  H
  H8       1.0000 0.16760  0.87160  0.32640  Biso   1.000  H
  C9       1.0000 0.35940  0.50000  0.65610  Biso   1.000  C
  C10      1.0000 0.85940  0.00000  0.65610  Biso   1.000  C
  C11      1.0000 0.64060  0.50000  0.34390  Biso   1.000  C
  C12      1.0000 0.14060  0.00000  0.34390  Biso   1.000  C
  C13      1.0000 0.18890  0.50000  0.88450  Biso   1.000  C
  C14      1.0000 0.68890  0.00000  0.88450  Biso   1.000  C
  C15      1.0000 0.81110  0.50000  0.11550  Biso   1.000  C
  C16      1.0000 0.31110  0.00000  0.11550  Biso   1.000  C
  H9       1.0000 0.13720  0.50000  0.97060  Biso   1.000  H
  H10      1.0000 0.63720  0.00000  0.97060  Biso   1.000  H
  H11      1.0000 0.86280  0.50000  0.02940  Biso   1.000  H
  H12      1.0000 0.36280  0.00000  0.02940  Biso   1.000  H
  C17      1.0000 0.45660  0.50000  0.54510  Biso   1.000  C
  C18      1.0000 0.95660  0.00000  0.54510  Biso   1.000  C
  C19      1.0000 0.54340  0.50000  0.45490  Biso   1.000  C
  C20      1.0000 0.04340  0.00000  0.45490  Biso   1.000  C
