data_image0
_cell_length_a       9.5141
_cell_length_b       12.7091
_cell_length_c       16.5108
_cell_angle_alpha    90
_cell_angle_beta     96.457
_cell_angle_gamma    90

_symmetry_space_group_name_H-M    "P 1"
_symmetry_int_tables_number       1

loop_
  _symmetry_equiv_pos_as_xyz
  'x, y, z'

loop_
  _atom_site_label
  _atom_site_occupancy
  _atom_site_fract_x
  _atom_site_fract_y
  _atom_site_fract_z
  _atom_site_thermal_displace_type
  _atom_site_B_iso_or_equiv
  _atom_site_type_symbol
  Br1      1.0000 0.84645  0.39265  0.16063  Biso   1.000  Br
  Br2      1.0000 0.84645  0.10735  0.66063  Biso   1.000  Br
  Br3      1.0000 0.15355  0.60735  0.83937  Biso   1.000  Br
  Br4      1.0000 0.15355  0.89265  0.33937  Biso   1.000  Br
  Br5      1.0000 0.52080  0.32110  0.27700  Biso   1.000  Br
  Br6      1.0000 0.52080  0.17890  0.77700  Biso   1.000  Br
  Br7      1.0000 0.47920  0.67890  0.72300  Biso   1.000  Br
  Br8      1.0000 0.47920  0.82110  0.22300  Biso   1.000  Br
  Br9      1.0000 0.94577  0.24478  0.38586  Biso   1.000  Br
  Br10     1.0000 0.94577  0.25522  0.88586  Biso   1.000  Br
  Br11     1.0000 0.05423  0.75522  0.61414  Biso   1.000  Br
  Br12     1.0000 0.05423  0.74478  0.11414  Biso   1.000  Br
  Cu1      1.0000 0.60051  0.46730  0.20447  Biso   1.000  Cu
  Cu2      1.0000 0.60051  0.03270  0.70447  Biso   1.000  Cu
  Cu3      1.0000 0.39949  0.53270  0.79553  Biso   1.000  Cu
  Cu4      1.0000 0.39949  0.96730  0.29553  Biso   1.000  Cu
  Cu5      1.0000 0.03537  0.32595  0.26441  Biso   1.000  Cu
  Cu6      1.0000 0.03537  0.17405  0.76441  Biso   1.000  Cu
  Cu7      1.0000 0.96463  0.67405  0.73559  Biso   1.000  Cu
  Cu8      1.0000 0.96463  0.82595  0.23559  Biso   1.000  Cu
  Cu9      1.0000 0.76157  0.25803  0.27348  Biso   1.000  Cu
  Cu10     1.0000 0.76157  0.24197  0.77348  Biso   1.000  Cu
  Cu11     1.0000 0.23843  0.74197  0.72652  Biso   1.000  Cu
  Cu12     1.0000 0.23843  0.75803  0.22652  Biso   1.000  Cu
  N1       1.0000 0.71640  0.56410  0.28841  Biso   1.000  N
  N2       1.0000 0.71640  0.93590  0.78841  Biso   1.000  N
  N3       1.0000 0.28360  0.43590  0.71159  Biso   1.000  N
  N4       1.0000 0.28360  0.06410  0.21159  Biso   1.000  N
  N5       1.0000 0.88360  0.70390  0.29718  Biso   1.000  N
  N6       1.0000 0.88360  0.79610  0.79718  Biso   1.000  N
  N7       1.0000 0.11640  0.29610  0.70282  Biso   1.000  N
  N8       1.0000 0.11640  0.20390  0.20282  Biso   1.000  N
  N9       1.0000 0.16660  0.44470  0.30739  Biso   1.000  N
  N10      1.0000 0.16660  0.05530  0.80739  Biso   1.000  N
  N11      1.0000 0.83340  0.55530  0.69261  Biso   1.000  N
  N12      1.0000 0.83340  0.94470  0.19261  Biso   1.000  N
  N13      1.0000 0.25950  0.61470  0.28503  Biso   1.000  N
  N14      1.0000 0.25950  0.88530  0.78503  Biso   1.000  N
  N15      1.0000 0.74050  0.38530  0.71497  Biso   1.000  N
  N16      1.0000 0.74050  0.11470  0.21497  Biso   1.000  N
  N17      1.0000 0.50920  0.54960  0.11650  Biso   1.000  N
  N18      1.0000 0.50920  0.95040  0.61650  Biso   1.000  N
  N19      1.0000 0.49080  0.45040  0.88350  Biso   1.000  N
  N20      1.0000 0.49080  0.04960  0.38350  Biso   1.000  N
  N21      1.0000 0.68310  0.75270  0.46190  Biso   1.000  N
  N22      1.0000 0.68310  0.74730  0.96190  Biso   1.000  N
  N23      1.0000 0.31690  0.24730  0.53810  Biso   1.000  N
  N24      1.0000 0.31690  0.25270  0.03810  Biso   1.000  N
  C1       1.0000 0.77150  0.65190  0.26160  Biso   1.000  C
  C2       1.0000 0.77150  0.84810  0.76160  Biso   1.000  C
  C3       1.0000 0.22850  0.34810  0.73840  Biso   1.000  C
  C4       1.0000 0.22850  0.15190  0.23840  Biso   1.000  C
  H1       1.0000 0.72650  0.68040  0.21220  Biso   1.000  H
  H2       1.0000 0.72650  0.81960  0.71220  Biso   1.000  H
  H3       1.0000 0.27350  0.31960  0.78780  Biso   1.000  H
  H4       1.0000 0.27350  0.18040  0.28780  Biso   1.000  H
  C5       1.0000 0.78060  0.52390  0.35730  Biso   1.000  C
  C6       1.0000 0.78060  0.97610  0.85730  Biso   1.000  C
  C7       1.0000 0.21940  0.47610  0.64270  Biso   1.000  C
  C8       1.0000 0.21940  0.02390  0.14270  Biso   1.000  C
  H5       1.0000 0.74350  0.46150  0.37840  Biso   1.000  H
  H6       1.0000 0.74350  0.03850  0.87840  Biso   1.000  H
  H7       1.0000 0.25650  0.53850  0.62160  Biso   1.000  H
  H8       1.0000 0.25650  0.96150  0.12160  Biso   1.000  H
  C9       1.0000 0.89850  0.56930  0.39950  Biso   1.000  C
  C10      1.0000 0.89850  0.93070  0.89950  Biso   1.000  C
  C11      1.0000 0.10150  0.43070  0.60050  Biso   1.000  C
  C12      1.0000 0.10150  0.06930  0.10050  Biso   1.000  C
  C13      1.0000 0.94750  0.66190  0.36650  Biso   1.000  C
  C14      1.0000 0.94750  0.83810  0.86650  Biso   1.000  C
  C15      1.0000 0.05250  0.33810  0.63350  Biso   1.000  C
  C16      1.0000 0.05250  0.16190  0.13350  Biso   1.000  C
  H9       1.0000 0.02810  0.69600  0.39390  Biso   1.000  H
  H10      1.0000 0.02810  0.80400  0.89390  Biso   1.000  H
  H11      1.0000 0.97190  0.30400  0.60610  Biso   1.000  H
  H12      1.0000 0.97190  0.19600  0.10610  Biso   1.000  H
  C17      1.0000 0.97130  0.52150  0.47050  Biso   1.000  C
  C18      1.0000 0.97130  0.97850  0.97050  Biso   1.000  C
  C19      1.0000 0.02870  0.47850  0.52950  Biso   1.000  C
  C20      1.0000 0.02870  0.02150  0.02950  Biso   1.000  C
  C21      1.0000 0.17130  0.53490  0.26600  Biso   1.000  C
  C22      1.0000 0.17130  0.96510  0.76600  Biso   1.000  C
  C23      1.0000 0.82870  0.46510  0.73400  Biso   1.000  C
  C24      1.0000 0.82870  0.03490  0.23400  Biso   1.000  C
  H13      1.0000 0.10560  0.54270  0.21860  Biso   1.000  H
  H14      1.0000 0.10560  0.95730  0.71860  Biso   1.000  H
  H15      1.0000 0.89440  0.45730  0.78140  Biso   1.000  H
  H16      1.0000 0.89440  0.04270  0.28140  Biso   1.000  H
  C25      1.0000 0.25840  0.43430  0.37560  Biso   1.000  C
  C26      1.0000 0.25840  0.06570  0.87560  Biso   1.000  C
  C27      1.0000 0.74160  0.56570  0.62440  Biso   1.000  C
  C28      1.0000 0.74160  0.93430  0.12440  Biso   1.000  C
  H17      1.0000 0.25600  0.37240  0.40760  Biso   1.000  H
  H18      1.0000 0.25600  0.12760  0.90760  Biso   1.000  H
  H19      1.0000 0.74400  0.62760  0.59240  Biso   1.000  H
  H20      1.0000 0.74400  0.87240  0.09240  Biso   1.000  H
  C29      1.0000 0.35680  0.51310  0.39980  Biso   1.000  C
  C30      1.0000 0.35680  0.98690  0.89980  Biso   1.000  C
  C31      1.0000 0.64320  0.48690  0.60020  Biso   1.000  C
  C32      1.0000 0.64320  0.01310  0.10020  Biso   1.000  C
  C33      1.0000 0.35490  0.60300  0.35170  Biso   1.000  C
  C34      1.0000 0.35490  0.89700  0.85170  Biso   1.000  C
  C35      1.0000 0.64510  0.39700  0.64830  Biso   1.000  C
  C36      1.0000 0.64510  0.10300  0.14830  Biso   1.000  C
  H21      1.0000 0.42190  0.65720  0.36600  Biso   1.000  H
  H22      1.0000 0.42190  0.84280  0.86600  Biso   1.000  H
  H23      1.0000 0.57810  0.34280  0.63400  Biso   1.000  H
  H24      1.0000 0.57810  0.15720  0.13400  Biso   1.000  H
  C37      1.0000 0.45770  0.50260  0.47120  Biso   1.000  C
  C38      1.0000 0.45770  0.99740  0.97120  Biso   1.000  C
  C39      1.0000 0.54230  0.49740  0.52880  Biso   1.000  C
  C40      1.0000 0.54230  0.00260  0.02880  Biso   1.000  C
  C41      1.0000 0.45730  0.61180  0.07370  Biso   1.000  C
  C42      1.0000 0.45730  0.88820  0.57370  Biso   1.000  C
  C43      1.0000 0.54270  0.38820  0.92630  Biso   1.000  C
  C44      1.0000 0.54270  0.11180  0.42630  Biso   1.000  C
  C45      1.0000 0.38630  0.69230  0.01930  Biso   1.000  C
  C46      1.0000 0.38630  0.80770  0.51930  Biso   1.000  C
  C47      1.0000 0.61370  0.30770  0.98070  Biso   1.000  C
  C48      1.0000 0.61370  0.19230  0.48070  Biso   1.000  C
  H25      1.0000 0.29080  0.70460  0.03410  Biso   1.000  H
  H26      1.0000 0.29080  0.79540  0.53410  Biso   1.000  H
  H27      1.0000 0.70920  0.29540  0.96590  Biso   1.000  H
  H28      1.0000 0.70920  0.20460  0.46590  Biso   1.000  H
  H29      1.0000 0.38040  0.66780  0.96270  Biso   1.000  H
  H30      1.0000 0.38040  0.83220  0.46270  Biso   1.000  H
  H31      1.0000 0.61960  0.33220  0.03730  Biso   1.000  H
  H32      1.0000 0.61960  0.16780  0.53730  Biso   1.000  H
  H33      1.0000 0.44050  0.75800  0.02490  Biso   1.000  H
  H34      1.0000 0.44050  0.74200  0.52490  Biso   1.000  H
  H35      1.0000 0.55950  0.24200  0.97510  Biso   1.000  H
  H36      1.0000 0.55950  0.25800  0.47510  Biso   1.000  H
  C49      1.0000 0.74580  0.82800  0.46140  Biso   1.000  C
  C50      1.0000 0.74580  0.67200  0.96140  Biso   1.000  C
  C51      1.0000 0.25420  0.17200  0.53860  Biso   1.000  C
  C52      1.0000 0.25420  0.32800  0.03860  Biso   1.000  C
  C53      1.0000 0.82910  0.92330  0.46180  Biso   1.000  C
  C54      1.0000 0.82910  0.57670  0.96180  Biso   1.000  C
  C55      1.0000 0.17090  0.07670  0.53820  Biso   1.000  C
  C56      1.0000 0.17090  0.42330  0.03820  Biso   1.000  C
  H37      1.0000 0.83560  0.95560  0.51600  Biso   1.000  H
  H38      1.0000 0.83560  0.54440  0.01600  Biso   1.000  H
  H39      1.0000 0.16440  0.04440  0.48400  Biso   1.000  H
  H40      1.0000 0.16440  0.45560  0.98400  Biso   1.000  H
  H41      1.0000 0.78390  0.97260  0.42130  Biso   1.000  H
  H42      1.0000 0.78390  0.52740  0.92130  Biso   1.000  H
  H43      1.0000 0.21610  0.02740  0.57870  Biso   1.000  H
  H44      1.0000 0.21610  0.47260  0.07870  Biso   1.000  H
  H45      1.0000 0.92430  0.90630  0.44850  Biso   1.000  H
  H46      1.0000 0.92430  0.59370  0.94850  Biso   1.000  H
  H47      1.0000 0.07570  0.09370  0.55150  Biso   1.000  H
  H48      1.0000 0.07570  0.40630  0.05150  Biso   1.000  H
