data_image0
_cell_length_a       9.416
_cell_length_b       13.109
_cell_length_c       14.79
_cell_angle_alpha    107.65
_cell_angle_beta     100.19
_cell_angle_gamma    106.91

_symmetry_space_group_name_H-M    "P 1"
_symmetry_int_tables_number       1

loop_
  _symmetry_equiv_pos_as_xyz
  'x, y, z'

loop_
  _atom_site_label
  _atom_site_occupancy
  _atom_site_fract_x
  _atom_site_fract_y
  _atom_site_fract_z
  _atom_site_thermal_displace_type
  _atom_site_B_iso_or_equiv
  _atom_site_type_symbol
  C1       1.0000 0.82190  0.71540  0.42640  Biso   1.000  C
  C2       1.0000 0.17810  0.28460  0.57360  Biso   1.000  C
  C3       1.0000 0.83500  0.60960  0.41290  Biso   1.000  C
  C4       1.0000 0.16500  0.39040  0.58710  Biso   1.000  C
  H1       1.0000 0.77610  0.56150  0.43860  Biso   1.000  H
  H2       1.0000 0.22390  0.43850  0.56140  Biso   1.000  H
  C5       1.0000 0.88440  0.77470  0.37000  Biso   1.000  C
  C6       1.0000 0.11560  0.22530  0.63000  Biso   1.000  C
  H3       1.0000 0.85960  0.83780  0.36780  Biso   1.000  H
  H4       1.0000 0.14040  0.16220  0.63220  Biso   1.000  H
  C7       1.0000 0.84270  0.86540  0.61540  Biso   1.000  C
  C8       1.0000 0.15730  0.13460  0.38460  Biso   1.000  C
  C9       1.0000 0.79800  0.89900  0.70150  Biso   1.000  C
  C10      1.0000 0.20200  0.10100  0.29850  Biso   1.000  C
  H5       1.0000 0.69420  0.86430  0.69680  Biso   1.000  H
  H6       1.0000 0.30580  0.13570  0.30320  Biso   1.000  H
  C11      1.0000 0.62100  0.02040  0.42600  Biso   1.000  C
  C12      1.0000 0.37900  0.97960  0.57400  Biso   1.000  C
  H7       1.0000 0.66120  0.10030  0.44770  Biso   1.000  H
  H8       1.0000 0.33880  0.89970  0.55230  Biso   1.000  H
  C13      1.0000 0.62800  0.84490  0.44860  Biso   1.000  C
  C14      1.0000 0.37200  0.15510  0.55140  Biso   1.000  C
  C15      1.0000 0.69500  0.96520  0.48120  Biso   1.000  C
  C16      1.0000 0.30500  0.03480  0.51880  Biso   1.000  C
  H9       1.0000 0.78320  0.00780  0.53540  Biso   1.000  H
  H10      1.0000 0.21680  0.99220  0.46460  Biso   1.000  H
  C17      1.0000 0.25800  0.67930  0.57520  Biso   1.000  C
  C18      1.0000 0.74200  0.32070  0.42480  Biso   1.000  C
  H11      1.0000 0.22500  0.65840  0.50690  Biso   1.000  H
  H12      1.0000 0.77500  0.34160  0.49310  Biso   1.000  H
  C19      1.0000 0.16940  0.70980  0.63030  Biso   1.000  C
  C20      1.0000 0.83060  0.29020  0.36970  Biso   1.000  C
  H13      1.0000 0.07760  0.71480  0.60000  Biso   1.000  H
  H14      1.0000 0.92240  0.28520  0.40000  Biso   1.000  H
  C21      1.0000 0.20900  0.73420  0.72980  Biso   1.000  C
  C22      1.0000 0.79100  0.26580  0.27020  Biso   1.000  C
  C23      1.0000 0.34100  0.73240  0.76770  Biso   1.000  C
  C24      1.0000 0.65900  0.26760  0.23230  Biso   1.000  C
  H15      1.0000 0.37290  0.75130  0.83580  Biso   1.000  H
  H16      1.0000 0.62710  0.24870  0.16420  Biso   1.000  H
  C25      1.0000 0.43900  0.70490  0.71590  Biso   1.000  C
  C26      1.0000 0.56100  0.29510  0.28410  Biso   1.000  C
  H17      1.0000 0.53300  0.70470  0.74820  Biso   1.000  H
  H18      1.0000 0.46700  0.29530  0.25180  Biso   1.000  H
  C27      1.0000 0.93600  0.57220  0.36040  Biso   1.000  C
  C28      1.0000 0.06400  0.42780  0.63960  Biso   1.000  C
  H19      1.0000 0.96110  0.50890  0.36150  Biso   1.000  H
  H20      1.0000 0.03890  0.49110  0.63850  Biso   1.000  H
  C29      1.0000 0.99840  0.91920  0.62410  Biso   1.000  C
  C30      1.0000 0.00160  0.08080  0.37590  Biso   1.000  C
  H21      1.0000 0.03620  0.90370  0.56950  Biso   1.000  H
  H22      1.0000 0.96380  0.09630  0.43050  Biso   1.000  H
  C31      1.0000 0.09100  0.99320  0.71300  Biso   1.000  C
  C32      1.0000 0.90900  0.00680  0.28700  Biso   1.000  C
  H23      1.0000 0.19620  0.02440  0.71980  Biso   1.000  H
  H24      1.0000 0.80380  0.97560  0.28020  Biso   1.000  H
  C33      1.0000 0.04500  0.02530  0.79140  Biso   1.000  C
  C34      1.0000 0.95500  0.97470  0.20860  Biso   1.000  C
  H25      1.0000 0.11320  0.08160  0.85100  Biso   1.000  H
  H26      1.0000 0.88680  0.91840  0.14900  Biso   1.000  H
  C35      1.0000 0.88200  0.96890  0.78150  Biso   1.000  C
  C36      1.0000 0.11800  0.03110  0.21850  Biso   1.000  C
  H27      1.0000 0.84320  0.98630  0.83560  Biso   1.000  H
  H28      1.0000 0.15680  0.01370  0.16440  Biso   1.000  H
  C37      1.0000 0.98100  0.74280  0.31790  Biso   1.000  C
  C38      1.0000 0.01900  0.25720  0.68210  Biso   1.000  C
  H29      1.0000 0.03560  0.79320  0.29240  Biso   1.000  H
  H30      1.0000 0.96440  0.20680  0.70760  Biso   1.000  H
  C39      1.0000 0.00000  0.64520  0.30250  Biso   1.000  C
  C40      1.0000 1.00000  0.35480  0.69750  Biso   1.000  C
  H31      1.0000 0.05070  0.61990  0.25700  Biso   1.000  H
  H32      1.0000 0.94930  0.38010  0.74300  Biso   1.000  H
  C41      1.0000 0.10100  0.76150  0.79150  Biso   1.000  C
  C42      1.0000 0.89900  0.23850  0.20850  Biso   1.000  C
  H33      1.0000 0.00190  0.75520  0.76110  Biso   1.000  H
  H34      1.0000 0.99810  0.24480  0.23890  Biso   1.000  H
  C43      1.0000 0.50000  0.79200  0.36100  Biso   1.000  C
  C44      1.0000 0.50000  0.20800  0.63900  Biso   1.000  C
  H35      1.0000 0.45440  0.71190  0.33430  Biso   1.000  H
  H36      1.0000 0.54560  0.28810  0.66570  Biso   1.000  H
  C45      1.0000 0.44400  0.85000  0.31530  Biso   1.000  C
  C46      1.0000 0.55600  0.15000  0.68470  Biso   1.000  C
  H37      1.0000 0.36060  0.80980  0.25810  Biso   1.000  H
  H38      1.0000 0.63940  0.19020  0.74190  Biso   1.000  H
  C47      1.0000 0.50400  0.96600  0.34900  Biso   1.000  C
  C48      1.0000 0.49600  0.03400  0.65100  Biso   1.000  C
  H39      1.0000 0.45970  0.00500  0.31700  Biso   1.000  H
  H40      1.0000 0.54030  0.99500  0.68300  Biso   1.000  H
  C49      1.0000 0.03400  0.75000  0.00680  Biso   1.000  C
  C50      1.0000 0.96600  0.25000  0.99320  Biso   1.000  C
  H41      1.0000 0.13810  0.78390  0.05150  Biso   1.000  H
  H42      1.0000 0.86190  0.21610  0.94850  Biso   1.000  H
  H43      1.0000 0.96310  0.76220  0.04590  Biso   1.000  H
  H44      1.0000 0.03690  0.23780  0.95410  Biso   1.000  H
  C51      1.0000 0.99400  0.62700  0.95600  Biso   1.000  C
  C52      1.0000 0.00600  0.37300  0.04400  Biso   1.000  C
  H45      1.0000 0.06480  0.61720  0.91670  Biso   1.000  H
  H46      1.0000 0.93520  0.38280  0.08330  Biso   1.000  H
  H47      1.0000 0.89050  0.59580  0.91040  Biso   1.000  H
  H48      1.0000 0.10950  0.40420  0.08960  Biso   1.000  H
  C53      1.0000 0.99800  0.56000  0.01860  Biso   1.000  C
  C54      1.0000 0.00200  0.44000  0.98140  Biso   1.000  C
  H49      1.0000 0.90880  0.55480  0.04330  Biso   1.000  H
  H50      1.0000 0.09120  0.44520  0.95670  Biso   1.000  H
  H51      1.0000 0.08910  0.60630  0.07550  Biso   1.000  H
  H52      1.0000 0.91090  0.39370  0.92450  Biso   1.000  H
  N1       1.0000 0.39890  0.67830  0.61830  Biso   1.000  N
  N2       1.0000 0.60110  0.32170  0.38170  Biso   1.000  N
  N3       1.0000 0.14740  0.79180  0.88170  Biso   1.000  N
  N4       1.0000 0.85260  0.20820  0.11830  Biso   1.000  N
  C55      1.0000 0.02300  0.80510  0.93520  Biso   1.000  C
  C56      1.0000 0.97700  0.19490  0.06480  Biso   1.000  C
  H53      1.0000 0.04040  0.88010  0.96630  Biso   1.000  H
  H54      1.0000 0.95960  0.11990  0.03370  Biso   1.000  H
  H55      1.0000 0.92790  0.77130  0.89120  Biso   1.000  H
  H56      1.0000 0.07210  0.22870  0.10880  Biso   1.000  H
  P1       1.0000 0.70100  0.75950  0.50160  Biso   1.000  P
  P2       1.0000 0.29900  0.24050  0.49840  Biso   1.000  P
  Cu1      1.0000 0.52890  0.62451  0.52979  Biso   1.000  Cu
  Cu2      1.0000 0.47110  0.37549  0.47021  Biso   1.000  Cu
  I1       1.0000 0.31873  0.46604  0.36564  Biso   1.000  I
  I2       1.0000 0.68127  0.53396  0.63436  Biso   1.000  I
  O1       1.0000 0.63300  0.87500  0.99800  Biso   1.000  O
  O2       1.0000 0.36700  0.12500  0.00200  Biso   1.000  O
