data_image0
_cell_length_a       24.225
_cell_length_b       9.6254
_cell_length_c       16.37
_cell_angle_alpha    90
_cell_angle_beta     118.54
_cell_angle_gamma    90

_symmetry_space_group_name_H-M    "P 1"
_symmetry_int_tables_number       1

loop_
  _symmetry_equiv_pos_as_xyz
  'x, y, z'

loop_
  _atom_site_label
  _atom_site_occupancy
  _atom_site_fract_x
  _atom_site_fract_y
  _atom_site_fract_z
  _atom_site_thermal_displace_type
  _atom_site_B_iso_or_equiv
  _atom_site_type_symbol
  Cu1      1.0000 0.04177  0.38001  0.37793  Biso   1.000  Cu
  Cu2      1.0000 0.95823  0.38001  0.12207  Biso   1.000  Cu
  Cu3      1.0000 0.54177  0.88001  0.37793  Biso   1.000  Cu
  Cu4      1.0000 0.45823  0.88001  0.12207  Biso   1.000  Cu
  Cu5      1.0000 0.95823  0.61999  0.62207  Biso   1.000  Cu
  Cu6      1.0000 0.04177  0.61999  0.87793  Biso   1.000  Cu
  Cu7      1.0000 0.45823  0.11999  0.62207  Biso   1.000  Cu
  Cu8      1.0000 0.54177  0.11999  0.87793  Biso   1.000  Cu
  Cu9      1.0000 0.04178  0.18003  0.03391  Biso   1.000  Cu
  Cu10     1.0000 0.95822  0.18003  0.46609  Biso   1.000  Cu
  Cu11     1.0000 0.54178  0.68003  0.03391  Biso   1.000  Cu
  Cu12     1.0000 0.45822  0.68003  0.46609  Biso   1.000  Cu
  Cu13     1.0000 0.95822  0.81997  0.96609  Biso   1.000  Cu
  Cu14     1.0000 0.04178  0.81997  0.53391  Biso   1.000  Cu
  Cu15     1.0000 0.45822  0.31997  0.96609  Biso   1.000  Cu
  Cu16     1.0000 0.54178  0.31997  0.53391  Biso   1.000  Cu
  N1       1.0000 0.13637  0.01550  0.52550  Biso   1.000  N
  N2       1.0000 0.86363  0.01550  0.97450  Biso   1.000  N
  N3       1.0000 0.63637  0.51550  0.52550  Biso   1.000  N
  N4       1.0000 0.36363  0.51550  0.97450  Biso   1.000  N
  N5       1.0000 0.86363  0.98450  0.47450  Biso   1.000  N
  N6       1.0000 0.13637  0.98450  0.02550  Biso   1.000  N
  N7       1.0000 0.36363  0.48450  0.47450  Biso   1.000  N
  N8       1.0000 0.63637  0.48450  0.02550  Biso   1.000  N
  N9       1.0000 0.07839  0.00270  0.51740  Biso   1.000  N
  N10      1.0000 0.92161  0.00270  0.98260  Biso   1.000  N
  N11      1.0000 0.57839  0.50270  0.51740  Biso   1.000  N
  N12      1.0000 0.42161  0.50270  0.98260  Biso   1.000  N
  N13      1.0000 0.92161  0.99730  0.48260  Biso   1.000  N
  N14      1.0000 0.07839  0.99730  0.01740  Biso   1.000  N
  N15      1.0000 0.42161  0.49730  0.48260  Biso   1.000  N
  N16      1.0000 0.57839  0.49730  0.01740  Biso   1.000  N
  N17      1.0000 0.04587  0.11610  0.48080  Biso   1.000  N
  N18      1.0000 0.95413  0.11610  0.01920  Biso   1.000  N
  N19      1.0000 0.54587  0.61610  0.48080  Biso   1.000  N
  N20      1.0000 0.45413  0.61610  0.01920  Biso   1.000  N
  N21      1.0000 0.95413  0.88390  0.51920  Biso   1.000  N
  N22      1.0000 0.04587  0.88390  0.98080  Biso   1.000  N
  N23      1.0000 0.45413  0.38390  0.51920  Biso   1.000  N
  N24      1.0000 0.54587  0.38390  0.98080  Biso   1.000  N
  N25      1.0000 0.08105  0.20620  0.46320  Biso   1.000  N
  N26      1.0000 0.91895  0.20620  0.03680  Biso   1.000  N
  N27      1.0000 0.58105  0.70620  0.46320  Biso   1.000  N
  N28      1.0000 0.41895  0.70620  0.03680  Biso   1.000  N
  N29      1.0000 0.91895  0.79380  0.53680  Biso   1.000  N
  N30      1.0000 0.08105  0.79380  0.96320  Biso   1.000  N
  N31      1.0000 0.41895  0.29380  0.53680  Biso   1.000  N
  N32      1.0000 0.58105  0.29380  0.96320  Biso   1.000  N
  N33      1.0000 0.14096  0.21420  0.24400  Biso   1.000  N
  N34      1.0000 0.85904  0.21420  0.25600  Biso   1.000  N
  N35      1.0000 0.64096  0.71420  0.24400  Biso   1.000  N
  N36      1.0000 0.35904  0.71420  0.25600  Biso   1.000  N
  N37      1.0000 0.85904  0.78580  0.75600  Biso   1.000  N
  N38      1.0000 0.14096  0.78580  0.74400  Biso   1.000  N
  N39      1.0000 0.35904  0.28580  0.75600  Biso   1.000  N
  N40      1.0000 0.64096  0.28580  0.74400  Biso   1.000  N
  N41      1.0000 0.08322  0.23750  0.17440  Biso   1.000  N
  N42      1.0000 0.91678  0.23750  0.32560  Biso   1.000  N
  N43      1.0000 0.58322  0.73750  0.17440  Biso   1.000  N
  N44      1.0000 0.41678  0.73750  0.32560  Biso   1.000  N
  N45      1.0000 0.91678  0.76250  0.82560  Biso   1.000  N
  N46      1.0000 0.08322  0.76250  0.67440  Biso   1.000  N
  N47      1.0000 0.41678  0.26250  0.82560  Biso   1.000  N
  N48      1.0000 0.58322  0.26250  0.67440  Biso   1.000  N
  N49      1.0000 0.04843  0.29560  0.20620  Biso   1.000  N
  N50      1.0000 0.95157  0.29560  0.29380  Biso   1.000  N
  N51      1.0000 0.54843  0.79560  0.20620  Biso   1.000  N
  N52      1.0000 0.45157  0.79560  0.29380  Biso   1.000  N
  N53      1.0000 0.95157  0.70440  0.79380  Biso   1.000  N
  N54      1.0000 0.04843  0.70440  0.70620  Biso   1.000  N
  N55      1.0000 0.45157  0.20440  0.79380  Biso   1.000  N
  N56      1.0000 0.54843  0.20440  0.70620  Biso   1.000  N
  N57      1.0000 0.08235  0.30990  0.29870  Biso   1.000  N
  N58      1.0000 0.91765  0.30990  0.20130  Biso   1.000  N
  N59      1.0000 0.58235  0.80990  0.29870  Biso   1.000  N
  N60      1.0000 0.41765  0.80990  0.20130  Biso   1.000  N
  N61      1.0000 0.91765  0.69010  0.70130  Biso   1.000  N
  N62      1.0000 0.08235  0.69010  0.79870  Biso   1.000  N
  N63      1.0000 0.41765  0.19010  0.70130  Biso   1.000  N
  N64      1.0000 0.58235  0.19010  0.79870  Biso   1.000  N
  N65      1.0000 0.04060  0.43880  0.92510  Biso   1.000  N
  N66      1.0000 0.95940  0.43880  0.57490  Biso   1.000  N
  N67      1.0000 0.54060  0.93880  0.92510  Biso   1.000  N
  N68      1.0000 0.45940  0.93880  0.57490  Biso   1.000  N
  N69      1.0000 0.95940  0.56120  0.07490  Biso   1.000  N
  N70      1.0000 0.04060  0.56120  0.42510  Biso   1.000  N
  N71      1.0000 0.45940  0.06120  0.07490  Biso   1.000  N
  N72      1.0000 0.54060  0.06120  0.42510  Biso   1.000  N
  C1       1.0000 0.25130  0.30180  0.42260  Biso   1.000  C
  C2       1.0000 0.74870  0.30180  0.07740  Biso   1.000  C
  C3       1.0000 0.75130  0.80180  0.42260  Biso   1.000  C
  C4       1.0000 0.24870  0.80180  0.07740  Biso   1.000  C
  C5       1.0000 0.74870  0.69820  0.57740  Biso   1.000  C
  C6       1.0000 0.25130  0.69820  0.92260  Biso   1.000  C
  C7       1.0000 0.24870  0.19820  0.57740  Biso   1.000  C
  C8       1.0000 0.75130  0.19820  0.92260  Biso   1.000  C
  H1       1.0000 0.25210  0.33660  0.37010  Biso   1.000  H
  H2       1.0000 0.74790  0.33660  0.12990  Biso   1.000  H
  H3       1.0000 0.75210  0.83660  0.37010  Biso   1.000  H
  H4       1.0000 0.24790  0.83660  0.12990  Biso   1.000  H
  H5       1.0000 0.74790  0.66340  0.62990  Biso   1.000  H
  H6       1.0000 0.25210  0.66340  0.87010  Biso   1.000  H
  H7       1.0000 0.24790  0.16340  0.62990  Biso   1.000  H
  H8       1.0000 0.75210  0.16340  0.87010  Biso   1.000  H
  C9       1.0000 0.19460  0.25440  0.41430  Biso   1.000  C
  C10      1.0000 0.80540  0.25440  0.08570  Biso   1.000  C
  C11      1.0000 0.69460  0.75440  0.41430  Biso   1.000  C
  C12      1.0000 0.30540  0.75440  0.08570  Biso   1.000  C
  C13      1.0000 0.80540  0.74560  0.58570  Biso   1.000  C
  C14      1.0000 0.19460  0.74560  0.91430  Biso   1.000  C
  C15      1.0000 0.30540  0.24560  0.58570  Biso   1.000  C
  C16      1.0000 0.69460  0.24560  0.91430  Biso   1.000  C
  C17      1.0000 0.19280  0.20100  0.49280  Biso   1.000  C
  C18      1.0000 0.80720  0.20100  0.00720  Biso   1.000  C
  C19      1.0000 0.69280  0.70100  0.49280  Biso   1.000  C
  C20      1.0000 0.30720  0.70100  0.00720  Biso   1.000  C
  C21      1.0000 0.80720  0.79900  0.50720  Biso   1.000  C
  C22      1.0000 0.19280  0.79900  0.99280  Biso   1.000  C
  C23      1.0000 0.30720  0.29900  0.50720  Biso   1.000  C
  C24      1.0000 0.69280  0.29900  0.99280  Biso   1.000  C
  C25      1.0000 0.13630  0.14170  0.49140  Biso   1.000  C
  C26      1.0000 0.86370  0.14170  0.00860  Biso   1.000  C
  C27      1.0000 0.63630  0.64170  0.49140  Biso   1.000  C
  C28      1.0000 0.36370  0.64170  0.00860  Biso   1.000  C
  C29      1.0000 0.86370  0.85830  0.50860  Biso   1.000  C
  C30      1.0000 0.13630  0.85830  0.99140  Biso   1.000  C
  C31      1.0000 0.36370  0.35830  0.50860  Biso   1.000  C
  C32      1.0000 0.63630  0.35830  0.99140  Biso   1.000  C
  C33      1.0000 0.13890  0.25810  0.32010  Biso   1.000  C
  C34      1.0000 0.86110  0.25810  0.17990  Biso   1.000  C
  C35      1.0000 0.63890  0.75810  0.32010  Biso   1.000  C
  C36      1.0000 0.36110  0.75810  0.17990  Biso   1.000  C
  C37      1.0000 0.86110  0.74190  0.67990  Biso   1.000  C
  C38      1.0000 0.13890  0.74190  0.82010  Biso   1.000  C
  C39      1.0000 0.36110  0.24190  0.67990  Biso   1.000  C
  C40      1.0000 0.63890  0.24190  0.82010  Biso   1.000  C
  C41      1.0000 0.03940  0.33610  0.95790  Biso   1.000  C
  C42      1.0000 0.96060  0.33610  0.54210  Biso   1.000  C
  C43      1.0000 0.53940  0.83610  0.95790  Biso   1.000  C
  C44      1.0000 0.46060  0.83610  0.54210  Biso   1.000  C
  C45      1.0000 0.96060  0.66390  0.04210  Biso   1.000  C
  C46      1.0000 0.03940  0.66390  0.45790  Biso   1.000  C
  C47      1.0000 0.46060  0.16390  0.04210  Biso   1.000  C
  C48      1.0000 0.53940  0.16390  0.45790  Biso   1.000  C
  O1       1.0000 0.28200  0.31960  0.84290  Biso   1.000  O
  O2       1.0000 0.71800  0.31960  0.65710  Biso   1.000  O
  O3       1.0000 0.78200  0.81960  0.84290  Biso   1.000  O
  O4       1.0000 0.21800  0.81960  0.65710  Biso   1.000  O
  O5       1.0000 0.71800  0.68040  0.15710  Biso   1.000  O
  O6       1.0000 0.28200  0.68040  0.34290  Biso   1.000  O
  O7       1.0000 0.21800  0.18040  0.15710  Biso   1.000  O
  O8       1.0000 0.78200  0.18040  0.34290  Biso   1.000  O
  N73      1.0000 0.15880  0.26870  0.78930  Biso   1.000  N
  N74      1.0000 0.84120  0.26870  0.71070  Biso   1.000  N
  N75      1.0000 0.65880  0.76870  0.78930  Biso   1.000  N
  N76      1.0000 0.34120  0.76870  0.71070  Biso   1.000  N
  N77      1.0000 0.84120  0.73130  0.21070  Biso   1.000  N
  N78      1.0000 0.15880  0.73130  0.28930  Biso   1.000  N
  N79      1.0000 0.34120  0.23130  0.21070  Biso   1.000  N
  N80      1.0000 0.65880  0.23130  0.28930  Biso   1.000  N
  H9       1.0000 0.20090  0.27520  0.81030  Biso   1.000  H
  H10      1.0000 0.79910  0.27520  0.68970  Biso   1.000  H
  H11      1.0000 0.70090  0.77520  0.81030  Biso   1.000  H
  H12      1.0000 0.29910  0.77520  0.68970  Biso   1.000  H
  H13      1.0000 0.79910  0.72480  0.18970  Biso   1.000  H
  H14      1.0000 0.20090  0.72480  0.31030  Biso   1.000  H
  H15      1.0000 0.29910  0.22480  0.18970  Biso   1.000  H
  H16      1.0000 0.70090  0.22480  0.31030  Biso   1.000  H
  C49      1.0000 0.14240  0.42870  0.65820  Biso   1.000  C
  C50      1.0000 0.85760  0.42870  0.84180  Biso   1.000  C
  C51      1.0000 0.64240  0.92870  0.65820  Biso   1.000  C
  C52      1.0000 0.35760  0.92870  0.84180  Biso   1.000  C
  C53      1.0000 0.85760  0.57130  0.34180  Biso   1.000  C
  C54      1.0000 0.14240  0.57130  0.15820  Biso   1.000  C
  C55      1.0000 0.35760  0.07130  0.34180  Biso   1.000  C
  C56      1.0000 0.64240  0.07130  0.15820  Biso   1.000  C
  H17      1.0000 0.13320  0.50450  0.68790  Biso   1.000  H
  H18      1.0000 0.86680  0.50450  0.81210  Biso   1.000  H
  H19      1.0000 0.63320  0.00450  0.68790  Biso   1.000  H
  H20      1.0000 0.36680  0.00450  0.81210  Biso   1.000  H
  H21      1.0000 0.86680  0.49550  0.31210  Biso   1.000  H
  H22      1.0000 0.13320  0.49550  0.18790  Biso   1.000  H
  H23      1.0000 0.36680  0.99550  0.31210  Biso   1.000  H
  H24      1.0000 0.63320  0.99550  0.18790  Biso   1.000  H
  H25      1.0000 0.11960  0.44070  0.59200  Biso   1.000  H
  H26      1.0000 0.88040  0.44070  0.90800  Biso   1.000  H
  H27      1.0000 0.61960  0.94070  0.59200  Biso   1.000  H
  H28      1.0000 0.38040  0.94070  0.90800  Biso   1.000  H
  H29      1.0000 0.88040  0.55930  0.40800  Biso   1.000  H
  H30      1.0000 0.11960  0.55930  0.09200  Biso   1.000  H
  H31      1.0000 0.38040  0.05930  0.40800  Biso   1.000  H
  H32      1.0000 0.61960  0.05930  0.09200  Biso   1.000  H
  H33      1.0000 0.18670  0.42690  0.67820  Biso   1.000  H
  H34      1.0000 0.81330  0.42690  0.82180  Biso   1.000  H
  H35      1.0000 0.68670  0.92690  0.67820  Biso   1.000  H
  H36      1.0000 0.31330  0.92690  0.82180  Biso   1.000  H
  H37      1.0000 0.81330  0.57310  0.32180  Biso   1.000  H
  H38      1.0000 0.18670  0.57310  0.17820  Biso   1.000  H
  H39      1.0000 0.31330  0.07310  0.32180  Biso   1.000  H
  H40      1.0000 0.68670  0.07310  0.17820  Biso   1.000  H
  C57      1.0000 0.12490  0.30570  0.68190  Biso   1.000  C
  C58      1.0000 0.87510  0.30570  0.81810  Biso   1.000  C
  C59      1.0000 0.62490  0.80570  0.68190  Biso   1.000  C
  C60      1.0000 0.37510  0.80570  0.81810  Biso   1.000  C
  C61      1.0000 0.87510  0.69430  0.31810  Biso   1.000  C
  C62      1.0000 0.12490  0.69430  0.18190  Biso   1.000  C
  C63      1.0000 0.37510  0.19430  0.31810  Biso   1.000  C
  C64      1.0000 0.62490  0.19430  0.18190  Biso   1.000  C
  H41      1.0000 0.13280  0.23090  0.64900  Biso   1.000  H
  H42      1.0000 0.86720  0.23090  0.85100  Biso   1.000  H
  H43      1.0000 0.63280  0.73090  0.64900  Biso   1.000  H
  H44      1.0000 0.36720  0.73090  0.85100  Biso   1.000  H
  H45      1.0000 0.86720  0.76910  0.35100  Biso   1.000  H
  H46      1.0000 0.13280  0.76910  0.14900  Biso   1.000  H
  H47      1.0000 0.36720  0.26910  0.35100  Biso   1.000  H
  H48      1.0000 0.63280  0.26910  0.14900  Biso   1.000  H
  H49      1.0000 0.07990  0.30860  0.65980  Biso   1.000  H
  H50      1.0000 0.92010  0.30860  0.84020  Biso   1.000  H
  H51      1.0000 0.57990  0.80860  0.65980  Biso   1.000  H
  H52      1.0000 0.42010  0.80860  0.84020  Biso   1.000  H
  H53      1.0000 0.92010  0.69140  0.34020  Biso   1.000  H
  H54      1.0000 0.07990  0.69140  0.15980  Biso   1.000  H
  H55      1.0000 0.42010  0.19140  0.34020  Biso   1.000  H
  H56      1.0000 0.57990  0.19140  0.15980  Biso   1.000  H
  C65      1.0000 0.18420  0.36490  0.94460  Biso   1.000  C
  C66      1.0000 0.81580  0.36490  0.55540  Biso   1.000  C
  C67      1.0000 0.68420  0.86490  0.94460  Biso   1.000  C
  C68      1.0000 0.31580  0.86490  0.55540  Biso   1.000  C
  C69      1.0000 0.81580  0.63510  0.05540  Biso   1.000  C
  C70      1.0000 0.18420  0.63510  0.44460  Biso   1.000  C
  C71      1.0000 0.31580  0.13510  0.05540  Biso   1.000  C
  C72      1.0000 0.68420  0.13510  0.44460  Biso   1.000  C
  H57      1.0000 0.18150  0.27310  0.96540  Biso   1.000  H
  H58      1.0000 0.81850  0.27310  0.53460  Biso   1.000  H
  H59      1.0000 0.68150  0.77310  0.96540  Biso   1.000  H
  H60      1.0000 0.31850  0.77310  0.53460  Biso   1.000  H
  H61      1.0000 0.81850  0.72690  0.03460  Biso   1.000  H
  H62      1.0000 0.18150  0.72690  0.46540  Biso   1.000  H
  H63      1.0000 0.31850  0.22690  0.03460  Biso   1.000  H
  H64      1.0000 0.68150  0.22690  0.46540  Biso   1.000  H
  H65      1.0000 0.16920  0.43130  0.97320  Biso   1.000  H
  H66      1.0000 0.83080  0.43130  0.52680  Biso   1.000  H
  H67      1.0000 0.66920  0.93130  0.97320  Biso   1.000  H
  H68      1.0000 0.33080  0.93130  0.52680  Biso   1.000  H
  H69      1.0000 0.83080  0.56870  0.02680  Biso   1.000  H
  H70      1.0000 0.16920  0.56870  0.47320  Biso   1.000  H
  H71      1.0000 0.33080  0.06870  0.02680  Biso   1.000  H
  H72      1.0000 0.66920  0.06870  0.47320  Biso   1.000  H
  H73      1.0000 0.22720  0.38520  0.96160  Biso   1.000  H
  H74      1.0000 0.77280  0.38520  0.53840  Biso   1.000  H
  H75      1.0000 0.72720  0.88520  0.96160  Biso   1.000  H
  H76      1.0000 0.27280  0.88520  0.53840  Biso   1.000  H
  H77      1.0000 0.77280  0.61480  0.03840  Biso   1.000  H
  H78      1.0000 0.22720  0.61480  0.46160  Biso   1.000  H
  H79      1.0000 0.27280  0.11480  0.03840  Biso   1.000  H
  H80      1.0000 0.72720  0.11480  0.46160  Biso   1.000  H
  C73      1.0000 0.14250  0.37320  0.83480  Biso   1.000  C
  C74      1.0000 0.85750  0.37320  0.66520  Biso   1.000  C
  C75      1.0000 0.64250  0.87320  0.83480  Biso   1.000  C
  C76      1.0000 0.35750  0.87320  0.66520  Biso   1.000  C
  C77      1.0000 0.85750  0.62680  0.16520  Biso   1.000  C
  C78      1.0000 0.14250  0.62680  0.33480  Biso   1.000  C
  C79      1.0000 0.35750  0.12680  0.16520  Biso   1.000  C
  C80      1.0000 0.64250  0.12680  0.33480  Biso   1.000  C
  H81      1.0000 0.09860  0.36340  0.81840  Biso   1.000  H
  H82      1.0000 0.90140  0.36340  0.68160  Biso   1.000  H
  H83      1.0000 0.59860  0.86340  0.81840  Biso   1.000  H
  H84      1.0000 0.40140  0.86340  0.68160  Biso   1.000  H
  H85      1.0000 0.90140  0.63660  0.18160  Biso   1.000  H
  H86      1.0000 0.09860  0.63660  0.31840  Biso   1.000  H
  H87      1.0000 0.40140  0.13660  0.18160  Biso   1.000  H
  H88      1.0000 0.59860  0.13660  0.31840  Biso   1.000  H
  H89      1.0000 0.14790  0.46370  0.81350  Biso   1.000  H
  H90      1.0000 0.85210  0.46370  0.68650  Biso   1.000  H
  H91      1.0000 0.64790  0.96370  0.81350  Biso   1.000  H
  H92      1.0000 0.35210  0.96370  0.68650  Biso   1.000  H
  H93      1.0000 0.85210  0.53630  0.18650  Biso   1.000  H
  H94      1.0000 0.14790  0.53630  0.31350  Biso   1.000  H
  H95      1.0000 0.35210  0.03630  0.18650  Biso   1.000  H
  H96      1.0000 0.64790  0.03630  0.31350  Biso   1.000  H
  C81      1.0000 0.07340  0.10030  0.76100  Biso   1.000  C
  C82      1.0000 0.92660  0.10030  0.73900  Biso   1.000  C
  C83      1.0000 0.57340  0.60030  0.76100  Biso   1.000  C
  C84      1.0000 0.42660  0.60030  0.73900  Biso   1.000  C
  C85      1.0000 0.92660  0.89970  0.23900  Biso   1.000  C
  C86      1.0000 0.07340  0.89970  0.26100  Biso   1.000  C
  C87      1.0000 0.42660  0.39970  0.23900  Biso   1.000  C
  C88      1.0000 0.57340  0.39970  0.26100  Biso   1.000  C
  H97      1.0000 0.05850  0.17570  0.78360  Biso   1.000  H
  H98      1.0000 0.94150  0.17570  0.71640  Biso   1.000  H
  H99      1.0000 0.55850  0.67570  0.78360  Biso   1.000  H
  H100     1.0000 0.44150  0.67570  0.71640  Biso   1.000  H
  H101     1.0000 0.94150  0.82430  0.21640  Biso   1.000  H
  H102     1.0000 0.05850  0.82430  0.28360  Biso   1.000  H
  H103     1.0000 0.44150  0.32430  0.21640  Biso   1.000  H
  H104     1.0000 0.55850  0.32430  0.28360  Biso   1.000  H
  H105     1.0000 0.06930  0.01470  0.78770  Biso   1.000  H
  H106     1.0000 0.93070  0.01470  0.71230  Biso   1.000  H
  H107     1.0000 0.56930  0.51470  0.78770  Biso   1.000  H
  H108     1.0000 0.43070  0.51470  0.71230  Biso   1.000  H
  H109     1.0000 0.93070  0.98530  0.21230  Biso   1.000  H
  H110     1.0000 0.06930  0.98530  0.28770  Biso   1.000  H
  H111     1.0000 0.43070  0.48530  0.21230  Biso   1.000  H
  H112     1.0000 0.56930  0.48530  0.28770  Biso   1.000  H
  H113     1.0000 0.04890  0.09550  0.69450  Biso   1.000  H
  H114     1.0000 0.95110  0.09550  0.80550  Biso   1.000  H
  H115     1.0000 0.54890  0.59550  0.69450  Biso   1.000  H
  H116     1.0000 0.45110  0.59550  0.80550  Biso   1.000  H
  H117     1.0000 0.95110  0.90450  0.30550  Biso   1.000  H
  H118     1.0000 0.04890  0.90450  0.19450  Biso   1.000  H
  H119     1.0000 0.45110  0.40450  0.30550  Biso   1.000  H
  H120     1.0000 0.54890  0.40450  0.19450  Biso   1.000  H
  C89      1.0000 0.14430  0.12490  0.78890  Biso   1.000  C
  C90      1.0000 0.85570  0.12490  0.71110  Biso   1.000  C
  C91      1.0000 0.64430  0.62490  0.78890  Biso   1.000  C
  C92      1.0000 0.35570  0.62490  0.71110  Biso   1.000  C
  C93      1.0000 0.85570  0.87510  0.21110  Biso   1.000  C
  C94      1.0000 0.14430  0.87510  0.28890  Biso   1.000  C
  C95      1.0000 0.35570  0.37510  0.21110  Biso   1.000  C
  C96      1.0000 0.64430  0.37510  0.28890  Biso   1.000  C
  H121     1.0000 0.17050  0.08650  0.85030  Biso   1.000  H
  H122     1.0000 0.82950  0.08650  0.64970  Biso   1.000  H
  H123     1.0000 0.67050  0.58650  0.85030  Biso   1.000  H
  H124     1.0000 0.32950  0.58650  0.64970  Biso   1.000  H
  H125     1.0000 0.82950  0.91350  0.14970  Biso   1.000  H
  H126     1.0000 0.17050  0.91350  0.35030  Biso   1.000  H
  H127     1.0000 0.32950  0.41350  0.14970  Biso   1.000  H
  H128     1.0000 0.67050  0.41350  0.35030  Biso   1.000  H
  H129     1.0000 0.15400  0.07610  0.74550  Biso   1.000  H
  H130     1.0000 0.84600  0.07610  0.75450  Biso   1.000  H
  H131     1.0000 0.65400  0.57610  0.74550  Biso   1.000  H
  H132     1.0000 0.34600  0.57610  0.75450  Biso   1.000  H
  H133     1.0000 0.84600  0.92390  0.25450  Biso   1.000  H
  H134     1.0000 0.15400  0.92390  0.24550  Biso   1.000  H
  H135     1.0000 0.34600  0.42390  0.25450  Biso   1.000  H
  H136     1.0000 0.65400  0.42390  0.24550  Biso   1.000  H
