data_image0
_cell_length_a       24.349
_cell_length_b       9.2334
_cell_length_c       16.959
_cell_angle_alpha    90
_cell_angle_beta     119.41
_cell_angle_gamma    90

_symmetry_space_group_name_H-M    "P 1"
_symmetry_int_tables_number       1

loop_
  _symmetry_equiv_pos_as_xyz
  'x, y, z'

loop_
  _atom_site_label
  _atom_site_occupancy
  _atom_site_fract_x
  _atom_site_fract_y
  _atom_site_fract_z
  _atom_site_thermal_displace_type
  _atom_site_B_iso_or_equiv
  _atom_site_type_symbol
  Cu1      1.0000 0.15336  0.67062  0.32335  Biso   1.000  Cu
  Cu2      1.0000 0.15336  0.32938  0.82335  Biso   1.000  Cu
  Cu3      1.0000 0.65336  0.17062  0.32335  Biso   1.000  Cu
  Cu4      1.0000 0.65336  0.82938  0.82335  Biso   1.000  Cu
  Cu5      1.0000 0.14800  0.89651  0.64849  Biso   1.000  Cu
  Cu6      1.0000 0.14800  0.10349  0.14849  Biso   1.000  Cu
  Cu7      1.0000 0.64800  0.39651  0.64849  Biso   1.000  Cu
  Cu8      1.0000 0.64800  0.60349  0.14849  Biso   1.000  Cu
  Cu9      1.0000 0.06310  0.68569  0.72744  Biso   1.000  Cu
  Cu10     1.0000 0.06310  0.31431  0.22744  Biso   1.000  Cu
  Cu11     1.0000 0.56310  0.18569  0.72744  Biso   1.000  Cu
  Cu12     1.0000 0.56310  0.81431  0.22744  Biso   1.000  Cu
  Cu13     1.0000 0.06379  0.87942  0.39709  Biso   1.000  Cu
  Cu14     1.0000 0.06379  0.12058  0.89709  Biso   1.000  Cu
  Cu15     1.0000 0.56379  0.37942  0.39709  Biso   1.000  Cu
  Cu16     1.0000 0.56379  0.62058  0.89709  Biso   1.000  Cu
  N1       1.0000 0.19260  0.73870  0.45790  Biso   1.000  N
  N2       1.0000 0.19260  0.26130  0.95790  Biso   1.000  N
  N3       1.0000 0.69260  0.23870  0.45790  Biso   1.000  N
  N4       1.0000 0.69260  0.76130  0.95790  Biso   1.000  N
  N5       1.0000 0.24930  0.71630  0.52890  Biso   1.000  N
  N6       1.0000 0.24930  0.28370  0.02890  Biso   1.000  N
  N7       1.0000 0.74930  0.21630  0.52890  Biso   1.000  N
  N8       1.0000 0.74930  0.78370  0.02890  Biso   1.000  N
  N9       1.0000 0.18950  0.82700  0.57350  Biso   1.000  N
  N10      1.0000 0.18950  0.17300  0.07350  Biso   1.000  N
  N11      1.0000 0.68950  0.32700  0.57350  Biso   1.000  N
  N12      1.0000 0.68950  0.67300  0.07350  Biso   1.000  N
  N13      1.0000 0.15580  0.80650  0.48370  Biso   1.000  N
  N14      1.0000 0.15580  0.19350  0.98370  Biso   1.000  N
  N15      1.0000 0.65580  0.30650  0.48370  Biso   1.000  N
  N16      1.0000 0.65580  0.69350  0.98370  Biso   1.000  N
  N17      1.0000 0.18720  0.71890  0.73430  Biso   1.000  N
  N18      1.0000 0.18720  0.28110  0.23430  Biso   1.000  N
  N19      1.0000 0.68720  0.21890  0.73430  Biso   1.000  N
  N20      1.0000 0.68720  0.78110  0.23430  Biso   1.000  N
  N21      1.0000 0.15450  0.62980  0.75950  Biso   1.000  N
  N22      1.0000 0.15450  0.37020  0.25950  Biso   1.000  N
  N23      1.0000 0.65450  0.12980  0.75950  Biso   1.000  N
  N24      1.0000 0.65450  0.87020  0.25950  Biso   1.000  N
  N25      1.0000 0.19020  0.52250  0.80850  Biso   1.000  N
  N26      1.0000 0.19020  0.47750  0.30850  Biso   1.000  N
  N27      1.0000 0.69020  0.02250  0.80850  Biso   1.000  N
  N28      1.0000 0.69020  0.97750  0.30850  Biso   1.000  N
  N29      1.0000 0.24900  0.53970  0.81970  Biso   1.000  N
  N30      1.0000 0.24900  0.46030  0.31970  Biso   1.000  N
  N31      1.0000 0.74900  0.03970  0.81970  Biso   1.000  N
  N32      1.0000 0.74900  0.96030  0.31970  Biso   1.000  N
  N33      1.0000 0.46890  0.80450  0.02320  Biso   1.000  N
  N34      1.0000 0.46890  0.19550  0.52320  Biso   1.000  N
  N35      1.0000 0.96890  0.30450  0.02320  Biso   1.000  N
  N36      1.0000 0.96890  0.69550  0.52320  Biso   1.000  N
  N37      1.0000 0.52580  0.76640  0.09330  Biso   1.000  N
  N38      1.0000 0.52580  0.23360  0.59330  Biso   1.000  N
  N39      1.0000 0.02580  0.26640  0.09330  Biso   1.000  N
  N40      1.0000 0.02580  0.73360  0.59330  Biso   1.000  N
  N41      1.0000 0.55810  0.69170  0.06450  Biso   1.000  N
  N42      1.0000 0.55810  0.30830  0.56450  Biso   1.000  N
  N43      1.0000 0.05810  0.19170  0.06450  Biso   1.000  N
  N44      1.0000 0.05810  0.80830  0.56450  Biso   1.000  N
  N45      1.0000 0.52410  0.67910  0.97320  Biso   1.000  N
  N46      1.0000 0.52410  0.32090  0.47320  Biso   1.000  N
  N47      1.0000 0.02410  0.17910  0.97320  Biso   1.000  N
  N48      1.0000 0.02410  0.82090  0.47320  Biso   1.000  N
  N49      1.0000 0.52820  0.80420  0.81940  Biso   1.000  N
  N50      1.0000 0.52820  0.19580  0.31940  Biso   1.000  N
  N51      1.0000 0.02820  0.30420  0.81940  Biso   1.000  N
  N52      1.0000 0.02820  0.69580  0.31940  Biso   1.000  N
  N53      1.0000 0.56360  0.89000  0.79930  Biso   1.000  N
  N54      1.0000 0.56360  0.11000  0.29930  Biso   1.000  N
  N55      1.0000 0.06360  0.39000  0.79930  Biso   1.000  N
  N56      1.0000 0.06360  0.61000  0.29930  Biso   1.000  N
  N57      1.0000 0.52780  0.00030  0.75040  Biso   1.000  N
  N58      1.0000 0.52780  0.99970  0.25040  Biso   1.000  N
  N59      1.0000 0.02780  0.50030  0.75040  Biso   1.000  N
  N60      1.0000 0.02780  0.49970  0.25040  Biso   1.000  N
  N61      1.0000 0.47050  0.98860  0.73930  Biso   1.000  N
  N62      1.0000 0.47050  0.01140  0.23930  Biso   1.000  N
  N63      1.0000 0.97050  0.48860  0.73930  Biso   1.000  N
  N64      1.0000 0.97050  0.51140  0.23930  Biso   1.000  N
  N65      1.0000 0.05720  0.15530  0.29680  Biso   1.000  N
  N66      1.0000 0.05720  0.84470  0.79680  Biso   1.000  N
  N67      1.0000 0.55720  0.65530  0.29680  Biso   1.000  N
  N68      1.0000 0.55720  0.34470  0.79680  Biso   1.000  N
  N69      1.0000 0.15230  0.17900  0.74250  Biso   1.000  N
  N70      1.0000 0.15230  0.82100  0.24250  Biso   1.000  N
  N71      1.0000 0.65230  0.67900  0.74250  Biso   1.000  N
  N72      1.0000 0.65230  0.32100  0.24250  Biso   1.000  N
  C1       1.0000 0.24630  0.77070  0.59930  Biso   1.000  C
  C2       1.0000 0.24630  0.22930  0.09930  Biso   1.000  C
  C3       1.0000 0.74630  0.27070  0.59930  Biso   1.000  C
  C4       1.0000 0.74630  0.72930  0.09930  Biso   1.000  C
  C5       1.0000 0.30180  0.77140  0.69260  Biso   1.000  C
  C6       1.0000 0.30180  0.22860  0.19260  Biso   1.000  C
  C7       1.0000 0.80180  0.27140  0.69260  Biso   1.000  C
  C8       1.0000 0.80180  0.72860  0.19260  Biso   1.000  C
  C9       1.0000 0.35810  0.81580  0.70120  Biso   1.000  C
  C10      1.0000 0.35810  0.18420  0.20120  Biso   1.000  C
  C11      1.0000 0.85810  0.31580  0.70120  Biso   1.000  C
  C12      1.0000 0.85810  0.68420  0.20120  Biso   1.000  C
  H1       1.0000 0.35830  0.85040  0.64990  Biso   1.000  H
  H2       1.0000 0.35830  0.14960  0.14990  Biso   1.000  H
  H3       1.0000 0.85830  0.35040  0.64990  Biso   1.000  H
  H4       1.0000 0.85830  0.64960  0.14990  Biso   1.000  H
  C13      1.0000 0.41440  0.81240  0.78130  Biso   1.000  C
  C14      1.0000 0.41440  0.18760  0.28130  Biso   1.000  C
  C15      1.0000 0.91440  0.31240  0.78130  Biso   1.000  C
  C16      1.0000 0.91440  0.68760  0.28130  Biso   1.000  C
  C17      1.0000 0.41450  0.75940  0.85930  Biso   1.000  C
  C18      1.0000 0.41450  0.24060  0.35930  Biso   1.000  C
  C19      1.0000 0.91450  0.25940  0.85930  Biso   1.000  C
  C20      1.0000 0.91450  0.74060  0.35930  Biso   1.000  C
  C21      1.0000 0.35670  0.71830  0.85200  Biso   1.000  C
  C22      1.0000 0.35670  0.28170  0.35200  Biso   1.000  C
  C23      1.0000 0.85670  0.21830  0.85200  Biso   1.000  C
  C24      1.0000 0.85670  0.78170  0.35200  Biso   1.000  C
  H5       1.0000 0.35600  0.68870  0.90390  Biso   1.000  H
  H6       1.0000 0.35600  0.31130  0.40390  Biso   1.000  H
  H7       1.0000 0.85600  0.18870  0.90390  Biso   1.000  H
  H8       1.0000 0.85600  0.81130  0.40390  Biso   1.000  H
  C25      1.0000 0.29970  0.72020  0.76910  Biso   1.000  C
  C26      1.0000 0.29970  0.27980  0.26910  Biso   1.000  C
  C27      1.0000 0.79970  0.22020  0.76910  Biso   1.000  C
  C28      1.0000 0.79970  0.77980  0.26910  Biso   1.000  C
  C29      1.0000 0.24480  0.66100  0.77310  Biso   1.000  C
  C30      1.0000 0.24480  0.33900  0.27310  Biso   1.000  C
  C31      1.0000 0.74480  0.16100  0.77310  Biso   1.000  C
  C32      1.0000 0.74480  0.83900  0.27310  Biso   1.000  C
  C33      1.0000 0.47080  0.75120  0.95160  Biso   1.000  C
  C34      1.0000 0.47080  0.24880  0.45160  Biso   1.000  C
  C35      1.0000 0.97080  0.25120  0.95160  Biso   1.000  C
  C36      1.0000 0.97080  0.74880  0.45160  Biso   1.000  C
  C37      1.0000 0.47090  0.86770  0.78240  Biso   1.000  C
  C38      1.0000 0.47090  0.13230  0.28240  Biso   1.000  C
  C39      1.0000 0.97090  0.36770  0.78240  Biso   1.000  C
  C40      1.0000 0.97090  0.63230  0.28240  Biso   1.000  C
  C41      1.0000 0.05700  0.05380  0.33620  Biso   1.000  C
  C42      1.0000 0.05700  0.94620  0.83620  Biso   1.000  C
  C43      1.0000 0.55700  0.55380  0.33620  Biso   1.000  C
  C44      1.0000 0.55700  0.44620  0.83620  Biso   1.000  C
  C45      1.0000 0.15130  0.07760  0.70230  Biso   1.000  C
  C46      1.0000 0.15130  0.92240  0.20230  Biso   1.000  C
  C47      1.0000 0.65130  0.57760  0.70230  Biso   1.000  C
  C48      1.0000 0.65130  0.42240  0.20230  Biso   1.000  C
  O1       1.0000 0.38010  0.05060  0.55730  Biso   1.000  O
  O2       1.0000 0.38010  0.94940  0.05730  Biso   1.000  O
  O3       1.0000 0.88010  0.55060  0.55730  Biso   1.000  O
  O4       1.0000 0.88010  0.44940  0.05730  Biso   1.000  O
  H9       1.0000 0.39740  0.06400  0.62300  Biso   1.000  H
  H10      1.0000 0.39740  0.93600  0.12300  Biso   1.000  H
  H11      1.0000 0.89740  0.56400  0.62300  Biso   1.000  H
  H12      1.0000 0.89740  0.43600  0.12300  Biso   1.000  H
  H13      1.0000 0.40030  0.11160  0.54190  Biso   1.000  H
  H14      1.0000 0.40030  0.88840  0.04190  Biso   1.000  H
  H15      1.0000 0.90030  0.61160  0.54190  Biso   1.000  H
  H16      1.0000 0.90030  0.38840  0.04190  Biso   1.000  H
  N73      1.0000 0.34830  0.64380  0.46670  Biso   1.000  N
  N74      1.0000 0.34830  0.35620  0.96670  Biso   1.000  N
  N75      1.0000 0.84830  0.14380  0.46670  Biso   1.000  N
  N76      1.0000 0.84830  0.85620  0.96670  Biso   1.000  N
  H17      1.0000 0.32930  0.68910  0.49390  Biso   1.000  H
  H18      1.0000 0.32930  0.31090  0.99390  Biso   1.000  H
  H19      1.0000 0.82930  0.18910  0.49390  Biso   1.000  H
  H20      1.0000 0.82930  0.81090  0.99390  Biso   1.000  H
  H21      1.0000 0.31970  0.58590  0.42340  Biso   1.000  H
  H22      1.0000 0.31970  0.41410  0.92340  Biso   1.000  H
  H23      1.0000 0.81970  0.08590  0.42340  Biso   1.000  H
  H24      1.0000 0.81970  0.91410  0.92340  Biso   1.000  H
  C49      1.0000 0.40300  0.55070  0.53700  Biso   1.000  C
  C50      1.0000 0.40300  0.44930  0.03700  Biso   1.000  C
  C51      1.0000 0.90300  0.05070  0.53700  Biso   1.000  C
  C52      1.0000 0.90300  0.94930  0.03700  Biso   1.000  C
  H25      1.0000 0.41770  0.49020  0.50370  Biso   1.000  H
  H26      1.0000 0.41770  0.50980  0.00370  Biso   1.000  H
  H27      1.0000 0.91770  0.99020  0.50370  Biso   1.000  H
  H28      1.0000 0.91770  0.00980  0.00370  Biso   1.000  H
  C53      1.0000 0.45980  0.63710  0.60660  Biso   1.000  C
  C54      1.0000 0.45980  0.36290  0.10660  Biso   1.000  C
  C55      1.0000 0.95980  0.13710  0.60660  Biso   1.000  C
  C56      1.0000 0.95980  0.86290  0.10660  Biso   1.000  C
  H29      1.0000 0.47750  0.69130  0.57620  Biso   1.000  H
  H30      1.0000 0.47750  0.30870  0.07620  Biso   1.000  H
  H31      1.0000 0.97750  0.19130  0.57620  Biso   1.000  H
  H32      1.0000 0.97750  0.80870  0.07620  Biso   1.000  H
  H33      1.0000 0.49100  0.57180  0.64910  Biso   1.000  H
  H34      1.0000 0.49100  0.42820  0.14910  Biso   1.000  H
  H35      1.0000 0.99100  0.07180  0.64910  Biso   1.000  H
  H36      1.0000 0.99100  0.92820  0.14910  Biso   1.000  H
  H37      1.0000 0.44660  0.70240  0.63810  Biso   1.000  H
  H38      1.0000 0.44660  0.29760  0.13810  Biso   1.000  H
  H39      1.0000 0.94660  0.20240  0.63810  Biso   1.000  H
  H40      1.0000 0.94660  0.79760  0.13810  Biso   1.000  H
  C57      1.0000 0.37500  0.44830  0.57980  Biso   1.000  C
  C58      1.0000 0.37500  0.55170  0.07980  Biso   1.000  C
  C59      1.0000 0.87500  0.94830  0.57980  Biso   1.000  C
  C60      1.0000 0.87500  0.05170  0.07980  Biso   1.000  C
  H41      1.0000 0.40320  0.36850  0.60800  Biso   1.000  H
  H42      1.0000 0.40320  0.63150  0.10800  Biso   1.000  H
  H43      1.0000 0.90320  0.86850  0.60800  Biso   1.000  H
  H44      1.0000 0.90320  0.13150  0.10800  Biso   1.000  H
  H45      1.0000 0.33500  0.41250  0.53360  Biso   1.000  H
  H46      1.0000 0.33500  0.58750  0.03360  Biso   1.000  H
  H47      1.0000 0.83500  0.91250  0.53360  Biso   1.000  H
  H48      1.0000 0.83500  0.08750  0.03360  Biso   1.000  H
  H49      1.0000 0.36930  0.50000  0.62440  Biso   1.000  H
  H50      1.0000 0.36930  0.50000  0.12440  Biso   1.000  H
  H51      1.0000 0.86930  0.00000  0.62440  Biso   1.000  H
  H52      1.0000 0.86930  0.00000  0.12440  Biso   1.000  H
  C61      1.0000 0.37170  0.76040  0.42160  Biso   1.000  C
  C62      1.0000 0.37170  0.23960  0.92160  Biso   1.000  C
  C63      1.0000 0.87170  0.26040  0.42160  Biso   1.000  C
  C64      1.0000 0.87170  0.73960  0.92160  Biso   1.000  C
  H53      1.0000 0.40680  0.81720  0.46760  Biso   1.000  H
  H54      1.0000 0.40680  0.18280  0.96760  Biso   1.000  H
  H55      1.0000 0.90680  0.31720  0.46760  Biso   1.000  H
  H56      1.0000 0.90680  0.68280  0.96760  Biso   1.000  H
  C65      1.0000 0.39020  0.68530  0.35520  Biso   1.000  C
  C66      1.0000 0.39020  0.31470  0.85520  Biso   1.000  C
  C67      1.0000 0.89020  0.18530  0.35520  Biso   1.000  C
  C68      1.0000 0.89020  0.81470  0.85520  Biso   1.000  C
  H57      1.0000 0.42290  0.61560  0.38780  Biso   1.000  H
  H58      1.0000 0.42290  0.38440  0.88780  Biso   1.000  H
  H59      1.0000 0.92290  0.11560  0.38780  Biso   1.000  H
  H60      1.0000 0.92290  0.88440  0.88780  Biso   1.000  H
  H61      1.0000 0.40510  0.75690  0.32920  Biso   1.000  H
  H62      1.0000 0.40510  0.24310  0.82920  Biso   1.000  H
  H63      1.0000 0.90510  0.25690  0.32920  Biso   1.000  H
  H64      1.0000 0.90510  0.74310  0.82920  Biso   1.000  H
  H65      1.0000 0.35400  0.63740  0.30800  Biso   1.000  H
  H66      1.0000 0.35400  0.36260  0.80800  Biso   1.000  H
  H67      1.0000 0.85400  0.13740  0.30800  Biso   1.000  H
  H68      1.0000 0.85400  0.86260  0.80800  Biso   1.000  H
  C69      1.0000 0.31300  0.85750  0.36480  Biso   1.000  C
  C70      1.0000 0.31300  0.14250  0.86480  Biso   1.000  C
  C71      1.0000 0.81300  0.35750  0.36480  Biso   1.000  C
  C72      1.0000 0.81300  0.64250  0.86480  Biso   1.000  C
  H69      1.0000 0.27930  0.79920  0.32060  Biso   1.000  H
  H70      1.0000 0.27930  0.20080  0.82060  Biso   1.000  H
  H71      1.0000 0.77930  0.29920  0.32060  Biso   1.000  H
  H72      1.0000 0.77930  0.70080  0.82060  Biso   1.000  H
  H73      1.0000 0.32360  0.93140  0.33480  Biso   1.000  H
  H74      1.0000 0.32360  0.06860  0.83480  Biso   1.000  H
  H75      1.0000 0.82360  0.43140  0.33480  Biso   1.000  H
  H76      1.0000 0.82360  0.56860  0.83480  Biso   1.000  H
  H77      1.0000 0.29990  0.90180  0.40410  Biso   1.000  H
  H78      1.0000 0.29990  0.09820  0.90410  Biso   1.000  H
  H79      1.0000 0.79990  0.40180  0.40410  Biso   1.000  H
  H80      1.0000 0.79990  0.59820  0.90410  Biso   1.000  H
  N77      1.0000 0.15080  0.22500  0.50960  Biso   1.000  N
  N78      1.0000 0.15080  0.77500  0.00960  Biso   1.000  N
  N79      1.0000 0.65080  0.72500  0.50960  Biso   1.000  N
  N80      1.0000 0.65080  0.27500  0.00960  Biso   1.000  N
  H81      1.0000 0.12690  0.17000  0.46070  Biso   1.000  H
  H82      1.0000 0.12690  0.83000  0.96070  Biso   1.000  H
  H83      1.0000 0.62690  0.67000  0.46070  Biso   1.000  H
  H84      1.0000 0.62690  0.33000  0.96070  Biso   1.000  H
  H85      1.0000 0.15370  0.17810  0.55800  Biso   1.000  H
  H86      1.0000 0.15370  0.82190  0.05800  Biso   1.000  H
  H87      1.0000 0.65370  0.67810  0.55800  Biso   1.000  H
  H88      1.0000 0.65370  0.32190  0.05800  Biso   1.000  H
  C73      1.0000 0.21670  0.23230  0.52070  Biso   1.000  C
  C74      1.0000 0.21670  0.76770  0.02070  Biso   1.000  C
  C75      1.0000 0.71670  0.73230  0.52070  Biso   1.000  C
  C76      1.0000 0.71670  0.26770  0.02070  Biso   1.000  C
  H89      1.0000 0.22140  0.33070  0.50330  Biso   1.000  H
  H90      1.0000 0.22140  0.66930  0.00330  Biso   1.000  H
  H91      1.0000 0.72140  0.83070  0.50330  Biso   1.000  H
  H92      1.0000 0.72140  0.16930  0.00330  Biso   1.000  H
  C77      1.0000 0.22200  0.13470  0.45600  Biso   1.000  C
  C78      1.0000 0.22200  0.86530  0.95600  Biso   1.000  C
  C79      1.0000 0.72200  0.63470  0.45600  Biso   1.000  C
  C80      1.0000 0.72200  0.36530  0.95600  Biso   1.000  C
  H93      1.0000 0.21840  0.03600  0.47070  Biso   1.000  H
  H94      1.0000 0.21840  0.96400  0.97070  Biso   1.000  H
  H95      1.0000 0.71840  0.53600  0.47070  Biso   1.000  H
  H96      1.0000 0.71840  0.46400  0.97070  Biso   1.000  H
  H97      1.0000 0.26220  0.14860  0.45930  Biso   1.000  H
  H98      1.0000 0.26220  0.85140  0.95930  Biso   1.000  H
  H99      1.0000 0.76220  0.64860  0.45930  Biso   1.000  H
  H100     1.0000 0.76220  0.35140  0.95930  Biso   1.000  H
  H101     1.0000 0.18890  0.15580  0.39570  Biso   1.000  H
  H102     1.0000 0.18890  0.84420  0.89570  Biso   1.000  H
  H103     1.0000 0.68890  0.65580  0.39570  Biso   1.000  H
  H104     1.0000 0.68890  0.34420  0.89570  Biso   1.000  H
  C81      1.0000 0.26570  0.21700  0.62030  Biso   1.000  C
  C82      1.0000 0.26570  0.78300  0.12030  Biso   1.000  C
  C83      1.0000 0.76570  0.71700  0.62030  Biso   1.000  C
  C84      1.0000 0.76570  0.28300  0.12030  Biso   1.000  C
  H105     1.0000 0.30660  0.23980  0.62850  Biso   1.000  H
  H106     1.0000 0.30660  0.76020  0.12850  Biso   1.000  H
  H107     1.0000 0.80660  0.73980  0.62850  Biso   1.000  H
  H108     1.0000 0.80660  0.26020  0.12850  Biso   1.000  H
  H109     1.0000 0.26550  0.11940  0.63960  Biso   1.000  H
  H110     1.0000 0.26550  0.88060  0.13960  Biso   1.000  H
  H111     1.0000 0.76550  0.61940  0.63960  Biso   1.000  H
  H112     1.0000 0.76550  0.38060  0.13960  Biso   1.000  H
  H113     1.0000 0.25570  0.28230  0.65550  Biso   1.000  H
  H114     1.0000 0.25570  0.71770  0.15550  Biso   1.000  H
  H115     1.0000 0.75570  0.78230  0.65550  Biso   1.000  H
  H116     1.0000 0.75570  0.21770  0.15550  Biso   1.000  H
  C85      1.0000 0.11670  0.36100  0.49950  Biso   1.000  C
  C86      1.0000 0.11670  0.63900  0.99950  Biso   1.000  C
  C87      1.0000 0.61670  0.86100  0.49950  Biso   1.000  C
  C88      1.0000 0.61670  0.13900  0.99950  Biso   1.000  C
  H117     1.0000 0.10770  0.40730  0.44240  Biso   1.000  H
  H118     1.0000 0.10770  0.59270  0.94240  Biso   1.000  H
  H119     1.0000 0.60770  0.90730  0.44240  Biso   1.000  H
  H120     1.0000 0.60770  0.09270  0.94240  Biso   1.000  H
  C89      1.0000 0.04930  0.31570  0.49460  Biso   1.000  C
  C90      1.0000 0.04930  0.68430  0.99460  Biso   1.000  C
  C91      1.0000 0.54930  0.81570  0.49460  Biso   1.000  C
  C92      1.0000 0.54930  0.18430  0.99460  Biso   1.000  C
  H121     1.0000 0.03820  0.21860  0.47200  Biso   1.000  H
  H122     1.0000 0.03820  0.78140  0.97200  Biso   1.000  H
  H123     1.0000 0.53820  0.71860  0.47200  Biso   1.000  H
  H124     1.0000 0.53820  0.28140  0.97200  Biso   1.000  H
  H125     1.0000 0.01670  0.38100  0.45490  Biso   1.000  H
  H126     1.0000 0.01670  0.61900  0.95490  Biso   1.000  H
  H127     1.0000 0.51670  0.88100  0.45490  Biso   1.000  H
  H128     1.0000 0.51670  0.11900  0.95490  Biso   1.000  H
  H129     1.0000 0.05390  0.32120  0.55410  Biso   1.000  H
  H130     1.0000 0.05390  0.67880  0.05410  Biso   1.000  H
  H131     1.0000 0.55390  0.82120  0.55410  Biso   1.000  H
  H132     1.0000 0.55390  0.17880  0.05410  Biso   1.000  H
  C93      1.0000 0.15310  0.46060  0.57420  Biso   1.000  C
  C94      1.0000 0.15310  0.53940  0.07420  Biso   1.000  C
  C95      1.0000 0.65310  0.96060  0.57420  Biso   1.000  C
  C96      1.0000 0.65310  0.03940  0.07420  Biso   1.000  C
  H133     1.0000 0.15050  0.43100  0.62650  Biso   1.000  H
  H134     1.0000 0.15050  0.56900  0.12650  Biso   1.000  H
  H135     1.0000 0.65050  0.93100  0.62650  Biso   1.000  H
  H136     1.0000 0.65050  0.06900  0.12650  Biso   1.000  H
  H137     1.0000 0.13650  0.55680  0.55710  Biso   1.000  H
  H138     1.0000 0.13650  0.44320  0.05710  Biso   1.000  H
  H139     1.0000 0.63650  0.05680  0.55710  Biso   1.000  H
  H140     1.0000 0.63650  0.94320  0.05710  Biso   1.000  H
  H141     1.0000 0.19640  0.45960  0.58820  Biso   1.000  H
  H142     1.0000 0.19640  0.54040  0.08820  Biso   1.000  H
  H143     1.0000 0.69640  0.95960  0.58820  Biso   1.000  H
  H144     1.0000 0.69640  0.04040  0.08820  Biso   1.000  H
