data_image0
_cell_length_a       10.45
_cell_length_b       7.565
_cell_length_c       15.61
_cell_angle_alpha    90
_cell_angle_beta     103.45
_cell_angle_gamma    90

_symmetry_space_group_name_H-M    "P 1"
_symmetry_int_tables_number       1

loop_
  _symmetry_equiv_pos_as_xyz
  'x, y, z'

loop_
  _atom_site_label
  _atom_site_occupancy
  _atom_site_fract_x
  _atom_site_fract_y
  _atom_site_fract_z
  _atom_site_thermal_displace_type
  _atom_site_B_iso_or_equiv
  _atom_site_type_symbol
  Cu1      1.0000 0.71520  0.86110  0.33910  Biso   1.000  Cu
  Cu2      1.0000 0.21520  0.63890  0.83910  Biso   1.000  Cu
  Cu3      1.0000 0.28480  0.13890  0.66090  Biso   1.000  Cu
  Cu4      1.0000 0.78480  0.36110  0.16090  Biso   1.000  Cu
  Cu5      1.0000 0.54210  0.05120  0.40906  Biso   1.000  Cu
  Cu6      1.0000 0.04210  0.44880  0.90906  Biso   1.000  Cu
  Cu7      1.0000 0.45790  0.94880  0.59094  Biso   1.000  Cu
  Cu8      1.0000 0.95790  0.55120  0.09094  Biso   1.000  Cu
  O1       1.0000 0.57380  0.84900  0.49240  Biso   1.000  O
  O2       1.0000 0.07380  0.65100  0.99240  Biso   1.000  O
  O3       1.0000 0.42620  0.15100  0.50760  Biso   1.000  O
  O4       1.0000 0.92620  0.34900  0.00760  Biso   1.000  O
  O5       1.0000 0.71000  0.69400  0.43260  Biso   1.000  O
  O6       1.0000 0.21000  0.80600  0.93260  Biso   1.000  O
  O7       1.0000 0.29000  0.30600  0.56740  Biso   1.000  O
  O8       1.0000 0.79000  0.19400  0.06740  Biso   1.000  O
  O9       1.0000 0.69600  0.19400  0.46130  Biso   1.000  O
  O10      1.0000 0.19600  0.30600  0.96130  Biso   1.000  O
  O11      1.0000 0.30400  0.80600  0.53870  Biso   1.000  O
  O12      1.0000 0.80400  0.69400  0.03870  Biso   1.000  O
  O13      1.0000 0.83490  0.04620  0.40250  Biso   1.000  O
  O14      1.0000 0.33490  0.45380  0.90250  Biso   1.000  O
  O15      1.0000 0.16510  0.95380  0.59750  Biso   1.000  O
  O16      1.0000 0.66510  0.54620  0.09750  Biso   1.000  O
  O17      1.0000 0.12290  0.16700  0.22470  Biso   1.000  O
  O18      1.0000 0.62290  0.33300  0.72470  Biso   1.000  O
  O19      1.0000 0.87710  0.83300  0.77530  Biso   1.000  O
  O20      1.0000 0.37710  0.66700  0.27530  Biso   1.000  O
  O21      1.0000 0.88530  0.76800  0.28300  Biso   1.000  O
  O22      1.0000 0.38530  0.73200  0.78300  Biso   1.000  O
  O23      1.0000 0.11470  0.23200  0.71700  Biso   1.000  O
  O24      1.0000 0.61470  0.26800  0.21700  Biso   1.000  O
  C1       1.0000 0.05800  0.30200  0.22630  Biso   1.000  C
  C2       1.0000 0.55800  0.19800  0.72630  Biso   1.000  C
  C3       1.0000 0.94200  0.69800  0.77370  Biso   1.000  C
  C4       1.0000 0.44200  0.80200  0.27370  Biso   1.000  C
  C5       1.0000 0.10100  0.47900  0.19820  Biso   1.000  C
  C6       1.0000 0.60100  0.02100  0.69820  Biso   1.000  C
  C7       1.0000 0.89900  0.52100  0.80180  Biso   1.000  C
  C8       1.0000 0.39900  0.97900  0.30180  Biso   1.000  C
  C9       1.0000 0.04100  0.63900  0.21510  Biso   1.000  C
  C10      1.0000 0.54100  0.86100  0.71510  Biso   1.000  C
  C11      1.0000 0.95900  0.36100  0.78490  Biso   1.000  C
  C12      1.0000 0.45900  0.13900  0.28490  Biso   1.000  C
  C13      1.0000 0.92800  0.63000  0.26200  Biso   1.000  C
  C14      1.0000 0.42800  0.87000  0.76200  Biso   1.000  C
  C15      1.0000 0.07200  0.37000  0.73800  Biso   1.000  C
  C16      1.0000 0.57200  0.13000  0.23800  Biso   1.000  C
  C17      1.0000 0.87500  0.45200  0.28130  Biso   1.000  C
  C18      1.0000 0.37500  0.04800  0.78130  Biso   1.000  C
  C19      1.0000 0.12500  0.54800  0.71870  Biso   1.000  C
  C20      1.0000 0.62500  0.95200  0.21870  Biso   1.000  C
  C21      1.0000 0.93800  0.30100  0.26430  Biso   1.000  C
  C22      1.0000 0.43800  0.19900  0.76430  Biso   1.000  C
  C23      1.0000 0.06200  0.69900  0.73570  Biso   1.000  C
  C24      1.0000 0.56200  0.80100  0.23570  Biso   1.000  C
  C25      1.0000 0.64700  0.71600  0.49040  Biso   1.000  C
  C26      1.0000 0.14700  0.78400  0.99040  Biso   1.000  C
  C27      1.0000 0.35300  0.28400  0.50960  Biso   1.000  C
  C28      1.0000 0.85300  0.21600  0.00960  Biso   1.000  C
  C29      1.0000 0.65900  0.58100  0.56120  Biso   1.000  C
  C30      1.0000 0.15900  0.91900  0.06120  Biso   1.000  C
  C31      1.0000 0.34100  0.41900  0.43880  Biso   1.000  C
  C32      1.0000 0.84100  0.08100  0.93880  Biso   1.000  C
  C33      1.0000 0.80800  0.16200  0.45110  Biso   1.000  C
  C34      1.0000 0.30800  0.33800  0.95110  Biso   1.000  C
  C35      1.0000 0.19200  0.83800  0.54890  Biso   1.000  C
  C36      1.0000 0.69200  0.66200  0.04890  Biso   1.000  C
  C37      1.0000 0.91900  0.26900  0.50330  Biso   1.000  C
  C38      1.0000 0.41900  0.23100  0.00330  Biso   1.000  C
  C39      1.0000 0.08100  0.73100  0.49670  Biso   1.000  C
  C40      1.0000 0.58100  0.76900  0.99670  Biso   1.000  C
  H1       1.0000 0.60730  0.61490  0.60120  Biso   1.000  H
  H2       1.0000 0.10730  0.88510  0.10120  Biso   1.000  H
  H3       1.0000 0.39270  0.38510  0.39880  Biso   1.000  H
  H4       1.0000 0.89270  0.11490  0.89880  Biso   1.000  H
  H5       1.0000 0.63400  0.46870  0.53790  Biso   1.000  H
  H6       1.0000 0.13400  0.03130  0.03790  Biso   1.000  H
  H7       1.0000 0.36600  0.53130  0.46210  Biso   1.000  H
  H8       1.0000 0.86600  0.96870  0.96210  Biso   1.000  H
  H9       1.0000 0.75010  0.57660  0.59380  Biso   1.000  H
  H10      1.0000 0.25010  0.92340  0.09380  Biso   1.000  H
  H11      1.0000 0.24990  0.42340  0.40620  Biso   1.000  H
  H12      1.0000 0.74990  0.07660  0.90620  Biso   1.000  H
  H13      1.0000 0.92360  0.25250  0.56540  Biso   1.000  H
  H14      1.0000 0.42360  0.24750  0.06540  Biso   1.000  H
  H15      1.0000 0.07640  0.74750  0.43460  Biso   1.000  H
  H16      1.0000 0.57640  0.75250  0.93460  Biso   1.000  H
  H17      1.0000 0.00000  0.23220  0.49180  Biso   1.000  H
  H18      1.0000 0.50000  0.26780  0.99180  Biso   1.000  H
  H19      1.0000 0.00000  0.76780  0.50820  Biso   1.000  H
  H20      1.0000 0.50000  0.73220  0.00820  Biso   1.000  H
  H21      1.0000 0.90450  0.39000  0.48970  Biso   1.000  H
  H22      1.0000 0.40450  0.11000  0.98970  Biso   1.000  H
  H23      1.0000 0.09550  0.61000  0.51030  Biso   1.000  H
  H24      1.0000 0.59550  0.89000  0.01030  Biso   1.000  H
