data_image0
_cell_length_a       10.403
_cell_length_b       7.54
_cell_length_c       15.543
_cell_angle_alpha    90
_cell_angle_beta     103.661
_cell_angle_gamma    90

_symmetry_space_group_name_H-M    "P 1"
_symmetry_int_tables_number       1

loop_
  _symmetry_equiv_pos_as_xyz
  'x, y, z'

loop_
  _atom_site_label
  _atom_site_occupancy
  _atom_site_fract_x
  _atom_site_fract_y
  _atom_site_fract_z
  _atom_site_thermal_displace_type
  _atom_site_B_iso_or_equiv
  _atom_site_type_symbol
  Cu1      1.0000 0.28458  0.35994  0.66081  Biso   1.000  Cu
  Cu2      1.0000 0.78458  0.14006  0.16081  Biso   1.000  Cu
  Cu3      1.0000 0.71542  0.64006  0.33919  Biso   1.000  Cu
  Cu4      1.0000 0.21542  0.85994  0.83919  Biso   1.000  Cu
  Cu5      1.0000 0.45819  0.55049  0.59129  Biso   1.000  Cu
  Cu6      1.0000 0.95819  0.94951  0.09129  Biso   1.000  Cu
  Cu7      1.0000 0.54181  0.44951  0.40871  Biso   1.000  Cu
  Cu8      1.0000 0.04181  0.05049  0.90871  Biso   1.000  Cu
  O1       1.0000 0.42640  0.34890  0.50650  Biso   1.000  O
  O2       1.0000 0.92640  0.15110  0.00650  Biso   1.000  O
  O3       1.0000 0.57360  0.65110  0.49350  Biso   1.000  O
  O4       1.0000 0.07360  0.84890  0.99350  Biso   1.000  O
  O5       1.0000 0.29030  0.19080  0.56680  Biso   1.000  O
  O6       1.0000 0.79030  0.30920  0.06680  Biso   1.000  O
  O7       1.0000 0.70970  0.80920  0.43320  Biso   1.000  O
  O8       1.0000 0.20970  0.69080  0.93320  Biso   1.000  O
  O9       1.0000 0.30540  0.69330  0.53880  Biso   1.000  O
  O10      1.0000 0.80540  0.80670  0.03880  Biso   1.000  O
  O11      1.0000 0.69460  0.30670  0.46120  Biso   1.000  O
  O12      1.0000 0.19460  0.19330  0.96120  Biso   1.000  O
  O13      1.0000 0.16350  0.54040  0.59790  Biso   1.000  O
  O14      1.0000 0.66350  0.95960  0.09790  Biso   1.000  O
  O15      1.0000 0.83650  0.45960  0.40210  Biso   1.000  O
  O16      1.0000 0.33650  0.04040  0.90210  Biso   1.000  O
  O17      1.0000 0.87640  0.66810  0.77620  Biso   1.000  O
  O18      1.0000 0.37640  0.83190  0.27620  Biso   1.000  O
  O19      1.0000 0.12360  0.33190  0.22380  Biso   1.000  O
  O20      1.0000 0.62360  0.16810  0.72380  Biso   1.000  O
  O21      1.0000 0.11340  0.26870  0.71540  Biso   1.000  O
  O22      1.0000 0.61340  0.23130  0.21540  Biso   1.000  O
  O23      1.0000 0.88660  0.73130  0.28460  Biso   1.000  O
  O24      1.0000 0.38660  0.76870  0.78460  Biso   1.000  O
  C1       1.0000 0.94180  0.80090  0.77360  Biso   1.000  C
  C2       1.0000 0.44180  0.69910  0.27360  Biso   1.000  C
  C3       1.0000 0.05820  0.19910  0.22640  Biso   1.000  C
  C4       1.0000 0.55820  0.30090  0.72640  Biso   1.000  C
  C5       1.0000 0.89990  0.97610  0.80260  Biso   1.000  C
  C6       1.0000 0.39990  0.52390  0.30260  Biso   1.000  C
  C7       1.0000 0.10010  0.02390  0.19740  Biso   1.000  C
  C8       1.0000 0.60010  0.47610  0.69740  Biso   1.000  C
  C9       1.0000 0.95940  0.13250  0.78410  Biso   1.000  C
  C10      1.0000 0.45940  0.36750  0.28410  Biso   1.000  C
  C11      1.0000 0.04060  0.86750  0.21590  Biso   1.000  C
  C12      1.0000 0.54060  0.63250  0.71590  Biso   1.000  C
  C13      1.0000 0.07030  0.12860  0.73780  Biso   1.000  C
  C14      1.0000 0.57030  0.37140  0.23780  Biso   1.000  C
  C15      1.0000 0.92970  0.87140  0.26220  Biso   1.000  C
  C16      1.0000 0.42970  0.62860  0.76220  Biso   1.000  C
  C17      1.0000 0.12170  0.95470  0.71890  Biso   1.000  C
  C18      1.0000 0.62170  0.54530  0.21890  Biso   1.000  C
  C19      1.0000 0.87830  0.04530  0.28110  Biso   1.000  C
  C20      1.0000 0.37830  0.45470  0.78110  Biso   1.000  C
  C21      1.0000 0.06330  0.79670  0.73680  Biso   1.000  C
  C22      1.0000 0.56330  0.70330  0.23680  Biso   1.000  C
  C23      1.0000 0.93670  0.20330  0.26320  Biso   1.000  C
  C24      1.0000 0.43670  0.29670  0.76320  Biso   1.000  C
  C25      1.0000 0.35410  0.21520  0.50910  Biso   1.000  C
  C26      1.0000 0.85410  0.28480  0.00910  Biso   1.000  C
  C27      1.0000 0.64590  0.78480  0.49090  Biso   1.000  C
  C28      1.0000 0.14590  0.71520  0.99090  Biso   1.000  C
  C29      1.0000 0.34280  0.07920  0.43670  Biso   1.000  C
  C30      1.0000 0.84280  0.42080  0.93670  Biso   1.000  C
  C31      1.0000 0.65720  0.92080  0.56330  Biso   1.000  C
  C32      1.0000 0.15720  0.57920  0.06330  Biso   1.000  C
  C33      1.0000 0.19090  0.66000  0.54800  Biso   1.000  C
  C34      1.0000 0.69090  0.84000  0.04800  Biso   1.000  C
  C35      1.0000 0.80910  0.34000  0.45200  Biso   1.000  C
  C36      1.0000 0.30910  0.16000  0.95200  Biso   1.000  C
  C37      1.0000 0.07930  0.76770  0.49630  Biso   1.000  C
  C38      1.0000 0.57930  0.73230  0.99630  Biso   1.000  C
  C39      1.0000 0.92070  0.23230  0.50370  Biso   1.000  C
  C40      1.0000 0.42070  0.26770  0.00370  Biso   1.000  C
  H1       1.0000 0.28680  0.98480  0.44590  Biso   1.000  H
  H2       1.0000 0.78680  0.51520  0.94590  Biso   1.000  H
  H3       1.0000 0.71320  0.01520  0.55410  Biso   1.000  H
  H4       1.0000 0.21320  0.48480  0.05410  Biso   1.000  H
  H5       1.0000 0.30880  0.13170  0.38090  Biso   1.000  H
  H6       1.0000 0.80880  0.36830  0.88090  Biso   1.000  H
  H7       1.0000 0.69120  0.86830  0.61910  Biso   1.000  H
  H8       1.0000 0.19120  0.63170  0.11910  Biso   1.000  H
  H9       1.0000 0.42900  0.03120  0.43830  Biso   1.000  H
  H10      1.0000 0.92900  0.46880  0.93830  Biso   1.000  H
  H11      1.0000 0.57100  0.96880  0.56170  Biso   1.000  H
  H12      1.0000 0.07100  0.53120  0.06170  Biso   1.000  H
  H13      1.0000 0.03450  0.82630  0.53570  Biso   1.000  H
  H14      1.0000 0.53450  0.67370  0.03570  Biso   1.000  H
  H15      1.0000 0.96550  0.17370  0.46430  Biso   1.000  H
  H16      1.0000 0.46550  0.32630  0.96430  Biso   1.000  H
  H17      1.0000 0.10980  0.85330  0.46160  Biso   1.000  H
  H18      1.0000 0.60980  0.64670  0.96160  Biso   1.000  H
  H19      1.0000 0.89020  0.14670  0.53840  Biso   1.000  H
  H20      1.0000 0.39020  0.35330  0.03840  Biso   1.000  H
  H21      1.0000 0.01650  0.69170  0.45820  Biso   1.000  H
  H22      1.0000 0.51650  0.80830  0.95820  Biso   1.000  H
  H23      1.0000 0.98350  0.30830  0.54180  Biso   1.000  H
  H24      1.0000 0.48350  0.19170  0.04180  Biso   1.000  H
