data_image0
_cell_length_a       11.965
_cell_length_b       7.09
_cell_length_c       26.6
_cell_angle_alpha    90
_cell_angle_beta     112.783
_cell_angle_gamma    90

_symmetry_space_group_name_H-M    "P 1"
_symmetry_int_tables_number       1

loop_
  _symmetry_equiv_pos_as_xyz
  'x, y, z'

loop_
  _atom_site_label
  _atom_site_occupancy
  _atom_site_fract_x
  _atom_site_fract_y
  _atom_site_fract_z
  _atom_site_thermal_displace_type
  _atom_site_B_iso_or_equiv
  _atom_site_type_symbol
  Cu1      1.0000 0.24140  0.36580  0.85574  Biso   1.000  Cu
  Cu2      1.0000 0.24140  0.13420  0.35574  Biso   1.000  Cu
  Cu3      1.0000 0.75860  0.63420  0.14426  Biso   1.000  Cu
  Cu4      1.0000 0.75860  0.86580  0.64426  Biso   1.000  Cu
  Cu5      1.0000 0.43310  0.15310  0.85721  Biso   1.000  Cu
  Cu6      1.0000 0.43310  0.34690  0.35721  Biso   1.000  Cu
  Cu7      1.0000 0.56690  0.84690  0.14279  Biso   1.000  Cu
  Cu8      1.0000 0.56690  0.65310  0.64279  Biso   1.000  Cu
  O1       1.0000 0.36840  0.52270  0.90480  Biso   1.000  O
  O2       1.0000 0.36840  0.97730  0.40480  Biso   1.000  O
  O3       1.0000 0.63160  0.47730  0.09520  Biso   1.000  O
  O4       1.0000 0.63160  0.02270  0.59520  Biso   1.000  O
  O5       1.0000 0.52520  0.37000  0.89910  Biso   1.000  O
  O6       1.0000 0.52520  0.13000  0.39910  Biso   1.000  O
  O7       1.0000 0.47480  0.63000  0.10090  Biso   1.000  O
  O8       1.0000 0.47480  0.87000  0.60090  Biso   1.000  O
  O9       1.0000 0.23530  0.17000  0.90970  Biso   1.000  O
  O10      1.0000 0.23530  0.33000  0.40970  Biso   1.000  O
  O11      1.0000 0.76470  0.83000  0.09030  Biso   1.000  O
  O12      1.0000 0.76470  0.67000  0.59030  Biso   1.000  O
  O13      1.0000 0.39400  0.02200  0.91140  Biso   1.000  O
  O14      1.0000 0.39400  0.47800  0.41140  Biso   1.000  O
  O15      1.0000 0.60600  0.97800  0.08860  Biso   1.000  O
  O16      1.0000 0.60600  0.52200  0.58860  Biso   1.000  O
  O17      1.0000 0.38400  0.54700  0.76490  Biso   1.000  O
  O18      1.0000 0.38400  0.95300  0.26490  Biso   1.000  O
  O19      1.0000 0.61600  0.45300  0.23510  Biso   1.000  O
  O20      1.0000 0.61600  0.04700  0.73510  Biso   1.000  O
  O21      1.0000 0.13700  0.94000  0.77380  Biso   1.000  O
  O22      1.0000 0.13700  0.56000  0.27380  Biso   1.000  O
  O23      1.0000 0.86300  0.06000  0.22620  Biso   1.000  O
  O24      1.0000 0.86300  0.44000  0.72620  Biso   1.000  O
  O25      1.0000 0.09300  0.18700  0.96830  Biso   1.000  O
  O26      1.0000 0.09300  0.31300  0.46830  Biso   1.000  O
  O27      1.0000 0.90700  0.81300  0.03170  Biso   1.000  O
  O28      1.0000 0.90700  0.68700  0.53170  Biso   1.000  O
  N1       1.0000 0.09000  0.51300  0.85820  Biso   1.000  N
  N2       1.0000 0.09000  0.98700  0.35820  Biso   1.000  N
  N3       1.0000 0.91000  0.48700  0.14180  Biso   1.000  N
  N4       1.0000 0.91000  0.01300  0.64180  Biso   1.000  N
  N5       1.0000 0.59000  0.99200  0.87120  Biso   1.000  N
  N6       1.0000 0.59000  0.50800  0.37120  Biso   1.000  N
  N7       1.0000 0.41000  0.00800  0.12880  Biso   1.000  N
  N8       1.0000 0.41000  0.49200  0.62880  Biso   1.000  N
  C1       1.0000 0.33200  0.41200  0.77450  Biso   1.000  C
  C2       1.0000 0.33200  0.08800  0.27450  Biso   1.000  C
  C3       1.0000 0.66800  0.58800  0.22550  Biso   1.000  C
  C4       1.0000 0.66800  0.91200  0.72550  Biso   1.000  C
  C5       1.0000 0.21600  0.43000  0.77900  Biso   1.000  C
  C6       1.0000 0.21600  0.07000  0.27900  Biso   1.000  C
  C7       1.0000 0.78400  0.57000  0.22100  Biso   1.000  C
  C8       1.0000 0.78400  0.93000  0.72100  Biso   1.000  C
  C9       1.0000 0.15200  0.27000  0.77890  Biso   1.000  C
  C10      1.0000 0.15200  0.23000  0.27890  Biso   1.000  C
  C11      1.0000 0.84800  0.73000  0.22110  Biso   1.000  C
  C12      1.0000 0.84800  0.77000  0.72110  Biso   1.000  C
  C13      1.0000 0.20100  0.07900  0.77630  Biso   1.000  C
  C14      1.0000 0.20100  0.42100  0.27630  Biso   1.000  C
  C15      1.0000 0.79900  0.92100  0.22370  Biso   1.000  C
  C16      1.0000 0.79900  0.57900  0.72370  Biso   1.000  C
  C17      1.0000 0.32200  0.06200  0.78230  Biso   1.000  C
  C18      1.0000 0.32200  0.43800  0.28230  Biso   1.000  C
  C19      1.0000 0.67800  0.93800  0.21770  Biso   1.000  C
  C20      1.0000 0.67800  0.56200  0.71770  Biso   1.000  C
  C21      1.0000 0.38700  0.22500  0.77940  Biso   1.000  C
  C22      1.0000 0.38700  0.27500  0.27940  Biso   1.000  C
  C23      1.0000 0.61300  0.77500  0.22060  Biso   1.000  C
  C24      1.0000 0.61300  0.72500  0.72060  Biso   1.000  C
  C25      1.0000 0.89300  0.70300  0.86500  Biso   1.000  C
  C26      1.0000 0.89300  0.79700  0.36500  Biso   1.000  C
  C27      1.0000 0.10700  0.29700  0.13500  Biso   1.000  C
  C28      1.0000 0.10700  0.20300  0.63500  Biso   1.000  C
  C29      1.0000 0.79000  0.80100  0.86930  Biso   1.000  C
  C30      1.0000 0.79000  0.69900  0.36930  Biso   1.000  C
  C31      1.0000 0.21000  0.19900  0.13070  Biso   1.000  C
  C32      1.0000 0.21000  0.30100  0.63070  Biso   1.000  C
  C33      1.0000 0.08600  0.69700  0.86290  Biso   1.000  C
  C34      1.0000 0.08600  0.80300  0.36290  Biso   1.000  C
  C35      1.0000 0.91400  0.30300  0.13710  Biso   1.000  C
  C36      1.0000 0.91400  0.19700  0.63710  Biso   1.000  C
  C37      1.0000 0.99500  0.79800  0.86480  Biso   1.000  C
  C38      1.0000 0.99500  0.70200  0.36480  Biso   1.000  C
  C39      1.0000 0.00500  0.20200  0.13520  Biso   1.000  C
  C40      1.0000 0.00500  0.29800  0.63520  Biso   1.000  C
  C41      1.0000 0.99200  0.42300  0.85660  Biso   1.000  C
  C42      1.0000 0.99200  0.07700  0.35660  Biso   1.000  C
  C43      1.0000 0.00800  0.57700  0.14340  Biso   1.000  C
  C44      1.0000 0.00800  0.92300  0.64340  Biso   1.000  C
  C45      1.0000 0.89500  0.50700  0.85900  Biso   1.000  C
  C46      1.0000 0.89500  0.99300  0.35900  Biso   1.000  C
  C47      1.0000 0.10500  0.49300  0.14100  Biso   1.000  C
  C48      1.0000 0.10500  0.00700  0.64100  Biso   1.000  C
  C49      1.0000 0.70300  0.07500  0.88930  Biso   1.000  C
  C50      1.0000 0.70300  0.42500  0.38930  Biso   1.000  C
  C51      1.0000 0.29700  0.92500  0.11070  Biso   1.000  C
  C52      1.0000 0.29700  0.57500  0.61070  Biso   1.000  C
  C53      1.0000 0.80200  0.98000  0.88970  Biso   1.000  C
  C54      1.0000 0.80200  0.52000  0.38970  Biso   1.000  C
  C55      1.0000 0.19800  0.02000  0.11030  Biso   1.000  C
  C56      1.0000 0.19800  0.48000  0.61030  Biso   1.000  C
  C57      1.0000 0.58300  0.81800  0.85130  Biso   1.000  C
  C58      1.0000 0.58300  0.68200  0.35130  Biso   1.000  C
  C59      1.0000 0.41700  0.18200  0.14870  Biso   1.000  C
  C60      1.0000 0.41700  0.31800  0.64870  Biso   1.000  C
  C61      1.0000 0.67800  0.72000  0.85000  Biso   1.000  C
  C62      1.0000 0.67800  0.78000  0.35000  Biso   1.000  C
  C63      1.0000 0.32200  0.28000  0.15000  Biso   1.000  C
  C64      1.0000 0.32200  0.22000  0.65000  Biso   1.000  C
  C65      1.0000 0.48200  0.49800  0.91710  Biso   1.000  C
  C66      1.0000 0.48200  0.00200  0.41710  Biso   1.000  C
  C67      1.0000 0.51800  0.50200  0.08290  Biso   1.000  C
  C68      1.0000 0.51800  0.99800  0.58290  Biso   1.000  C
  C69      1.0000 0.56700  0.62200  0.95850  Biso   1.000  C
  C70      1.0000 0.56700  0.87800  0.45850  Biso   1.000  C
  C71      1.0000 0.43300  0.37800  0.04150  Biso   1.000  C
  C72      1.0000 0.43300  0.12200  0.54150  Biso   1.000  C
  C73      1.0000 0.31500  0.04500  0.92670  Biso   1.000  C
  C74      1.0000 0.31500  0.45500  0.42670  Biso   1.000  C
  C75      1.0000 0.68500  0.95500  0.07330  Biso   1.000  C
  C76      1.0000 0.68500  0.54500  0.57330  Biso   1.000  C
  C77      1.0000 0.31500  0.92300  0.97170  Biso   1.000  C
  C78      1.0000 0.31500  0.57700  0.47170  Biso   1.000  C
  C79      1.0000 0.68500  0.07700  0.02830  Biso   1.000  C
  C80      1.0000 0.68500  0.42300  0.52830  Biso   1.000  C
  C81      1.0000 0.95000  0.33000  0.99670  Biso   1.000  C
  C82      1.0000 0.95000  0.17000  0.49670  Biso   1.000  C
  C83      1.0000 0.05000  0.67000  0.00330  Biso   1.000  C
  C84      1.0000 0.05000  0.83000  0.50330  Biso   1.000  C
  C85      1.0000 0.04500  0.34100  0.98580  Biso   1.000  C
  C86      1.0000 0.04500  0.15900  0.48580  Biso   1.000  C
  C87      1.0000 0.95500  0.65900  0.01420  Biso   1.000  C
  C88      1.0000 0.95500  0.84100  0.51420  Biso   1.000  C
  C89      1.0000 0.09700  0.52000  0.98890  Biso   1.000  C
  C90      1.0000 0.09700  0.98000  0.48890  Biso   1.000  C
  C91      1.0000 0.90300  0.48000  0.01110  Biso   1.000  C
  C92      1.0000 0.90300  0.02000  0.51110  Biso   1.000  C
  H1       1.0000 0.15830  0.76720  0.86820  Biso   1.000  H
  H2       1.0000 0.15830  0.73280  0.36820  Biso   1.000  H
  H3       1.0000 0.84170  0.23280  0.13180  Biso   1.000  H
  H4       1.0000 0.84170  0.26720  0.63180  Biso   1.000  H
  H5       1.0000 0.99680  0.93320  0.86450  Biso   1.000  H
  H6       1.0000 0.99680  0.56680  0.36450  Biso   1.000  H
  H7       1.0000 0.00320  0.06680  0.13550  Biso   1.000  H
  H8       1.0000 0.00320  0.43320  0.63550  Biso   1.000  H
  H9       1.0000 0.99320  0.28830  0.85410  Biso   1.000  H
  H10      1.0000 0.99320  0.21170  0.35410  Biso   1.000  H
  H11      1.0000 0.00680  0.71170  0.14590  Biso   1.000  H
  H12      1.0000 0.00680  0.78830  0.64590  Biso   1.000  H
  H13      1.0000 0.82530  0.43160  0.85720  Biso   1.000  H
  H14      1.0000 0.82530  0.06840  0.35720  Biso   1.000  H
  H15      1.0000 0.17470  0.56840  0.14280  Biso   1.000  H
  H16      1.0000 0.17470  0.93160  0.64280  Biso   1.000  H
  H17      1.0000 0.71110  0.19860  0.90250  Biso   1.000  H
  H18      1.0000 0.71110  0.30140  0.40250  Biso   1.000  H
  H19      1.0000 0.28890  0.80140  0.09750  Biso   1.000  H
  H20      1.0000 0.28890  0.69860  0.59750  Biso   1.000  H
  H21      1.0000 0.87990  0.03790  0.90590  Biso   1.000  H
  H22      1.0000 0.87990  0.46210  0.40590  Biso   1.000  H
  H23      1.0000 0.12010  0.96210  0.09410  Biso   1.000  H
  H24      1.0000 0.12010  0.53790  0.59410  Biso   1.000  H
  H25      1.0000 0.50510  0.75820  0.83700  Biso   1.000  H
  H26      1.0000 0.50510  0.74180  0.33700  Biso   1.000  H
  H27      1.0000 0.49490  0.24180  0.16300  Biso   1.000  H
  H28      1.0000 0.49490  0.25820  0.66300  Biso   1.000  H
  H29      1.0000 0.66620  0.59620  0.83540  Biso   1.000  H
  H30      1.0000 0.66620  0.90380  0.33540  Biso   1.000  H
  H31      1.0000 0.33380  0.40380  0.16460  Biso   1.000  H
  H32      1.0000 0.33380  0.09620  0.66460  Biso   1.000  H
  H33      1.0000 0.61610  0.55410  0.98940  Biso   1.000  H
  H34      1.0000 0.61610  0.94590  0.48940  Biso   1.000  H
  H35      1.0000 0.38390  0.44590  0.01060  Biso   1.000  H
  H36      1.0000 0.38390  0.05410  0.51060  Biso   1.000  H
  H37      1.0000 0.61940  0.68470  0.94320  Biso   1.000  H
  H38      1.0000 0.61940  0.81530  0.44320  Biso   1.000  H
  H39      1.0000 0.38060  0.31530  0.05680  Biso   1.000  H
  H40      1.0000 0.38060  0.18470  0.55680  Biso   1.000  H
  H41      1.0000 0.52460  0.71930  0.96870  Biso   1.000  H
  H42      1.0000 0.52460  0.78070  0.46870  Biso   1.000  H
  H43      1.0000 0.47540  0.28070  0.03130  Biso   1.000  H
  H44      1.0000 0.47540  0.21930  0.53130  Biso   1.000  H
  H45      1.0000 0.38550  0.94070  0.00390  Biso   1.000  H
  H46      1.0000 0.38550  0.55930  0.50390  Biso   1.000  H
  H47      1.0000 0.61450  0.05930  0.99610  Biso   1.000  H
  H48      1.0000 0.61450  0.44070  0.49610  Biso   1.000  H
  H49      1.0000 0.30770  0.79290  0.96190  Biso   1.000  H
  H50      1.0000 0.30770  0.70710  0.46190  Biso   1.000  H
  H51      1.0000 0.69230  0.20710  0.03810  Biso   1.000  H
  H52      1.0000 0.69230  0.29290  0.53810  Biso   1.000  H
  H53      1.0000 0.24510  0.95350  0.98090  Biso   1.000  H
  H54      1.0000 0.24510  0.54650  0.48090  Biso   1.000  H
  H55      1.0000 0.75490  0.04650  0.01910  Biso   1.000  H
  H56      1.0000 0.75490  0.45350  0.51910  Biso   1.000  H
  H57      1.0000 0.91060  0.20800  0.99220  Biso   1.000  H
  H58      1.0000 0.91060  0.29200  0.49220  Biso   1.000  H
  H59      1.0000 0.08940  0.79200  0.00780  Biso   1.000  H
  H60      1.0000 0.08940  0.70800  0.50780  Biso   1.000  H
  H61      1.0000 0.16810  0.53670  0.97910  Biso   1.000  H
  H62      1.0000 0.16810  0.96330  0.47910  Biso   1.000  H
  H63      1.0000 0.83190  0.46330  0.02090  Biso   1.000  H
  H64      1.0000 0.83190  0.03670  0.52090  Biso   1.000  H
