data_image0
_cell_length_a       23.4386
_cell_length_b       11.3279
_cell_length_c       9.3973
_cell_angle_alpha    90
_cell_angle_beta     92.048
_cell_angle_gamma    90

_symmetry_space_group_name_H-M    "P 1"
_symmetry_int_tables_number       1

loop_
  _symmetry_equiv_pos_as_xyz
  'x, y, z'

loop_
  _atom_site_label
  _atom_site_occupancy
  _atom_site_fract_x
  _atom_site_fract_y
  _atom_site_fract_z
  _atom_site_thermal_displace_type
  _atom_site_B_iso_or_equiv
  _atom_site_type_symbol
  C1       1.0000 0.43790  0.80240  0.00070  Biso   1.000  C
  C2       1.0000 0.56210  0.80240  0.49930  Biso   1.000  C
  C3       1.0000 0.93790  0.30240  0.00070  Biso   1.000  C
  C4       1.0000 0.06210  0.30240  0.49930  Biso   1.000  C
  C5       1.0000 0.56210  0.19760  0.99930  Biso   1.000  C
  C6       1.0000 0.43790  0.19760  0.50070  Biso   1.000  C
  C7       1.0000 0.06210  0.69760  0.99930  Biso   1.000  C
  C8       1.0000 0.93790  0.69760  0.50070  Biso   1.000  C
  H1       1.0000 0.46360  0.74650  0.96910  Biso   1.000  H
  H2       1.0000 0.53640  0.74650  0.53090  Biso   1.000  H
  H3       1.0000 0.96360  0.24650  0.96910  Biso   1.000  H
  H4       1.0000 0.03640  0.24650  0.53090  Biso   1.000  H
  H5       1.0000 0.53640  0.25350  0.03090  Biso   1.000  H
  H6       1.0000 0.46360  0.25350  0.46910  Biso   1.000  H
  H7       1.0000 0.03640  0.75350  0.03090  Biso   1.000  H
  H8       1.0000 0.96360  0.75350  0.46910  Biso   1.000  H
  C9       1.0000 0.45720  0.90140  0.07390  Biso   1.000  C
  C10      1.0000 0.54280  0.90140  0.42610  Biso   1.000  C
  C11      1.0000 0.95720  0.40140  0.07390  Biso   1.000  C
  C12      1.0000 0.04280  0.40140  0.42610  Biso   1.000  C
  C13      1.0000 0.54280  0.09860  0.92610  Biso   1.000  C
  C14      1.0000 0.45720  0.09860  0.57390  Biso   1.000  C
  C15      1.0000 0.04280  0.59860  0.92610  Biso   1.000  C
  C16      1.0000 0.95720  0.59860  0.57390  Biso   1.000  C
  H9       1.0000 0.49610  0.91180  0.09280  Biso   1.000  H
  H10      1.0000 0.50390  0.91180  0.40720  Biso   1.000  H
  H11      1.0000 0.99610  0.41180  0.09280  Biso   1.000  H
  H12      1.0000 0.00390  0.41180  0.40720  Biso   1.000  H
  H13      1.0000 0.50390  0.08820  0.90720  Biso   1.000  H
  H14      1.0000 0.49610  0.08820  0.59280  Biso   1.000  H
  H15      1.0000 0.00390  0.58820  0.90720  Biso   1.000  H
  H16      1.0000 0.99610  0.58820  0.59280  Biso   1.000  H
  C17      1.0000 0.41880  0.98500  0.11930  Biso   1.000  C
  C18      1.0000 0.58120  0.98500  0.38070  Biso   1.000  C
  C19      1.0000 0.91880  0.48500  0.11930  Biso   1.000  C
  C20      1.0000 0.08120  0.48500  0.38070  Biso   1.000  C
  C21      1.0000 0.58120  0.01500  0.88070  Biso   1.000  C
  C22      1.0000 0.41880  0.01500  0.61930  Biso   1.000  C
  C23      1.0000 0.08120  0.51500  0.88070  Biso   1.000  C
  C24      1.0000 0.91880  0.51500  0.61930  Biso   1.000  C
  H17      1.0000 0.43210  0.05090  0.16940  Biso   1.000  H
  H18      1.0000 0.56790  0.05090  0.33060  Biso   1.000  H
  H19      1.0000 0.93210  0.55090  0.16940  Biso   1.000  H
  H20      1.0000 0.06790  0.55090  0.33060  Biso   1.000  H
  H21      1.0000 0.56790  0.94910  0.83060  Biso   1.000  H
  H22      1.0000 0.43210  0.94910  0.66940  Biso   1.000  H
  H23      1.0000 0.06790  0.44910  0.83060  Biso   1.000  H
  H24      1.0000 0.93210  0.44910  0.66940  Biso   1.000  H
  C25      1.0000 0.38080  0.78780  0.97530  Biso   1.000  C
  C26      1.0000 0.61920  0.78780  0.52470  Biso   1.000  C
  C27      1.0000 0.88080  0.28780  0.97530  Biso   1.000  C
  C28      1.0000 0.11920  0.28780  0.52470  Biso   1.000  C
  C29      1.0000 0.61920  0.21220  0.02470  Biso   1.000  C
  C30      1.0000 0.38080  0.21220  0.47530  Biso   1.000  C
  C31      1.0000 0.11920  0.71220  0.02470  Biso   1.000  C
  C32      1.0000 0.88080  0.71220  0.47530  Biso   1.000  C
  H25      1.0000 0.36760  0.72090  0.92730  Biso   1.000  H
  H26      1.0000 0.63240  0.72090  0.57270  Biso   1.000  H
  H27      1.0000 0.86760  0.22090  0.92730  Biso   1.000  H
  H28      1.0000 0.13240  0.22090  0.57270  Biso   1.000  H
  H29      1.0000 0.63240  0.27910  0.07270  Biso   1.000  H
  H30      1.0000 0.36760  0.27910  0.42730  Biso   1.000  H
  H31      1.0000 0.13240  0.77910  0.07270  Biso   1.000  H
  H32      1.0000 0.86760  0.77910  0.42730  Biso   1.000  H
  C33      1.0000 0.34250  0.87080  0.01970  Biso   1.000  C
  C34      1.0000 0.65750  0.87080  0.48030  Biso   1.000  C
  C35      1.0000 0.84250  0.37080  0.01970  Biso   1.000  C
  C36      1.0000 0.15750  0.37080  0.48030  Biso   1.000  C
  C37      1.0000 0.65750  0.12920  0.98030  Biso   1.000  C
  C38      1.0000 0.34250  0.12920  0.51970  Biso   1.000  C
  C39      1.0000 0.15750  0.62920  0.98030  Biso   1.000  C
  C40      1.0000 0.84250  0.62920  0.51970  Biso   1.000  C
  H33      1.0000 0.30360  0.85890  0.00170  Biso   1.000  H
  H34      1.0000 0.69640  0.85890  0.49830  Biso   1.000  H
  H35      1.0000 0.80360  0.35890  0.00170  Biso   1.000  H
  H36      1.0000 0.19640  0.35890  0.49830  Biso   1.000  H
  H37      1.0000 0.69640  0.14110  0.99830  Biso   1.000  H
  H38      1.0000 0.30360  0.14110  0.50170  Biso   1.000  H
  H39      1.0000 0.19640  0.64110  0.99830  Biso   1.000  H
  H40      1.0000 0.80360  0.64110  0.50170  Biso   1.000  H
  C41      1.0000 0.36080  0.97180  0.09090  Biso   1.000  C
  C42      1.0000 0.63920  0.97180  0.40910  Biso   1.000  C
  C43      1.0000 0.86080  0.47180  0.09090  Biso   1.000  C
  C44      1.0000 0.13920  0.47180  0.40910  Biso   1.000  C
  C45      1.0000 0.63920  0.02820  0.90910  Biso   1.000  C
  C46      1.0000 0.36080  0.02820  0.59090  Biso   1.000  C
  C47      1.0000 0.13920  0.52820  0.90910  Biso   1.000  C
  C48      1.0000 0.86080  0.52820  0.59090  Biso   1.000  C
  N1       1.0000 0.27099  0.02640  0.20760  Biso   1.000  N
  N2       1.0000 0.72901  0.02640  0.29240  Biso   1.000  N
  N3       1.0000 0.77099  0.52640  0.20760  Biso   1.000  N
  N4       1.0000 0.22901  0.52640  0.29240  Biso   1.000  N
  N5       1.0000 0.72901  0.97360  0.79240  Biso   1.000  N
  N6       1.0000 0.27099  0.97360  0.70760  Biso   1.000  N
  N7       1.0000 0.22901  0.47360  0.79240  Biso   1.000  N
  N8       1.0000 0.77099  0.47360  0.70760  Biso   1.000  N
  C49      1.0000 0.31947  0.05910  0.13770  Biso   1.000  C
  C50      1.0000 0.68053  0.05910  0.36230  Biso   1.000  C
  C51      1.0000 0.81947  0.55910  0.13770  Biso   1.000  C
  C52      1.0000 0.18053  0.55910  0.36230  Biso   1.000  C
  C53      1.0000 0.68053  0.94090  0.86230  Biso   1.000  C
  C54      1.0000 0.31947  0.94090  0.63770  Biso   1.000  C
  C55      1.0000 0.18053  0.44090  0.86230  Biso   1.000  C
  C56      1.0000 0.81947  0.44090  0.63770  Biso   1.000  C
  Cu1      1.0000 0.24886  0.37553  0.23570  Biso   1.000  Cu
  Cu2      1.0000 0.75114  0.37553  0.26430  Biso   1.000  Cu
  Cu3      1.0000 0.74886  0.87553  0.23570  Biso   1.000  Cu
  Cu4      1.0000 0.25114  0.87553  0.26430  Biso   1.000  Cu
  Cu5      1.0000 0.75114  0.62447  0.76430  Biso   1.000  Cu
  Cu6      1.0000 0.24886  0.62447  0.73570  Biso   1.000  Cu
  Cu7      1.0000 0.25114  0.12447  0.76430  Biso   1.000  Cu
  Cu8      1.0000 0.74886  0.12447  0.73570  Biso   1.000  Cu
  N9       1.0000 0.27120  0.22270  0.19320  Biso   1.000  N
  N10      1.0000 0.72880  0.22270  0.30680  Biso   1.000  N
  N11      1.0000 0.77120  0.72270  0.19320  Biso   1.000  N
  N12      1.0000 0.22880  0.72270  0.30680  Biso   1.000  N
  N13      1.0000 0.72880  0.77730  0.80680  Biso   1.000  N
  N14      1.0000 0.27120  0.77730  0.69320  Biso   1.000  N
  N15      1.0000 0.22880  0.27730  0.80680  Biso   1.000  N
  N16      1.0000 0.77120  0.27730  0.69320  Biso   1.000  N
  C57      1.0000 0.31945  0.18360  0.12910  Biso   1.000  C
  C58      1.0000 0.68055  0.18360  0.37090  Biso   1.000  C
  C59      1.0000 0.81945  0.68360  0.12910  Biso   1.000  C
  C60      1.0000 0.18055  0.68360  0.37090  Biso   1.000  C
  C61      1.0000 0.68055  0.81640  0.87090  Biso   1.000  C
  C62      1.0000 0.31945  0.81640  0.62910  Biso   1.000  C
  C63      1.0000 0.18055  0.31640  0.87090  Biso   1.000  C
  C64      1.0000 0.81945  0.31640  0.62910  Biso   1.000  C
  C65      1.0000 0.37130  0.37360  0.11710  Biso   1.000  C
  C66      1.0000 0.62870  0.37360  0.38290  Biso   1.000  C
  C67      1.0000 0.87130  0.87360  0.11710  Biso   1.000  C
  C68      1.0000 0.12870  0.87360  0.38290  Biso   1.000  C
  C69      1.0000 0.62870  0.62640  0.88290  Biso   1.000  C
  C70      1.0000 0.37130  0.62640  0.61710  Biso   1.000  C
  C71      1.0000 0.12870  0.12640  0.88290  Biso   1.000  C
  C72      1.0000 0.87130  0.12640  0.61710  Biso   1.000  C
  H41      1.0000 0.35520  0.39600  0.20200  Biso   1.000  H
  H42      1.0000 0.64480  0.39600  0.29800  Biso   1.000  H
  H43      1.0000 0.85520  0.89600  0.20200  Biso   1.000  H
  H44      1.0000 0.14480  0.89600  0.29800  Biso   1.000  H
  H45      1.0000 0.64480  0.60400  0.79800  Biso   1.000  H
  H46      1.0000 0.35520  0.60400  0.70200  Biso   1.000  H
  H47      1.0000 0.14480  0.10400  0.79800  Biso   1.000  H
  H48      1.0000 0.85520  0.10400  0.70200  Biso   1.000  H
  C73      1.0000 0.35892  0.26280  0.05970  Biso   1.000  C
  C74      1.0000 0.64108  0.26280  0.44030  Biso   1.000  C
  C75      1.0000 0.85892  0.76280  0.05970  Biso   1.000  C
  C76      1.0000 0.14108  0.76280  0.44030  Biso   1.000  C
  C77      1.0000 0.64108  0.73720  0.94030  Biso   1.000  C
  C78      1.0000 0.35892  0.73720  0.55970  Biso   1.000  C
  C79      1.0000 0.14108  0.23720  0.94030  Biso   1.000  C
  C80      1.0000 0.85892  0.23720  0.55970  Biso   1.000  C
  C81      1.0000 0.38380  0.23270  0.93210  Biso   1.000  C
  C82      1.0000 0.61620  0.23270  0.56790  Biso   1.000  C
  C83      1.0000 0.88380  0.73270  0.93210  Biso   1.000  C
  C84      1.0000 0.11620  0.73270  0.56790  Biso   1.000  C
  C85      1.0000 0.61620  0.76730  0.06790  Biso   1.000  C
  C86      1.0000 0.38380  0.76730  0.43210  Biso   1.000  C
  C87      1.0000 0.11620  0.26730  0.06790  Biso   1.000  C
  C88      1.0000 0.88380  0.26730  0.43210  Biso   1.000  C
  H49      1.0000 0.37630  0.15940  0.89110  Biso   1.000  H
  H50      1.0000 0.62370  0.15940  0.60890  Biso   1.000  H
  H51      1.0000 0.87630  0.65940  0.89110  Biso   1.000  H
  H52      1.0000 0.12370  0.65940  0.60890  Biso   1.000  H
  H53      1.0000 0.62370  0.84060  0.10890  Biso   1.000  H
  H54      1.0000 0.37630  0.84060  0.39110  Biso   1.000  H
  H55      1.0000 0.12370  0.34060  0.10890  Biso   1.000  H
  H56      1.0000 0.87630  0.34060  0.39110  Biso   1.000  H
  C89      1.0000 0.41950  0.31080  0.86640  Biso   1.000  C
  C90      1.0000 0.58050  0.31080  0.63360  Biso   1.000  C
  C91      1.0000 0.91950  0.81080  0.86640  Biso   1.000  C
  C92      1.0000 0.08050  0.81080  0.63360  Biso   1.000  C
  C93      1.0000 0.58050  0.68920  0.13360  Biso   1.000  C
  C94      1.0000 0.41950  0.68920  0.36640  Biso   1.000  C
  C95      1.0000 0.08050  0.18920  0.13360  Biso   1.000  C
  C96      1.0000 0.91950  0.18920  0.36640  Biso   1.000  C
  H57      1.0000 0.43620  0.28910  0.78200  Biso   1.000  H
  H58      1.0000 0.56380  0.28910  0.71800  Biso   1.000  H
  H59      1.0000 0.93620  0.78910  0.78200  Biso   1.000  H
  H60      1.0000 0.06380  0.78910  0.71800  Biso   1.000  H
  H61      1.0000 0.56380  0.71090  0.21800  Biso   1.000  H
  H62      1.0000 0.43620  0.71090  0.28200  Biso   1.000  H
  H63      1.0000 0.06380  0.21090  0.21800  Biso   1.000  H
  H64      1.0000 0.93620  0.21090  0.28200  Biso   1.000  H
  C97      1.0000 0.40740  0.45090  0.04940  Biso   1.000  C
  C98      1.0000 0.59260  0.45090  0.45060  Biso   1.000  C
  C99      1.0000 0.90740  0.95090  0.04940  Biso   1.000  C
  C100     1.0000 0.09260  0.95090  0.45060  Biso   1.000  C
  C101     1.0000 0.59260  0.54910  0.95060  Biso   1.000  C
  C102     1.0000 0.40740  0.54910  0.54940  Biso   1.000  C
  C103     1.0000 0.09260  0.04910  0.95060  Biso   1.000  C
  C104     1.0000 0.90740  0.04910  0.54940  Biso   1.000  C
  H65      1.0000 0.41570  0.52420  0.08980  Biso   1.000  H
  H66      1.0000 0.58430  0.52420  0.41020  Biso   1.000  H
  H67      1.0000 0.91570  0.02420  0.08980  Biso   1.000  H
  H68      1.0000 0.08430  0.02420  0.41020  Biso   1.000  H
  H69      1.0000 0.58430  0.47580  0.91020  Biso   1.000  H
  H70      1.0000 0.41570  0.47580  0.58980  Biso   1.000  H
  H71      1.0000 0.08430  0.97580  0.91020  Biso   1.000  H
  H72      1.0000 0.91570  0.97580  0.58980  Biso   1.000  H
  C105     1.0000 0.43060  0.41970  0.92350  Biso   1.000  C
  C106     1.0000 0.56940  0.41970  0.57650  Biso   1.000  C
  C107     1.0000 0.93060  0.91970  0.92350  Biso   1.000  C
  C108     1.0000 0.06940  0.91970  0.57650  Biso   1.000  C
  C109     1.0000 0.56940  0.58030  0.07650  Biso   1.000  C
  C110     1.0000 0.43060  0.58030  0.42350  Biso   1.000  C
  C111     1.0000 0.06940  0.08030  0.07650  Biso   1.000  C
  C112     1.0000 0.93060  0.08030  0.42350  Biso   1.000  C
  H73      1.0000 0.45390  0.47240  0.87680  Biso   1.000  H
  H74      1.0000 0.54610  0.47240  0.62320  Biso   1.000  H
  H75      1.0000 0.95390  0.97240  0.87680  Biso   1.000  H
  H76      1.0000 0.04610  0.97240  0.62320  Biso   1.000  H
  H77      1.0000 0.54610  0.52760  0.12320  Biso   1.000  H
  H78      1.0000 0.45390  0.52760  0.37680  Biso   1.000  H
  H79      1.0000 0.04610  0.02760  0.12320  Biso   1.000  H
  H80      1.0000 0.95390  0.02760  0.37680  Biso   1.000  H
  C113     1.0000 0.24440  0.12560  0.23780  Biso   1.000  C
  C114     1.0000 0.75560  0.12560  0.26220  Biso   1.000  C
  C115     1.0000 0.74440  0.62560  0.23780  Biso   1.000  C
  C116     1.0000 0.25560  0.62560  0.26220  Biso   1.000  C
  C117     1.0000 0.75560  0.87440  0.76220  Biso   1.000  C
  C118     1.0000 0.24440  0.87440  0.73780  Biso   1.000  C
  C119     1.0000 0.25560  0.37440  0.76220  Biso   1.000  C
  C120     1.0000 0.74440  0.37440  0.73780  Biso   1.000  C
  H81      1.0000 0.21030  0.12790  0.28550  Biso   1.000  H
  H82      1.0000 0.78970  0.12790  0.21450  Biso   1.000  H
  H83      1.0000 0.71030  0.62790  0.28550  Biso   1.000  H
  H84      1.0000 0.28970  0.62790  0.21450  Biso   1.000  H
  H85      1.0000 0.78970  0.87210  0.71450  Biso   1.000  H
  H86      1.0000 0.21030  0.87210  0.78550  Biso   1.000  H
  H87      1.0000 0.28970  0.37210  0.71450  Biso   1.000  H
  H88      1.0000 0.71030  0.37210  0.78550  Biso   1.000  H
