data_image0
_cell_length_a       16.001
_cell_length_b       11.404
_cell_length_c       14.383
_cell_angle_alpha    90
_cell_angle_beta     115.16
_cell_angle_gamma    90

_symmetry_space_group_name_H-M    "P 1"
_symmetry_int_tables_number       1

loop_
  _symmetry_equiv_pos_as_xyz
  'x, y, z'

loop_
  _atom_site_label
  _atom_site_occupancy
  _atom_site_fract_x
  _atom_site_fract_y
  _atom_site_fract_z
  _atom_site_thermal_displace_type
  _atom_site_B_iso_or_equiv
  _atom_site_type_symbol
  I1       1.0000 0.37478  0.00000  0.00009  Biso   1.000  I
  I2       1.0000 0.62522  0.00000  0.99991  Biso   1.000  I
  I3       1.0000 0.87478  0.50000  0.00009  Biso   1.000  I
  I4       1.0000 0.12522  0.50000  0.99991  Biso   1.000  I
  I5       1.0000 0.14963  0.00000  0.52667  Biso   1.000  I
  I6       1.0000 0.85037  0.00000  0.47333  Biso   1.000  I
  I7       1.0000 0.64963  0.50000  0.52667  Biso   1.000  I
  I8       1.0000 0.35037  0.50000  0.47333  Biso   1.000  I
  I9       1.0000 0.24300  0.00000  0.38543  Biso   1.000  I
  I10      1.0000 0.75700  0.00000  0.61457  Biso   1.000  I
  I11      1.0000 0.74300  0.50000  0.38543  Biso   1.000  I
  I12      1.0000 0.25700  0.50000  0.61457  Biso   1.000  I
  I13      1.0000 0.32066  0.00000  0.23818  Biso   1.000  I
  I14      1.0000 0.67934  0.00000  0.76182  Biso   1.000  I
  I15      1.0000 0.82066  0.50000  0.23818  Biso   1.000  I
  I16      1.0000 0.17934  0.50000  0.76182  Biso   1.000  I
  Cu1      1.0000 0.50000  0.85505  0.00000  Biso   1.000  Cu
  Cu2      1.0000 0.00000  0.35505  0.00000  Biso   1.000  Cu
  Cu3      1.0000 0.50000  0.14495  0.00000  Biso   1.000  Cu
  Cu4      1.0000 0.00000  0.64495  0.00000  Biso   1.000  Cu
  N1       1.0000 0.51520  0.71390  0.09560  Biso   1.000  N
  N2       1.0000 0.48480  0.71390  0.90440  Biso   1.000  N
  N3       1.0000 0.01520  0.21390  0.09560  Biso   1.000  N
  N4       1.0000 0.98480  0.21390  0.90440  Biso   1.000  N
  N5       1.0000 0.48480  0.28610  0.90440  Biso   1.000  N
  N6       1.0000 0.51520  0.28610  0.09560  Biso   1.000  N
  N7       1.0000 0.98480  0.78610  0.90440  Biso   1.000  N
  N8       1.0000 0.01520  0.78610  0.09560  Biso   1.000  N
  N9       1.0000 0.43770  0.70230  0.20190  Biso   1.000  N
  N10      1.0000 0.56230  0.70230  0.79810  Biso   1.000  N
  N11      1.0000 0.93770  0.20230  0.20190  Biso   1.000  N
  N12      1.0000 0.06230  0.20230  0.79810  Biso   1.000  N
  N13      1.0000 0.56230  0.29770  0.79810  Biso   1.000  N
  N14      1.0000 0.43770  0.29770  0.20190  Biso   1.000  N
  N15      1.0000 0.06230  0.79770  0.79810  Biso   1.000  N
  N16      1.0000 0.93770  0.79770  0.20190  Biso   1.000  N
  N17      1.0000 0.59020  0.77190  0.26620  Biso   1.000  N
  N18      1.0000 0.40980  0.77190  0.73380  Biso   1.000  N
  N19      1.0000 0.09020  0.27190  0.26620  Biso   1.000  N
  N20      1.0000 0.90980  0.27190  0.73380  Biso   1.000  N
  N21      1.0000 0.40980  0.22810  0.73380  Biso   1.000  N
  N22      1.0000 0.59020  0.22810  0.26620  Biso   1.000  N
  N23      1.0000 0.90980  0.72810  0.73380  Biso   1.000  N
  N24      1.0000 0.09020  0.72810  0.26620  Biso   1.000  N
  C1       1.0000 0.50570  0.60720  0.05430  Biso   1.000  C
  C2       1.0000 0.49430  0.60720  0.94570  Biso   1.000  C
  C3       1.0000 0.00570  0.10720  0.05430  Biso   1.000  C
  C4       1.0000 0.99430  0.10720  0.94570  Biso   1.000  C
  C5       1.0000 0.49430  0.39280  0.94570  Biso   1.000  C
  C6       1.0000 0.50570  0.39280  0.05430  Biso   1.000  C
  C7       1.0000 0.99430  0.89280  0.94570  Biso   1.000  C
  C8       1.0000 0.00570  0.89280  0.05430  Biso   1.000  C
  C9       1.0000 0.51110  0.50000  0.10490  Biso   1.000  C
  C10      1.0000 0.48890  0.50000  0.89510  Biso   1.000  C
  C11      1.0000 0.01110  0.00000  0.10490  Biso   1.000  C
  C12      1.0000 0.98890  0.00000  0.89510  Biso   1.000  C
  H1       1.0000 0.51840  0.50000  0.17260  Biso   1.000  H
  H2       1.0000 0.48160  0.50000  0.82740  Biso   1.000  H
  H3       1.0000 0.01840  0.00000  0.17260  Biso   1.000  H
  H4       1.0000 0.98160  0.00000  0.82740  Biso   1.000  H
  C13      1.0000 0.51400  0.72690  0.19070  Biso   1.000  C
  C14      1.0000 0.48600  0.72690  0.80930  Biso   1.000  C
  C15      1.0000 0.01400  0.22690  0.19070  Biso   1.000  C
  C16      1.0000 0.98600  0.22690  0.80930  Biso   1.000  C
  C17      1.0000 0.48600  0.27310  0.80930  Biso   1.000  C
  C18      1.0000 0.51400  0.27310  0.19070  Biso   1.000  C
  C19      1.0000 0.98600  0.77310  0.80930  Biso   1.000  C
  C20      1.0000 0.01400  0.77310  0.19070  Biso   1.000  C
  C21      1.0000 0.43450  0.66980  0.29900  Biso   1.000  C
  C22      1.0000 0.56550  0.66980  0.70100  Biso   1.000  C
  C23      1.0000 0.93450  0.16980  0.29900  Biso   1.000  C
  C24      1.0000 0.06550  0.16980  0.70100  Biso   1.000  C
  C25      1.0000 0.56550  0.33020  0.70100  Biso   1.000  C
  C26      1.0000 0.43450  0.33020  0.29900  Biso   1.000  C
  C27      1.0000 0.06550  0.83020  0.70100  Biso   1.000  C
  C28      1.0000 0.93450  0.83020  0.29900  Biso   1.000  C
  H5       1.0000 0.39410  0.60390  0.28790  Biso   1.000  H
  H6       1.0000 0.60590  0.60390  0.71210  Biso   1.000  H
  H7       1.0000 0.89410  0.10390  0.28790  Biso   1.000  H
  H8       1.0000 0.10590  0.10390  0.71210  Biso   1.000  H
  H9       1.0000 0.60590  0.39610  0.71210  Biso   1.000  H
  H10      1.0000 0.39410  0.39610  0.28790  Biso   1.000  H
  H11      1.0000 0.10590  0.89610  0.71210  Biso   1.000  H
  H12      1.0000 0.89410  0.89610  0.28790  Biso   1.000  H
  H13      1.0000 0.41210  0.73490  0.32410  Biso   1.000  H
  H14      1.0000 0.58790  0.73490  0.67590  Biso   1.000  H
  H15      1.0000 0.91210  0.23490  0.32410  Biso   1.000  H
  H16      1.0000 0.08790  0.23490  0.67590  Biso   1.000  H
  H17      1.0000 0.58790  0.26510  0.67590  Biso   1.000  H
  H18      1.0000 0.41210  0.26510  0.32410  Biso   1.000  H
  H19      1.0000 0.08790  0.76510  0.67590  Biso   1.000  H
  H20      1.0000 0.91210  0.76510  0.32410  Biso   1.000  H
  H21      1.0000 0.49540  0.64930  0.34850  Biso   1.000  H
  H22      1.0000 0.50460  0.64930  0.65150  Biso   1.000  H
  H23      1.0000 0.99540  0.14930  0.34850  Biso   1.000  H
  H24      1.0000 0.00460  0.14930  0.65150  Biso   1.000  H
  H25      1.0000 0.50460  0.35070  0.65150  Biso   1.000  H
  H26      1.0000 0.49540  0.35070  0.34850  Biso   1.000  H
  H27      1.0000 0.00460  0.85070  0.65150  Biso   1.000  H
  H28      1.0000 0.99540  0.85070  0.34850  Biso   1.000  H
  C29      1.0000 0.34900  0.69040  0.11160  Biso   1.000  C
  C30      1.0000 0.65100  0.69040  0.88840  Biso   1.000  C
  C31      1.0000 0.84900  0.19040  0.11160  Biso   1.000  C
  C32      1.0000 0.15100  0.19040  0.88840  Biso   1.000  C
  C33      1.0000 0.65100  0.30960  0.88840  Biso   1.000  C
  C34      1.0000 0.34900  0.30960  0.11160  Biso   1.000  C
  C35      1.0000 0.15100  0.80960  0.88840  Biso   1.000  C
  C36      1.0000 0.84900  0.80960  0.11160  Biso   1.000  C
  H29      1.0000 0.30080  0.72310  0.12650  Biso   1.000  H
  H30      1.0000 0.69920  0.72310  0.87350  Biso   1.000  H
  H31      1.0000 0.80080  0.22310  0.12650  Biso   1.000  H
  H32      1.0000 0.19920  0.22310  0.87350  Biso   1.000  H
  H33      1.0000 0.69920  0.27690  0.87350  Biso   1.000  H
  H34      1.0000 0.30080  0.27690  0.12650  Biso   1.000  H
  H35      1.0000 0.19920  0.77690  0.87350  Biso   1.000  H
  H36      1.0000 0.80080  0.77690  0.12650  Biso   1.000  H
  H37      1.0000 0.33650  0.60890  0.09460  Biso   1.000  H
  H38      1.0000 0.66350  0.60890  0.90540  Biso   1.000  H
  H39      1.0000 0.83650  0.10890  0.09460  Biso   1.000  H
  H40      1.0000 0.16350  0.10890  0.90540  Biso   1.000  H
  H41      1.0000 0.66350  0.39110  0.90540  Biso   1.000  H
  H42      1.0000 0.33650  0.39110  0.09460  Biso   1.000  H
  H43      1.0000 0.16350  0.89110  0.90540  Biso   1.000  H
  H44      1.0000 0.83650  0.89110  0.09460  Biso   1.000  H
  H45      1.0000 0.35170  0.73140  0.05460  Biso   1.000  H
  H46      1.0000 0.64830  0.73140  0.94540  Biso   1.000  H
  H47      1.0000 0.85170  0.23140  0.05460  Biso   1.000  H
  H48      1.0000 0.14830  0.23140  0.94540  Biso   1.000  H
  H49      1.0000 0.64830  0.26860  0.94540  Biso   1.000  H
  H50      1.0000 0.35170  0.26860  0.05460  Biso   1.000  H
  H51      1.0000 0.14830  0.76860  0.94540  Biso   1.000  H
  H52      1.0000 0.85170  0.76860  0.05460  Biso   1.000  H
  C37      1.0000 0.67580  0.78170  0.25240  Biso   1.000  C
  C38      1.0000 0.32420  0.78170  0.74760  Biso   1.000  C
  C39      1.0000 0.17580  0.28170  0.25240  Biso   1.000  C
  C40      1.0000 0.82420  0.28170  0.74760  Biso   1.000  C
  C41      1.0000 0.32420  0.21830  0.74760  Biso   1.000  C
  C42      1.0000 0.67580  0.21830  0.25240  Biso   1.000  C
  C43      1.0000 0.82420  0.71830  0.74760  Biso   1.000  C
  C44      1.0000 0.17580  0.71830  0.25240  Biso   1.000  C
  H53      1.0000 0.67730  0.72100  0.20680  Biso   1.000  H
  H54      1.0000 0.32270  0.72100  0.79320  Biso   1.000  H
  H55      1.0000 0.17730  0.22100  0.20680  Biso   1.000  H
  H56      1.0000 0.82270  0.22100  0.79320  Biso   1.000  H
  H57      1.0000 0.32270  0.27900  0.79320  Biso   1.000  H
  H58      1.0000 0.67730  0.27900  0.20680  Biso   1.000  H
  H59      1.0000 0.82270  0.77900  0.79320  Biso   1.000  H
  H60      1.0000 0.17730  0.77900  0.20680  Biso   1.000  H
  H61      1.0000 0.72810  0.77350  0.31770  Biso   1.000  H
  H62      1.0000 0.27190  0.77350  0.68230  Biso   1.000  H
  H63      1.0000 0.22810  0.27350  0.31770  Biso   1.000  H
  H64      1.0000 0.77190  0.27350  0.68230  Biso   1.000  H
  H65      1.0000 0.27190  0.22650  0.68230  Biso   1.000  H
  H66      1.0000 0.72810  0.22650  0.31770  Biso   1.000  H
  H67      1.0000 0.77190  0.72650  0.68230  Biso   1.000  H
  H68      1.0000 0.22810  0.72650  0.31770  Biso   1.000  H
  H69      1.0000 0.67800  0.85690  0.22350  Biso   1.000  H
  H70      1.0000 0.32200  0.85690  0.77650  Biso   1.000  H
  H71      1.0000 0.17800  0.35690  0.22350  Biso   1.000  H
  H72      1.0000 0.82200  0.35690  0.77650  Biso   1.000  H
  H73      1.0000 0.32200  0.14310  0.77650  Biso   1.000  H
  H74      1.0000 0.67800  0.14310  0.22350  Biso   1.000  H
  H75      1.0000 0.82200  0.64310  0.77650  Biso   1.000  H
  H76      1.0000 0.17800  0.64310  0.22350  Biso   1.000  H
  C45      1.0000 0.59010  0.83440  0.35470  Biso   1.000  C
  C46      1.0000 0.40990  0.83440  0.64530  Biso   1.000  C
  C47      1.0000 0.09010  0.33440  0.35470  Biso   1.000  C
  C48      1.0000 0.90990  0.33440  0.64530  Biso   1.000  C
  C49      1.0000 0.40990  0.16560  0.64530  Biso   1.000  C
  C50      1.0000 0.59010  0.16560  0.35470  Biso   1.000  C
  C51      1.0000 0.90990  0.66560  0.64530  Biso   1.000  C
  C52      1.0000 0.09010  0.66560  0.35470  Biso   1.000  C
  H77      1.0000 0.63260  0.89880  0.37180  Biso   1.000  H
  H78      1.0000 0.36740  0.89880  0.62820  Biso   1.000  H
  H79      1.0000 0.13260  0.39880  0.37180  Biso   1.000  H
  H80      1.0000 0.86740  0.39880  0.62820  Biso   1.000  H
  H81      1.0000 0.36740  0.10120  0.62820  Biso   1.000  H
  H82      1.0000 0.63260  0.10120  0.37180  Biso   1.000  H
  H83      1.0000 0.86740  0.60120  0.62820  Biso   1.000  H
  H84      1.0000 0.13260  0.60120  0.37180  Biso   1.000  H
  H85      1.0000 0.60840  0.78190  0.41220  Biso   1.000  H
  H86      1.0000 0.39160  0.78190  0.58780  Biso   1.000  H
  H87      1.0000 0.10840  0.28190  0.41220  Biso   1.000  H
  H88      1.0000 0.89160  0.28190  0.58780  Biso   1.000  H
  H89      1.0000 0.39160  0.21810  0.58780  Biso   1.000  H
  H90      1.0000 0.60840  0.21810  0.41220  Biso   1.000  H
  H91      1.0000 0.89160  0.71810  0.58780  Biso   1.000  H
  H92      1.0000 0.10840  0.71810  0.41220  Biso   1.000  H
  H93      1.0000 0.52910  0.86350  0.33840  Biso   1.000  H
  H94      1.0000 0.47090  0.86350  0.66160  Biso   1.000  H
  H95      1.0000 0.02910  0.36350  0.33840  Biso   1.000  H
  H96      1.0000 0.97090  0.36350  0.66160  Biso   1.000  H
  H97      1.0000 0.47090  0.13650  0.66160  Biso   1.000  H
  H98      1.0000 0.52910  0.13650  0.33840  Biso   1.000  H
  H99      1.0000 0.97090  0.63650  0.66160  Biso   1.000  H
  H100     1.0000 0.02910  0.63650  0.33840  Biso   1.000  H
