data_image0
_cell_length_a       15.983
_cell_length_b       14.111
_cell_length_c       5.963
_cell_angle_alpha    90
_cell_angle_beta     96.01
_cell_angle_gamma    90

_symmetry_space_group_name_H-M    "P 1"
_symmetry_int_tables_number       1

loop_
  _symmetry_equiv_pos_as_xyz
  'x, y, z'

loop_
  _atom_site_label
  _atom_site_occupancy
  _atom_site_fract_x
  _atom_site_fract_y
  _atom_site_fract_z
  _atom_site_thermal_displace_type
  _atom_site_B_iso_or_equiv
  _atom_site_type_symbol
  Br1      1.0000 0.09050  0.09910  0.01800  Biso   1.000  Br
  Br2      1.0000 0.59050  0.59910  0.01800  Biso   1.000  Br
  Br3      1.0000 0.90950  0.09910  0.48200  Biso   1.000  Br
  Br4      1.0000 0.40950  0.59910  0.48200  Biso   1.000  Br
  Br5      1.0000 0.90950  0.90090  0.98200  Biso   1.000  Br
  Br6      1.0000 0.40950  0.40090  0.98200  Biso   1.000  Br
  Br7      1.0000 0.09050  0.90090  0.51800  Biso   1.000  Br
  Br8      1.0000 0.59050  0.40090  0.51800  Biso   1.000  Br
  Cu1      1.0000 0.00000  0.99070  0.75000  Biso   1.000  Cu
  Cu2      1.0000 0.50000  0.49070  0.75000  Biso   1.000  Cu
  Cu3      1.0000 0.00000  0.00930  0.25000  Biso   1.000  Cu
  Cu4      1.0000 0.50000  0.50930  0.25000  Biso   1.000  Cu
  Cu5      1.0000 0.00000  0.20370  0.75000  Biso   1.000  Cu
  Cu6      1.0000 0.50000  0.70370  0.75000  Biso   1.000  Cu
  Cu7      1.0000 0.00000  0.79630  0.25000  Biso   1.000  Cu
  Cu8      1.0000 0.50000  0.29630  0.25000  Biso   1.000  Cu
  N1       1.0000 0.92550  0.27550  0.93050  Biso   1.000  N
  N2       1.0000 0.42550  0.77550  0.93050  Biso   1.000  N
  N3       1.0000 0.07450  0.27550  0.56950  Biso   1.000  N
  N4       1.0000 0.57450  0.77550  0.56950  Biso   1.000  N
  N5       1.0000 0.07450  0.72450  0.06950  Biso   1.000  N
  N6       1.0000 0.57450  0.22450  0.06950  Biso   1.000  N
  N7       1.0000 0.92550  0.72450  0.43050  Biso   1.000  N
  N8       1.0000 0.42550  0.22450  0.43050  Biso   1.000  N
  C1       1.0000 0.87880  0.31390  0.02830  Biso   1.000  C
  C2       1.0000 0.37880  0.81390  0.02830  Biso   1.000  C
  C3       1.0000 0.12120  0.31390  0.47170  Biso   1.000  C
  C4       1.0000 0.62120  0.81390  0.47170  Biso   1.000  C
  C5       1.0000 0.12120  0.68610  0.97170  Biso   1.000  C
  C6       1.0000 0.62120  0.18610  0.97170  Biso   1.000  C
  C7       1.0000 0.87880  0.68610  0.52830  Biso   1.000  C
  C8       1.0000 0.37880  0.18610  0.52830  Biso   1.000  C
  C9       1.0000 0.81870  0.36000  0.15530  Biso   1.000  C
  C10      1.0000 0.31870  0.86000  0.15530  Biso   1.000  C
  C11      1.0000 0.18130  0.36000  0.34470  Biso   1.000  C
  C12      1.0000 0.68130  0.86000  0.34470  Biso   1.000  C
  C13      1.0000 0.18130  0.64000  0.84470  Biso   1.000  C
  C14      1.0000 0.68130  0.14000  0.84470  Biso   1.000  C
  C15      1.0000 0.81870  0.64000  0.65530  Biso   1.000  C
  C16      1.0000 0.31870  0.14000  0.65530  Biso   1.000  C
  C17      1.0000 0.74570  0.38980  0.05030  Biso   1.000  C
  C18      1.0000 0.24570  0.88980  0.05030  Biso   1.000  C
  C19      1.0000 0.25430  0.38980  0.44970  Biso   1.000  C
  C20      1.0000 0.75430  0.88980  0.44970  Biso   1.000  C
  C21      1.0000 0.25430  0.61020  0.94970  Biso   1.000  C
  C22      1.0000 0.75430  0.11020  0.94970  Biso   1.000  C
  C23      1.0000 0.74570  0.61020  0.55030  Biso   1.000  C
  C24      1.0000 0.24570  0.11020  0.55030  Biso   1.000  C
  C25      1.0000 0.84640  0.37130  0.40860  Biso   1.000  C
  C26      1.0000 0.34640  0.87130  0.40860  Biso   1.000  C
  C27      1.0000 0.15360  0.37130  0.09140  Biso   1.000  C
  C28      1.0000 0.65360  0.87130  0.09140  Biso   1.000  C
  C29      1.0000 0.15360  0.62870  0.59140  Biso   1.000  C
  C30      1.0000 0.65360  0.12870  0.59140  Biso   1.000  C
  C31      1.0000 0.84640  0.62870  0.90860  Biso   1.000  C
  C32      1.0000 0.34640  0.12870  0.90860  Biso   1.000  C
