data_image0
_cell_length_a       6.7112
_cell_length_b       16.375
_cell_length_c       7.6495
_cell_angle_alpha    90
_cell_angle_beta     96.37
_cell_angle_gamma    90

_symmetry_space_group_name_H-M    "P 1"
_symmetry_int_tables_number       1

loop_
  _symmetry_equiv_pos_as_xyz
  'x, y, z'

loop_
  _atom_site_label
  _atom_site_occupancy
  _atom_site_fract_x
  _atom_site_fract_y
  _atom_site_fract_z
  _atom_site_thermal_displace_type
  _atom_site_B_iso_or_equiv
  _atom_site_type_symbol
  C1       1.0000 0.28050  0.14570  0.29980  Biso   1.000  C
  C2       1.0000 0.71950  0.64570  0.20020  Biso   1.000  C
  C3       1.0000 0.71950  0.85430  0.70020  Biso   1.000  C
  C4       1.0000 0.28050  0.35430  0.79980  Biso   1.000  C
  H1       1.0000 0.33630  0.10110  0.37300  Biso   1.000  H
  H2       1.0000 0.66370  0.60110  0.12700  Biso   1.000  H
  H3       1.0000 0.66370  0.89890  0.62700  Biso   1.000  H
  H4       1.0000 0.33630  0.39890  0.87300  Biso   1.000  H
  H5       1.0000 0.39080  0.17540  0.25770  Biso   1.000  H
  H6       1.0000 0.60920  0.67540  0.24230  Biso   1.000  H
  H7       1.0000 0.60920  0.82460  0.74230  Biso   1.000  H
  H8       1.0000 0.39080  0.32460  0.75770  Biso   1.000  H
  C5       1.0000 0.16420  0.20230  0.40840  Biso   1.000  C
  C6       1.0000 0.83580  0.70230  0.09160  Biso   1.000  C
  C7       1.0000 0.83580  0.79770  0.59160  Biso   1.000  C
  C8       1.0000 0.16420  0.29770  0.90840  Biso   1.000  C
  H9       1.0000 0.25790  0.22700  0.49870  Biso   1.000  H
  H10      1.0000 0.74210  0.72700  0.00130  Biso   1.000  H
  H11      1.0000 0.74210  0.77300  0.50130  Biso   1.000  H
  H12      1.0000 0.25790  0.27300  0.99870  Biso   1.000  H
  H13      1.0000 0.10770  0.24590  0.33250  Biso   1.000  H
  H14      1.0000 0.89230  0.74590  0.16750  Biso   1.000  H
  H15      1.0000 0.89230  0.75410  0.66750  Biso   1.000  H
  H16      1.0000 0.10770  0.25410  0.83250  Biso   1.000  H
  C9       1.0000 0.99640  0.16370  0.49640  Biso   1.000  C
  C10      1.0000 0.00360  0.66370  0.00360  Biso   1.000  C
  C11      1.0000 0.00360  0.83630  0.50360  Biso   1.000  C
  C12      1.0000 0.99640  0.33630  0.99640  Biso   1.000  C
  H17      1.0000 0.93450  0.20560  0.56180  Biso   1.000  H
  H18      1.0000 0.06550  0.70560  0.93820  Biso   1.000  H
  H19      1.0000 0.06550  0.79440  0.43820  Biso   1.000  H
  H20      1.0000 0.93450  0.29440  0.06180  Biso   1.000  H
  H21      1.0000 0.05410  0.12350  0.58050  Biso   1.000  H
  H22      1.0000 0.94590  0.62350  0.91950  Biso   1.000  H
  H23      1.0000 0.94590  0.87650  0.41950  Biso   1.000  H
  H24      1.0000 0.05410  0.37650  0.08050  Biso   1.000  H
  C13      1.0000 0.83280  0.12210  0.37210  Biso   1.000  C
  C14      1.0000 0.16720  0.62210  0.12790  Biso   1.000  C
  C15      1.0000 0.16720  0.87790  0.62790  Biso   1.000  C
  C16      1.0000 0.83280  0.37790  0.87210  Biso   1.000  C
  H25      1.0000 0.77260  0.16180  0.28800  Biso   1.000  H
  H26      1.0000 0.22740  0.66180  0.21200  Biso   1.000  H
  H27      1.0000 0.22740  0.83820  0.71200  Biso   1.000  H
  H28      1.0000 0.77260  0.33820  0.78800  Biso   1.000  H
  H29      1.0000 0.72880  0.10190  0.43930  Biso   1.000  H
  H30      1.0000 0.27120  0.60190  0.06070  Biso   1.000  H
  H31      1.0000 0.27120  0.89810  0.56070  Biso   1.000  H
  H32      1.0000 0.72880  0.39810  0.93930  Biso   1.000  H
  S1       1.0000 0.11920  0.10485  0.11340  Biso   1.000  S
  S2       1.0000 0.88080  0.60485  0.38660  Biso   1.000  S
  S3       1.0000 0.88080  0.89515  0.88660  Biso   1.000  S
  S4       1.0000 0.11920  0.39515  0.61340  Biso   1.000  S
  S5       1.0000 0.93400  0.03785  0.25497  Biso   1.000  S
  S6       1.0000 0.06600  0.53785  0.24503  Biso   1.000  S
  S7       1.0000 0.06600  0.96215  0.74503  Biso   1.000  S
  S8       1.0000 0.93400  0.46215  0.75497  Biso   1.000  S
  Cu1      1.0000 0.30180  0.01199  0.96456  Biso   1.000  Cu
  Cu2      1.0000 0.69820  0.51199  0.53544  Biso   1.000  Cu
  Cu3      1.0000 0.69820  0.98801  0.03544  Biso   1.000  Cu
  Cu4      1.0000 0.30180  0.48801  0.46456  Biso   1.000  Cu
  I1       1.0000 0.44296  0.89359  0.17408  Biso   1.000  I
  I2       1.0000 0.55704  0.39359  0.32592  Biso   1.000  I
  I3       1.0000 0.55704  0.10641  0.82592  Biso   1.000  I
  I4       1.0000 0.44296  0.60641  0.67408  Biso   1.000  I
