data_image0
_cell_length_a       7.201
_cell_length_b       20.784
_cell_length_c       12.4
_cell_angle_alpha    90
_cell_angle_beta     90
_cell_angle_gamma    90

_symmetry_space_group_name_H-M    "P 1"
_symmetry_int_tables_number       1

loop_
  _symmetry_equiv_pos_as_xyz
  'x, y, z'

loop_
  _atom_site_label
  _atom_site_occupancy
  _atom_site_fract_x
  _atom_site_fract_y
  _atom_site_fract_z
  _atom_site_thermal_displace_type
  _atom_site_B_iso_or_equiv
  _atom_site_type_symbol
  I1       1.0000 0.12819  0.25000  0.14065  Biso   1.000  I
  I2       1.0000 0.37181  0.75000  0.64065  Biso   1.000  I
  I3       1.0000 0.62819  0.25000  0.35935  Biso   1.000  I
  I4       1.0000 0.87181  0.75000  0.85935  Biso   1.000  I
  Cu1      1.0000 0.76352  0.25000  0.16219  Biso   1.000  Cu
  Cu2      1.0000 0.73648  0.75000  0.66219  Biso   1.000  Cu
  Cu3      1.0000 0.26352  0.25000  0.33781  Biso   1.000  Cu
  Cu4      1.0000 0.23648  0.75000  0.83781  Biso   1.000  Cu
  S1       1.0000 0.63170  0.16211  0.07298  Biso   1.000  S
  S2       1.0000 0.86830  0.66211  0.57298  Biso   1.000  S
  S3       1.0000 0.63170  0.33789  0.07298  Biso   1.000  S
  S4       1.0000 0.13170  0.16211  0.42702  Biso   1.000  S
  S5       1.0000 0.36830  0.83789  0.92702  Biso   1.000  S
  S6       1.0000 0.13170  0.33789  0.42702  Biso   1.000  S
  S7       1.0000 0.36830  0.66211  0.92702  Biso   1.000  S
  S8       1.0000 0.86830  0.83789  0.57298  Biso   1.000  S
  N1       1.0000 0.81500  0.25000  0.83550  Biso   1.000  N
  N2       1.0000 0.68500  0.75000  0.33550  Biso   1.000  N
  N3       1.0000 0.31500  0.25000  0.66450  Biso   1.000  N
  N4       1.0000 0.18500  0.75000  0.16450  Biso   1.000  N
  C1       1.0000 0.65190  0.05980  0.86020  Biso   1.000  C
  C2       1.0000 0.84810  0.55980  0.36020  Biso   1.000  C
  C3       1.0000 0.65190  0.44020  0.86020  Biso   1.000  C
  C4       1.0000 0.15190  0.05980  0.63980  Biso   1.000  C
  C5       1.0000 0.34810  0.94020  0.13980  Biso   1.000  C
  C6       1.0000 0.15190  0.44020  0.63980  Biso   1.000  C
  C7       1.0000 0.34810  0.55980  0.13980  Biso   1.000  C
  C8       1.0000 0.84810  0.94020  0.36020  Biso   1.000  C
  C9       1.0000 0.56480  0.00610  0.81610  Biso   1.000  C
  C10      1.0000 0.93520  0.50610  0.31610  Biso   1.000  C
  C11      1.0000 0.56480  0.49390  0.81610  Biso   1.000  C
  C12      1.0000 0.06480  0.00610  0.68390  Biso   1.000  C
  C13      1.0000 0.43520  0.99390  0.18390  Biso   1.000  C
  C14      1.0000 0.06480  0.49390  0.68390  Biso   1.000  C
  C15      1.0000 0.43520  0.50610  0.18390  Biso   1.000  C
  C16      1.0000 0.93520  0.99390  0.31610  Biso   1.000  C
  C17      1.0000 0.57900  0.94630  0.86610  Biso   1.000  C
  C18      1.0000 0.92100  0.44630  0.36610  Biso   1.000  C
  C19      1.0000 0.57900  0.55370  0.86610  Biso   1.000  C
  C20      1.0000 0.07900  0.94630  0.63390  Biso   1.000  C
  C21      1.0000 0.42100  0.05370  0.13390  Biso   1.000  C
  C22      1.0000 0.07900  0.55370  0.63390  Biso   1.000  C
  C23      1.0000 0.42100  0.44630  0.13390  Biso   1.000  C
  C24      1.0000 0.92100  0.05370  0.36610  Biso   1.000  C
  C25      1.0000 0.69060  0.94080  0.95750  Biso   1.000  C
  C26      1.0000 0.80940  0.44080  0.45750  Biso   1.000  C
  C27      1.0000 0.69060  0.55920  0.95750  Biso   1.000  C
  C28      1.0000 0.19060  0.94080  0.54250  Biso   1.000  C
  C29      1.0000 0.30940  0.05920  0.04250  Biso   1.000  C
  C30      1.0000 0.19060  0.55920  0.54250  Biso   1.000  C
  C31      1.0000 0.30940  0.44080  0.04250  Biso   1.000  C
  C32      1.0000 0.80940  0.05920  0.45750  Biso   1.000  C
  C33      1.0000 0.77300  0.99460  0.00240  Biso   1.000  C
  C34      1.0000 0.72700  0.49460  0.50240  Biso   1.000  C
  C35      1.0000 0.77300  0.50540  0.00240  Biso   1.000  C
  C36      1.0000 0.27300  0.99460  0.49760  Biso   1.000  C
  C37      1.0000 0.22700  0.00540  0.99760  Biso   1.000  C
  C38      1.0000 0.27300  0.50540  0.49760  Biso   1.000  C
  C39      1.0000 0.22700  0.49460  0.99760  Biso   1.000  C
  C40      1.0000 0.72700  0.00540  0.50240  Biso   1.000  C
  C41      1.0000 0.75040  0.05480  0.95690  Biso   1.000  C
  C42      1.0000 0.74960  0.55480  0.45690  Biso   1.000  C
  C43      1.0000 0.75040  0.44520  0.95690  Biso   1.000  C
  C44      1.0000 0.25040  0.05480  0.54310  Biso   1.000  C
  C45      1.0000 0.24960  0.94520  0.04310  Biso   1.000  C
  C46      1.0000 0.25040  0.44520  0.54310  Biso   1.000  C
  C47      1.0000 0.24960  0.55480  0.04310  Biso   1.000  C
  C48      1.0000 0.74960  0.94520  0.45690  Biso   1.000  C
  C49      1.0000 0.81970  0.11360  0.01570  Biso   1.000  C
  C50      1.0000 0.68030  0.61360  0.51570  Biso   1.000  C
  C51      1.0000 0.81970  0.38640  0.01570  Biso   1.000  C
  C52      1.0000 0.31970  0.11360  0.48430  Biso   1.000  C
  C53      1.0000 0.18030  0.88640  0.98430  Biso   1.000  C
  C54      1.0000 0.31970  0.38640  0.48430  Biso   1.000  C
  C55      1.0000 0.18030  0.61360  0.98430  Biso   1.000  C
  C56      1.0000 0.68030  0.88640  0.51570  Biso   1.000  C
  C57      1.0000 0.53080  0.11070  0.17630  Biso   1.000  C
  C58      1.0000 0.96920  0.61070  0.67630  Biso   1.000  C
  C59      1.0000 0.53080  0.38930  0.17630  Biso   1.000  C
  C60      1.0000 0.03080  0.11070  0.32370  Biso   1.000  C
  C61      1.0000 0.46920  0.88930  0.82370  Biso   1.000  C
  C62      1.0000 0.03080  0.38930  0.32370  Biso   1.000  C
  C63      1.0000 0.46920  0.61070  0.82370  Biso   1.000  C
  C64      1.0000 0.96920  0.88930  0.67630  Biso   1.000  C
  C65      1.0000 0.82300  0.25000  0.74800  Biso   1.000  C
  C66      1.0000 0.67700  0.75000  0.24800  Biso   1.000  C
  C67      1.0000 0.32300  0.25000  0.75200  Biso   1.000  C
  C68      1.0000 0.17700  0.75000  0.25200  Biso   1.000  C
  C69      1.0000 0.81700  0.25000  0.64600  Biso   1.000  C
  C70      1.0000 0.68300  0.75000  0.14600  Biso   1.000  C
  C71      1.0000 0.31700  0.25000  0.85400  Biso   1.000  C
  C72      1.0000 0.18300  0.75000  0.35400  Biso   1.000  C
  H1       1.0000 0.64430  0.10010  0.82430  Biso   1.000  H
  H2       1.0000 0.85570  0.60010  0.32430  Biso   1.000  H
  H3       1.0000 0.64430  0.39990  0.82430  Biso   1.000  H
  H4       1.0000 0.14430  0.10010  0.67570  Biso   1.000  H
  H5       1.0000 0.35570  0.89990  0.17570  Biso   1.000  H
  H6       1.0000 0.14430  0.39990  0.67570  Biso   1.000  H
  H7       1.0000 0.35570  0.60010  0.17570  Biso   1.000  H
  H8       1.0000 0.85570  0.89990  0.32430  Biso   1.000  H
  H9       1.0000 0.49510  0.01030  0.75140  Biso   1.000  H
  H10      1.0000 0.00490  0.51030  0.25140  Biso   1.000  H
  H11      1.0000 0.49510  0.48970  0.75140  Biso   1.000  H
  H12      1.0000 0.99510  0.01030  0.74860  Biso   1.000  H
  H13      1.0000 0.50490  0.98970  0.24860  Biso   1.000  H
  H14      1.0000 0.99510  0.48970  0.74860  Biso   1.000  H
  H15      1.0000 0.50490  0.51030  0.24860  Biso   1.000  H
  H16      1.0000 0.00490  0.98970  0.25140  Biso   1.000  H
  H17      1.0000 0.71030  0.89970  0.98920  Biso   1.000  H
  H18      1.0000 0.78970  0.39970  0.48920  Biso   1.000  H
  H19      1.0000 0.71030  0.60030  0.98920  Biso   1.000  H
  H20      1.0000 0.21030  0.89970  0.51080  Biso   1.000  H
  H21      1.0000 0.28970  0.10030  0.01080  Biso   1.000  H
  H22      1.0000 0.21030  0.60030  0.51080  Biso   1.000  H
  H23      1.0000 0.28970  0.39970  0.01080  Biso   1.000  H
  H24      1.0000 0.78970  0.10030  0.48920  Biso   1.000  H
  H25      1.0000 0.84640  0.99010  0.06560  Biso   1.000  H
  H26      1.0000 0.65360  0.49010  0.56560  Biso   1.000  H
  H27      1.0000 0.84640  0.50990  0.06560  Biso   1.000  H
  H28      1.0000 0.34640  0.99010  0.43440  Biso   1.000  H
  H29      1.0000 0.15360  0.00990  0.93440  Biso   1.000  H
  H30      1.0000 0.34640  0.50990  0.43440  Biso   1.000  H
  H31      1.0000 0.15360  0.49010  0.93440  Biso   1.000  H
  H32      1.0000 0.65360  0.00990  0.56560  Biso   1.000  H
  H33      1.0000 0.89900  0.10020  0.07260  Biso   1.000  H
  H34      1.0000 0.60100  0.60020  0.57260  Biso   1.000  H
  H35      1.0000 0.89900  0.39980  0.07260  Biso   1.000  H
  H36      1.0000 0.39900  0.10020  0.42740  Biso   1.000  H
  H37      1.0000 0.10100  0.89980  0.92740  Biso   1.000  H
  H38      1.0000 0.39900  0.39980  0.42740  Biso   1.000  H
  H39      1.0000 0.10100  0.60020  0.92740  Biso   1.000  H
  H40      1.0000 0.60100  0.89980  0.57260  Biso   1.000  H
  H41      1.0000 0.88770  0.13950  0.96650  Biso   1.000  H
  H42      1.0000 0.61230  0.63950  0.46650  Biso   1.000  H
  H43      1.0000 0.88770  0.36050  0.96650  Biso   1.000  H
  H44      1.0000 0.38770  0.13950  0.53350  Biso   1.000  H
  H45      1.0000 0.11230  0.86050  0.03350  Biso   1.000  H
  H46      1.0000 0.38770  0.36050  0.53350  Biso   1.000  H
  H47      1.0000 0.11230  0.63950  0.03350  Biso   1.000  H
  H48      1.0000 0.61230  0.86050  0.46650  Biso   1.000  H
  H49      1.0000 0.62890  0.09460  0.21990  Biso   1.000  H
  H50      1.0000 0.87110  0.59460  0.71990  Biso   1.000  H
  H51      1.0000 0.62890  0.40540  0.21990  Biso   1.000  H
  H52      1.0000 0.12890  0.09460  0.28010  Biso   1.000  H
  H53      1.0000 0.37110  0.90540  0.78010  Biso   1.000  H
  H54      1.0000 0.12890  0.40540  0.28010  Biso   1.000  H
  H55      1.0000 0.37110  0.59460  0.78010  Biso   1.000  H
  H56      1.0000 0.87110  0.90540  0.71990  Biso   1.000  H
  H57      1.0000 0.45000  0.13620  0.21920  Biso   1.000  H
  H58      1.0000 0.05000  0.63620  0.71920  Biso   1.000  H
  H59      1.0000 0.45000  0.36380  0.21920  Biso   1.000  H
  H60      1.0000 0.95000  0.13620  0.28080  Biso   1.000  H
  H61      1.0000 0.55000  0.86380  0.78080  Biso   1.000  H
  H62      1.0000 0.95000  0.36380  0.28080  Biso   1.000  H
  H63      1.0000 0.55000  0.63620  0.78080  Biso   1.000  H
  H64      1.0000 0.05000  0.86380  0.71920  Biso   1.000  H
  H65      1.0000 0.75320  0.28730  0.62120  Biso   1.000  H
  H66      1.0000 0.74680  0.78730  0.12120  Biso   1.000  H
  H67      1.0000 0.75320  0.21270  0.62120  Biso   1.000  H
  H68      1.0000 0.25320  0.28730  0.87880  Biso   1.000  H
  H69      1.0000 0.24680  0.71270  0.37880  Biso   1.000  H
  H70      1.0000 0.25320  0.21270  0.87880  Biso   1.000  H
  H71      1.0000 0.24680  0.78730  0.37880  Biso   1.000  H
  H72      1.0000 0.74680  0.71270  0.12120  Biso   1.000  H
  H73      1.0000 0.93960  0.25000  0.61740  Biso   1.000  H
  H74      1.0000 0.56040  0.75000  0.11740  Biso   1.000  H
  H75      1.0000 0.43960  0.25000  0.88260  Biso   1.000  H
  H76      1.0000 0.06040  0.75000  0.38260  Biso   1.000  H
