data_image0
_cell_length_a       7.255
_cell_length_b       20.602
_cell_length_c       12.415
_cell_angle_alpha    90
_cell_angle_beta     102.491
_cell_angle_gamma    90

_symmetry_space_group_name_H-M    "P 1"
_symmetry_int_tables_number       1

loop_
  _symmetry_equiv_pos_as_xyz
  'x, y, z'

loop_
  _atom_site_label
  _atom_site_occupancy
  _atom_site_fract_x
  _atom_site_fract_y
  _atom_site_fract_z
  _atom_site_thermal_displace_type
  _atom_site_B_iso_or_equiv
  _atom_site_type_symbol
  Cu1      1.0000 0.91734  0.00329  0.09968  Biso   1.000  Cu
  Cu2      1.0000 0.41734  0.49671  0.59968  Biso   1.000  Cu
  Cu3      1.0000 0.08266  0.99671  0.90032  Biso   1.000  Cu
  Cu4      1.0000 0.58266  0.50329  0.40032  Biso   1.000  Cu
  Cl1      1.0000 0.23680  0.01289  0.09119  Biso   1.000  Cl
  Cl2      1.0000 0.73680  0.48711  0.59119  Biso   1.000  Cl
  Cl3      1.0000 0.76320  0.98711  0.90881  Biso   1.000  Cl
  Cl4      1.0000 0.26320  0.51289  0.40881  Biso   1.000  Cl
  S1       1.0000 0.82640  0.10049  0.15376  Biso   1.000  S
  S2       1.0000 0.32640  0.39951  0.65376  Biso   1.000  S
  S3       1.0000 0.17360  0.89951  0.84624  Biso   1.000  S
  S4       1.0000 0.67360  0.60049  0.34624  Biso   1.000  S
  S5       1.0000 0.63390  0.40783  0.31932  Biso   1.000  S
  S6       1.0000 0.13390  0.09217  0.81932  Biso   1.000  S
  S7       1.0000 0.36610  0.59217  0.68068  Biso   1.000  S
  S8       1.0000 0.86610  0.90783  0.18068  Biso   1.000  S
  N1       1.0000 0.22500  0.04810  0.51950  Biso   1.000  N
  N2       1.0000 0.72500  0.45190  0.01950  Biso   1.000  N
  N3       1.0000 0.77500  0.95190  0.48050  Biso   1.000  N
  N4       1.0000 0.27500  0.54810  0.98050  Biso   1.000  N
  C1       1.0000 0.68920  0.17070  0.40510  Biso   1.000  C
  C2       1.0000 0.18920  0.32930  0.90510  Biso   1.000  C
  C3       1.0000 0.31080  0.82930  0.59490  Biso   1.000  C
  C4       1.0000 0.81080  0.67070  0.09490  Biso   1.000  C
  C5       1.0000 0.65930  0.23330  0.44010  Biso   1.000  C
  C6       1.0000 0.15930  0.26670  0.94010  Biso   1.000  C
  C7       1.0000 0.34070  0.76670  0.55990  Biso   1.000  C
  C8       1.0000 0.84070  0.73330  0.05990  Biso   1.000  C
  C9       1.0000 0.56020  0.27860  0.36830  Biso   1.000  C
  C10      1.0000 0.06020  0.22140  0.86830  Biso   1.000  C
  C11      1.0000 0.43980  0.72140  0.63170  Biso   1.000  C
  C12      1.0000 0.93980  0.77860  0.13170  Biso   1.000  C
  C13      1.0000 0.47830  0.25870  0.26160  Biso   1.000  C
  C14      1.0000 0.97830  0.24130  0.76160  Biso   1.000  C
  C15      1.0000 0.52170  0.74130  0.73840  Biso   1.000  C
  C16      1.0000 0.02170  0.75870  0.23840  Biso   1.000  C
  C17      1.0000 0.50750  0.19640  0.22630  Biso   1.000  C
  C18      1.0000 0.00750  0.30360  0.72630  Biso   1.000  C
  C19      1.0000 0.49250  0.80360  0.77370  Biso   1.000  C
  C20      1.0000 0.99250  0.69640  0.27370  Biso   1.000  C
  C21      1.0000 0.61920  0.15240  0.29660  Biso   1.000  C
  C22      1.0000 0.11920  0.34760  0.79660  Biso   1.000  C
  C23      1.0000 0.38080  0.84760  0.70340  Biso   1.000  C
  C24      1.0000 0.88080  0.65240  0.20340  Biso   1.000  C
  C25      1.0000 0.67630  0.08890  0.25350  Biso   1.000  C
  C26      1.0000 0.17630  0.41110  0.75350  Biso   1.000  C
  C27      1.0000 0.32370  0.91110  0.74650  Biso   1.000  C
  C28      1.0000 0.82370  0.58890  0.24650  Biso   1.000  C
  C29      1.0000 0.04160  0.13590  0.23600  Biso   1.000  C
  C30      1.0000 0.54160  0.36410  0.73600  Biso   1.000  C
  C31      1.0000 0.95840  0.86410  0.76400  Biso   1.000  C
  C32      1.0000 0.45840  0.63590  0.26400  Biso   1.000  C
  C33      1.0000 0.90930  0.31450  0.21170  Biso   1.000  C
  C34      1.0000 0.40930  0.18550  0.71170  Biso   1.000  C
  C35      1.0000 0.09070  0.68550  0.78830  Biso   1.000  C
  C36      1.0000 0.59070  0.81450  0.28830  Biso   1.000  C
  C37      1.0000 0.94280  0.25130  0.18340  Biso   1.000  C
  C38      1.0000 0.44280  0.24870  0.68340  Biso   1.000  C
  C39      1.0000 0.05720  0.74870  0.81660  Biso   1.000  C
  C40      1.0000 0.55720  0.75130  0.31660  Biso   1.000  C
  C41      1.0000 0.02560  0.20710  0.26330  Biso   1.000  C
  C42      1.0000 0.52560  0.29290  0.76330  Biso   1.000  C
  C43      1.0000 0.97440  0.79290  0.73670  Biso   1.000  C
  C44      1.0000 0.47440  0.70710  0.23670  Biso   1.000  C
  C45      1.0000 0.08850  0.22870  0.37060  Biso   1.000  C
  C46      1.0000 0.58850  0.27130  0.87060  Biso   1.000  C
  C47      1.0000 0.91150  0.77130  0.62940  Biso   1.000  C
  C48      1.0000 0.41150  0.72870  0.12940  Biso   1.000  C
  C49      1.0000 0.05460  0.29190  0.39950  Biso   1.000  C
  C50      1.0000 0.55460  0.20810  0.89950  Biso   1.000  C
  C51      1.0000 0.94540  0.70810  0.60050  Biso   1.000  C
  C52      1.0000 0.44540  0.79190  0.10050  Biso   1.000  C
  C53      1.0000 0.95600  0.33420  0.32140  Biso   1.000  C
  C54      1.0000 0.45600  0.16580  0.82140  Biso   1.000  C
  C55      1.0000 0.04400  0.66580  0.67860  Biso   1.000  C
  C56      1.0000 0.54400  0.83420  0.17860  Biso   1.000  C
  C57      1.0000 0.89040  0.39900  0.35550  Biso   1.000  C
  C58      1.0000 0.39040  0.10100  0.85550  Biso   1.000  C
  C59      1.0000 0.10960  0.60100  0.64450  Biso   1.000  C
  C60      1.0000 0.60960  0.89900  0.14450  Biso   1.000  C
  C61      1.0000 0.54580  0.34800  0.40410  Biso   1.000  C
  C62      1.0000 0.04580  0.15200  0.90410  Biso   1.000  C
  C63      1.0000 0.45420  0.65200  0.59590  Biso   1.000  C
  C64      1.0000 0.95420  0.84800  0.09590  Biso   1.000  C
  C65      1.0000 0.24460  0.01060  0.45830  Biso   1.000  C
  C66      1.0000 0.74460  0.48940  0.95830  Biso   1.000  C
  C67      1.0000 0.75540  0.98940  0.54170  Biso   1.000  C
  C68      1.0000 0.25540  0.51060  0.04170  Biso   1.000  C
  C69      1.0000 0.27160  0.96140  0.37960  Biso   1.000  C
  C70      1.0000 0.77160  0.53860  0.87960  Biso   1.000  C
  C71      1.0000 0.72840  0.03860  0.62040  Biso   1.000  C
  C72      1.0000 0.22840  0.46140  0.12040  Biso   1.000  C
  H1       1.0000 0.75830  0.14050  0.45570  Biso   1.000  H
  H2       1.0000 0.25830  0.35950  0.95570  Biso   1.000  H
  H3       1.0000 0.24170  0.85950  0.54430  Biso   1.000  H
  H4       1.0000 0.74170  0.64050  0.04430  Biso   1.000  H
  H5       1.0000 0.70820  0.24500  0.51500  Biso   1.000  H
  H6       1.0000 0.20820  0.25500  0.01500  Biso   1.000  H
  H7       1.0000 0.29180  0.75500  0.48500  Biso   1.000  H
  H8       1.0000 0.79180  0.74500  0.98500  Biso   1.000  H
  H9       1.0000 0.40180  0.28810  0.21230  Biso   1.000  H
  H10      1.0000 0.90180  0.21190  0.71230  Biso   1.000  H
  H11      1.0000 0.59820  0.71190  0.78770  Biso   1.000  H
  H12      1.0000 0.09820  0.78810  0.28770  Biso   1.000  H
  H13      1.0000 0.45010  0.18350  0.15360  Biso   1.000  H
  H14      1.0000 0.95010  0.31650  0.65360  Biso   1.000  H
  H15      1.0000 0.54990  0.81650  0.84640  Biso   1.000  H
  H16      1.0000 0.04990  0.68350  0.34640  Biso   1.000  H
  H17      1.0000 0.56590  0.06610  0.21870  Biso   1.000  H
  H18      1.0000 0.06590  0.43390  0.71870  Biso   1.000  H
  H19      1.0000 0.43410  0.93390  0.78130  Biso   1.000  H
  H20      1.0000 0.93410  0.56610  0.28130  Biso   1.000  H
  H21      1.0000 0.74400  0.06410  0.31390  Biso   1.000  H
  H22      1.0000 0.24400  0.43590  0.81390  Biso   1.000  H
  H23      1.0000 0.25600  0.93590  0.68610  Biso   1.000  H
  H24      1.0000 0.75600  0.56410  0.18610  Biso   1.000  H
  H25      1.0000 0.07510  0.11260  0.30330  Biso   1.000  H
  H26      1.0000 0.57510  0.38740  0.80330  Biso   1.000  H
  H27      1.0000 0.92490  0.88740  0.69670  Biso   1.000  H
  H28      1.0000 0.42490  0.61260  0.19670  Biso   1.000  H
  H29      1.0000 0.13900  0.13160  0.19610  Biso   1.000  H
  H30      1.0000 0.63900  0.36840  0.69610  Biso   1.000  H
  H31      1.0000 0.86100  0.86840  0.80390  Biso   1.000  H
  H32      1.0000 0.36100  0.63160  0.30390  Biso   1.000  H
  H33      1.0000 0.85400  0.34440  0.15580  Biso   1.000  H
  H34      1.0000 0.35400  0.15560  0.65580  Biso   1.000  H
  H35      1.0000 0.14600  0.65560  0.84420  Biso   1.000  H
  H36      1.0000 0.64600  0.84440  0.34420  Biso   1.000  H
  H37      1.0000 0.90950  0.23810  0.10840  Biso   1.000  H
  H38      1.0000 0.40950  0.26190  0.60840  Biso   1.000  H
  H39      1.0000 0.09050  0.76190  0.89160  Biso   1.000  H
  H40      1.0000 0.59050  0.73810  0.39160  Biso   1.000  H
  H41      1.0000 0.15540  0.20000  0.42500  Biso   1.000  H
  H42      1.0000 0.65540  0.30000  0.92500  Biso   1.000  H
  H43      1.0000 0.84460  0.80000  0.57500  Biso   1.000  H
  H44      1.0000 0.34460  0.70000  0.07500  Biso   1.000  H
  H45      1.0000 0.09980  0.30620  0.47310  Biso   1.000  H
  H46      1.0000 0.59980  0.19380  0.97310  Biso   1.000  H
  H47      1.0000 0.90020  0.69380  0.52690  Biso   1.000  H
  H48      1.0000 0.40020  0.80620  0.02690  Biso   1.000  H
  H49      1.0000 0.94560  0.43220  0.32100  Biso   1.000  H
  H50      1.0000 0.44560  0.06780  0.82100  Biso   1.000  H
  H51      1.0000 0.05440  0.56780  0.67900  Biso   1.000  H
  H52      1.0000 0.55440  0.93220  0.17900  Biso   1.000  H
  H53      1.0000 0.93080  0.40270  0.43380  Biso   1.000  H
  H54      1.0000 0.43080  0.09730  0.93380  Biso   1.000  H
  H55      1.0000 0.06920  0.59730  0.56620  Biso   1.000  H
  H56      1.0000 0.56920  0.90270  0.06620  Biso   1.000  H
  H57      1.0000 0.61660  0.35200  0.47780  Biso   1.000  H
  H58      1.0000 0.11660  0.14800  0.97780  Biso   1.000  H
  H59      1.0000 0.38340  0.64800  0.52220  Biso   1.000  H
  H60      1.0000 0.88340  0.85200  0.02220  Biso   1.000  H
  H61      1.0000 0.41700  0.35720  0.40180  Biso   1.000  H
  H62      1.0000 0.91700  0.14280  0.90180  Biso   1.000  H
  H63      1.0000 0.58300  0.64280  0.59820  Biso   1.000  H
  H64      1.0000 0.08300  0.85720  0.09820  Biso   1.000  H
  H65      1.0000 0.26290  0.91990  0.41050  Biso   1.000  H
  H66      1.0000 0.76290  0.58010  0.91050  Biso   1.000  H
  H67      1.0000 0.73710  0.08010  0.58950  Biso   1.000  H
  H68      1.0000 0.23710  0.41990  0.08950  Biso   1.000  H
  H69      1.0000 0.17850  0.96640  0.31410  Biso   1.000  H
  H70      1.0000 0.67850  0.53360  0.81410  Biso   1.000  H
  H71      1.0000 0.82150  0.03360  0.68590  Biso   1.000  H
  H72      1.0000 0.32150  0.46640  0.18590  Biso   1.000  H
  H73      1.0000 0.39380  0.96700  0.36430  Biso   1.000  H
  H74      1.0000 0.89380  0.53300  0.86430  Biso   1.000  H
  H75      1.0000 0.60620  0.03300  0.63570  Biso   1.000  H
  H76      1.0000 0.10620  0.46700  0.13570  Biso   1.000  H
