data_image0
_cell_length_a       7.082
_cell_length_b       20.724
_cell_length_c       12.357
_cell_angle_alpha    90
_cell_angle_beta     90
_cell_angle_gamma    90

_symmetry_space_group_name_H-M    "P 1"
_symmetry_int_tables_number       1

loop_
  _symmetry_equiv_pos_as_xyz
  'x, y, z'

loop_
  _atom_site_label
  _atom_site_occupancy
  _atom_site_fract_x
  _atom_site_fract_y
  _atom_site_fract_z
  _atom_site_thermal_displace_type
  _atom_site_B_iso_or_equiv
  _atom_site_type_symbol
  Br1      1.0000 0.10504  0.75000  0.65171  Biso   1.000  Br
  Br2      1.0000 0.39496  0.25000  0.15171  Biso   1.000  Br
  Br3      1.0000 0.60504  0.75000  0.84829  Biso   1.000  Br
  Br4      1.0000 0.89496  0.25000  0.34829  Biso   1.000  Br
  Cu1      1.0000 0.75542  0.75000  0.66734  Biso   1.000  Cu
  Cu2      1.0000 0.74458  0.25000  0.16734  Biso   1.000  Cu
  Cu3      1.0000 0.25542  0.75000  0.83266  Biso   1.000  Cu
  Cu4      1.0000 0.24458  0.25000  0.33266  Biso   1.000  Cu
  S1       1.0000 0.62276  0.66318  0.57594  Biso   1.000  S
  S2       1.0000 0.87724  0.16318  0.07594  Biso   1.000  S
  S3       1.0000 0.62276  0.83682  0.57594  Biso   1.000  S
  S4       1.0000 0.12276  0.66318  0.92406  Biso   1.000  S
  S5       1.0000 0.37724  0.33682  0.42406  Biso   1.000  S
  S6       1.0000 0.12276  0.83682  0.92406  Biso   1.000  S
  S7       1.0000 0.37724  0.16318  0.42406  Biso   1.000  S
  S8       1.0000 0.87724  0.33682  0.07594  Biso   1.000  S
  N1       1.0000 0.78710  0.75000  0.32980  Biso   1.000  N
  N2       1.0000 0.71290  0.25000  0.82980  Biso   1.000  N
  N3       1.0000 0.28710  0.75000  0.17020  Biso   1.000  N
  N4       1.0000 0.21290  0.25000  0.67020  Biso   1.000  N
  C1       1.0000 0.43930  0.49182  0.68700  Biso   1.000  C
  C2       1.0000 0.06070  0.99182  0.18700  Biso   1.000  C
  C3       1.0000 0.43930  0.00818  0.68700  Biso   1.000  C
  C4       1.0000 0.93930  0.49182  0.81300  Biso   1.000  C
  C5       1.0000 0.56070  0.50818  0.31300  Biso   1.000  C
  C6       1.0000 0.93930  0.00818  0.81300  Biso   1.000  C
  C7       1.0000 0.56070  0.99182  0.31300  Biso   1.000  C
  C8       1.0000 0.06070  0.50818  0.18700  Biso   1.000  C
  C9       1.0000 0.35520  0.43699  0.64260  Biso   1.000  C
  C10      1.0000 0.14480  0.93699  0.14260  Biso   1.000  C
  C11      1.0000 0.35520  0.06301  0.64260  Biso   1.000  C
  C12      1.0000 0.85520  0.43699  0.85740  Biso   1.000  C
  C13      1.0000 0.64480  0.56301  0.35740  Biso   1.000  C
  C14      1.0000 0.85520  0.06301  0.85740  Biso   1.000  C
  C15      1.0000 0.64480  0.93699  0.35740  Biso   1.000  C
  C16      1.0000 0.14480  0.56301  0.14260  Biso   1.000  C
  C17      1.0000 0.25330  0.44146  0.54590  Biso   1.000  C
  C18      1.0000 0.24670  0.94146  0.04590  Biso   1.000  C
  C19      1.0000 0.25330  0.05854  0.54590  Biso   1.000  C
  C20      1.0000 0.75330  0.44146  0.95410  Biso   1.000  C
  C21      1.0000 0.74670  0.55854  0.45410  Biso   1.000  C
  C22      1.0000 0.75330  0.05854  0.95410  Biso   1.000  C
  C23      1.0000 0.74670  0.94146  0.45410  Biso   1.000  C
  C24      1.0000 0.24670  0.55854  0.04590  Biso   1.000  C
  C25      1.0000 0.22730  0.50190  0.50020  Biso   1.000  C
  C26      1.0000 0.27270  0.00190  0.00020  Biso   1.000  C
  C27      1.0000 0.22730  0.99810  0.50020  Biso   1.000  C
  C28      1.0000 0.72730  0.50190  0.99980  Biso   1.000  C
  C29      1.0000 0.77270  0.49810  0.49980  Biso   1.000  C
  C30      1.0000 0.72730  0.99810  0.99980  Biso   1.000  C
  C31      1.0000 0.77270  0.00190  0.49980  Biso   1.000  C
  C32      1.0000 0.27270  0.49810  0.00020  Biso   1.000  C
  C33      1.0000 0.30740  0.55656  0.54530  Biso   1.000  C
  C34      1.0000 0.19260  0.05656  0.04530  Biso   1.000  C
  C35      1.0000 0.30740  0.94344  0.54530  Biso   1.000  C
  C36      1.0000 0.80740  0.55656  0.95470  Biso   1.000  C
  C37      1.0000 0.69260  0.44344  0.45470  Biso   1.000  C
  C38      1.0000 0.80740  0.94344  0.95470  Biso   1.000  C
  C39      1.0000 0.69260  0.05656  0.45470  Biso   1.000  C
  C40      1.0000 0.19260  0.44344  0.04530  Biso   1.000  C
  C41      1.0000 0.42120  0.55184  0.63690  Biso   1.000  C
  C42      1.0000 0.07880  0.05184  0.13690  Biso   1.000  C
  C43      1.0000 0.42120  0.94816  0.63690  Biso   1.000  C
  C44      1.0000 0.92120  0.55184  0.86310  Biso   1.000  C
  C45      1.0000 0.57880  0.44816  0.36310  Biso   1.000  C
  C46      1.0000 0.92120  0.94816  0.86310  Biso   1.000  C
  C47      1.0000 0.57880  0.05184  0.36310  Biso   1.000  C
  C48      1.0000 0.07880  0.44816  0.13690  Biso   1.000  C
  C49      1.0000 0.52860  0.60943  0.67940  Biso   1.000  C
  C50      1.0000 0.97140  0.10943  0.17940  Biso   1.000  C
  C51      1.0000 0.52860  0.89057  0.67940  Biso   1.000  C
  C52      1.0000 0.02860  0.60943  0.82060  Biso   1.000  C
  C53      1.0000 0.47140  0.39057  0.32060  Biso   1.000  C
  C54      1.0000 0.02860  0.89057  0.82060  Biso   1.000  C
  C55      1.0000 0.47140  0.10943  0.32060  Biso   1.000  C
  C56      1.0000 0.97140  0.39057  0.17940  Biso   1.000  C
  C57      1.0000 0.81460  0.61770  0.51300  Biso   1.000  C
  C58      1.0000 0.68540  0.11770  0.01300  Biso   1.000  C
  C59      1.0000 0.81460  0.88230  0.51300  Biso   1.000  C
  C60      1.0000 0.31460  0.61770  0.98700  Biso   1.000  C
  C61      1.0000 0.18540  0.38230  0.48700  Biso   1.000  C
  C62      1.0000 0.31460  0.88230  0.98700  Biso   1.000  C
  C63      1.0000 0.18540  0.11770  0.48700  Biso   1.000  C
  C64      1.0000 0.68540  0.38230  0.01300  Biso   1.000  C
  C65      1.0000 0.78630  0.75000  0.23910  Biso   1.000  C
  C66      1.0000 0.71370  0.25000  0.73910  Biso   1.000  C
  C67      1.0000 0.28630  0.75000  0.26090  Biso   1.000  C
  C68      1.0000 0.21370  0.25000  0.76090  Biso   1.000  C
  C69      1.0000 0.78410  0.75000  0.12270  Biso   1.000  C
  C70      1.0000 0.71590  0.25000  0.62270  Biso   1.000  C
  C71      1.0000 0.28410  0.75000  0.37730  Biso   1.000  C
  C72      1.0000 0.21590  0.25000  0.87730  Biso   1.000  C
  H1       1.0000 0.51030  0.48820  0.75230  Biso   1.000  H
  H2       1.0000 0.98970  0.98820  0.25230  Biso   1.000  H
  H3       1.0000 0.51030  0.01180  0.75230  Biso   1.000  H
  H4       1.0000 0.01030  0.48820  0.74770  Biso   1.000  H
  H5       1.0000 0.48970  0.51180  0.24770  Biso   1.000  H
  H6       1.0000 0.01030  0.01180  0.74770  Biso   1.000  H
  H7       1.0000 0.48970  0.98820  0.24770  Biso   1.000  H
  H8       1.0000 0.98970  0.51180  0.25230  Biso   1.000  H
  H9       1.0000 0.36730  0.39640  0.67850  Biso   1.000  H
  H10      1.0000 0.13270  0.89640  0.17850  Biso   1.000  H
  H11      1.0000 0.36730  0.10360  0.67850  Biso   1.000  H
  H12      1.0000 0.86730  0.39640  0.82150  Biso   1.000  H
  H13      1.0000 0.63270  0.60360  0.32150  Biso   1.000  H
  H14      1.0000 0.86730  0.10360  0.82150  Biso   1.000  H
  H15      1.0000 0.63270  0.89640  0.32150  Biso   1.000  H
  H16      1.0000 0.13270  0.60360  0.17850  Biso   1.000  H
  H17      1.0000 0.15230  0.50600  0.43600  Biso   1.000  H
  H18      1.0000 0.34770  0.00600  0.93600  Biso   1.000  H
  H19      1.0000 0.15230  0.99400  0.43600  Biso   1.000  H
  H20      1.0000 0.65230  0.50600  0.06400  Biso   1.000  H
  H21      1.0000 0.84770  0.49400  0.56400  Biso   1.000  H
  H22      1.0000 0.65230  0.99400  0.06400  Biso   1.000  H
  H23      1.0000 0.84770  0.00600  0.56400  Biso   1.000  H
  H24      1.0000 0.34770  0.49400  0.93600  Biso   1.000  H
  H25      1.0000 0.28490  0.59780  0.51350  Biso   1.000  H
  H26      1.0000 0.21510  0.09780  0.01350  Biso   1.000  H
  H27      1.0000 0.28490  0.90220  0.51350  Biso   1.000  H
  H28      1.0000 0.78490  0.59780  0.98650  Biso   1.000  H
  H29      1.0000 0.71510  0.40220  0.48650  Biso   1.000  H
  H30      1.0000 0.78490  0.90220  0.98650  Biso   1.000  H
  H31      1.0000 0.71510  0.09780  0.48650  Biso   1.000  H
  H32      1.0000 0.21510  0.40220  0.01350  Biso   1.000  H
  H33      1.0000 0.63180  0.59400  0.72150  Biso   1.000  H
  H34      1.0000 0.86820  0.09400  0.22150  Biso   1.000  H
  H35      1.0000 0.63180  0.90600  0.72150  Biso   1.000  H
  H36      1.0000 0.13180  0.59400  0.77850  Biso   1.000  H
  H37      1.0000 0.36820  0.40600  0.27850  Biso   1.000  H
  H38      1.0000 0.13180  0.90600  0.77850  Biso   1.000  H
  H39      1.0000 0.36820  0.09400  0.27850  Biso   1.000  H
  H40      1.0000 0.86820  0.40600  0.22150  Biso   1.000  H
  H41      1.0000 0.44640  0.63380  0.72430  Biso   1.000  H
  H42      1.0000 0.05360  0.13380  0.22430  Biso   1.000  H
  H43      1.0000 0.44640  0.86620  0.72430  Biso   1.000  H
  H44      1.0000 0.94640  0.63380  0.77570  Biso   1.000  H
  H45      1.0000 0.55360  0.36620  0.27570  Biso   1.000  H
  H46      1.0000 0.94640  0.86620  0.77570  Biso   1.000  H
  H47      1.0000 0.55360  0.13380  0.27570  Biso   1.000  H
  H48      1.0000 0.05360  0.36620  0.22430  Biso   1.000  H
  H49      1.0000 0.87820  0.64510  0.46310  Biso   1.000  H
  H50      1.0000 0.62180  0.14510  0.96310  Biso   1.000  H
  H51      1.0000 0.87820  0.85490  0.46310  Biso   1.000  H
  H52      1.0000 0.37820  0.64510  0.03690  Biso   1.000  H
  H53      1.0000 0.12180  0.35490  0.53690  Biso   1.000  H
  H54      1.0000 0.37820  0.85490  0.03690  Biso   1.000  H
  H55      1.0000 0.12180  0.14510  0.53690  Biso   1.000  H
  H56      1.0000 0.62180  0.35490  0.96310  Biso   1.000  H
  H57      1.0000 0.90120  0.60490  0.56810  Biso   1.000  H
  H58      1.0000 0.59880  0.10490  0.06810  Biso   1.000  H
  H59      1.0000 0.90120  0.89510  0.56810  Biso   1.000  H
  H60      1.0000 0.40120  0.60490  0.93190  Biso   1.000  H
  H61      1.0000 0.09880  0.39510  0.43190  Biso   1.000  H
  H62      1.0000 0.40120  0.89510  0.93190  Biso   1.000  H
  H63      1.0000 0.09880  0.10490  0.43190  Biso   1.000  H
  H64      1.0000 0.59880  0.39510  0.06810  Biso   1.000  H
  H65      1.0000 0.71930  0.78740  0.09670  Biso   1.000  H
  H66      1.0000 0.78070  0.28740  0.59670  Biso   1.000  H
  H67      1.0000 0.71930  0.71260  0.09670  Biso   1.000  H
  H68      1.0000 0.21930  0.78740  0.40330  Biso   1.000  H
  H69      1.0000 0.28070  0.21260  0.90330  Biso   1.000  H
  H70      1.0000 0.21930  0.71260  0.40330  Biso   1.000  H
  H71      1.0000 0.28070  0.28740  0.90330  Biso   1.000  H
  H72      1.0000 0.78070  0.21260  0.59670  Biso   1.000  H
  H73      1.0000 0.90890  0.75000  0.09470  Biso   1.000  H
  H74      1.0000 0.59110  0.25000  0.59470  Biso   1.000  H
  H75      1.0000 0.40890  0.75000  0.40530  Biso   1.000  H
  H76      1.0000 0.09110  0.25000  0.90530  Biso   1.000  H
