data_image0
_cell_length_a       20.8
_cell_length_b       15.747
_cell_length_c       11.505
_cell_angle_alpha    90
_cell_angle_beta     90
_cell_angle_gamma    90

_symmetry_space_group_name_H-M    "P 1"
_symmetry_int_tables_number       1

loop_
  _symmetry_equiv_pos_as_xyz
  'x, y, z'

loop_
  _atom_site_label
  _atom_site_occupancy
  _atom_site_fract_x
  _atom_site_fract_y
  _atom_site_fract_z
  _atom_site_thermal_displace_type
  _atom_site_B_iso_or_equiv
  _atom_site_type_symbol
  I1       1.0000 0.50000  0.83393  0.39952  Biso   1.000  I
  I2       1.0000 0.50000  0.16607  0.89952  Biso   1.000  I
  I3       1.0000 0.00000  0.33393  0.39952  Biso   1.000  I
  I4       1.0000 0.00000  0.66607  0.89952  Biso   1.000  I
  I5       1.0000 0.50000  0.85188  0.01887  Biso   1.000  I
  I6       1.0000 0.50000  0.14812  0.51887  Biso   1.000  I
  I7       1.0000 0.00000  0.35188  0.01887  Biso   1.000  I
  I8       1.0000 0.00000  0.64812  0.51887  Biso   1.000  I
  Cu1      1.0000 0.50000  0.74861  0.19830  Biso   1.000  Cu
  Cu2      1.0000 0.50000  0.25139  0.69830  Biso   1.000  Cu
  Cu3      1.0000 0.00000  0.24861  0.19830  Biso   1.000  Cu
  Cu4      1.0000 0.00000  0.75139  0.69830  Biso   1.000  Cu
  Cu5      1.0000 0.50000  0.94117  0.22410  Biso   1.000  Cu
  Cu6      1.0000 0.50000  0.05883  0.72410  Biso   1.000  Cu
  Cu7      1.0000 0.00000  0.44117  0.22410  Biso   1.000  Cu
  Cu8      1.0000 0.00000  0.55883  0.72410  Biso   1.000  Cu
  S1       1.0000 0.59496  0.67570  0.19400  Biso   1.000  S
  S2       1.0000 0.40504  0.67570  0.19400  Biso   1.000  S
  S3       1.0000 0.40504  0.32430  0.69400  Biso   1.000  S
  S4       1.0000 0.59496  0.32430  0.69400  Biso   1.000  S
  S5       1.0000 0.09496  0.17570  0.19400  Biso   1.000  S
  S6       1.0000 0.90504  0.17570  0.19400  Biso   1.000  S
  S7       1.0000 0.90504  0.82430  0.69400  Biso   1.000  S
  S8       1.0000 0.09496  0.82430  0.69400  Biso   1.000  S
  S9       1.0000 0.90106  0.50570  0.21420  Biso   1.000  S
  S10      1.0000 0.09894  0.50570  0.21420  Biso   1.000  S
  S11      1.0000 0.09894  0.49430  0.71420  Biso   1.000  S
  S12      1.0000 0.90106  0.49430  0.71420  Biso   1.000  S
  S13      1.0000 0.40106  0.00570  0.21420  Biso   1.000  S
  S14      1.0000 0.59894  0.00570  0.21420  Biso   1.000  S
  S15      1.0000 0.59894  0.99430  0.71420  Biso   1.000  S
  S16      1.0000 0.40106  0.99430  0.71420  Biso   1.000  S
  O1       1.0000 0.50000  0.47520  0.24900  Biso   1.000  O
  O2       1.0000 0.50000  0.52480  0.74900  Biso   1.000  O
  O3       1.0000 0.00000  0.97520  0.24900  Biso   1.000  O
  O4       1.0000 0.00000  0.02480  0.74900  Biso   1.000  O
  C1       1.0000 0.74330  0.68110  0.09790  Biso   1.000  C
  C2       1.0000 0.25670  0.68110  0.09790  Biso   1.000  C
  C3       1.0000 0.25670  0.31890  0.59790  Biso   1.000  C
  C4       1.0000 0.74330  0.31890  0.59790  Biso   1.000  C
  C5       1.0000 0.24330  0.18110  0.09790  Biso   1.000  C
  C6       1.0000 0.75670  0.18110  0.09790  Biso   1.000  C
  C7       1.0000 0.75670  0.81890  0.59790  Biso   1.000  C
  C8       1.0000 0.24330  0.81890  0.59790  Biso   1.000  C
  C9       1.0000 0.80470  0.64790  0.09830  Biso   1.000  C
  C10      1.0000 0.19530  0.64790  0.09830  Biso   1.000  C
  C11      1.0000 0.19530  0.35210  0.59830  Biso   1.000  C
  C12      1.0000 0.80470  0.35210  0.59830  Biso   1.000  C
  C13      1.0000 0.30470  0.14790  0.09830  Biso   1.000  C
  C14      1.0000 0.69530  0.14790  0.09830  Biso   1.000  C
  C15      1.0000 0.69530  0.85210  0.59830  Biso   1.000  C
  C16      1.0000 0.30470  0.85210  0.59830  Biso   1.000  C
  C17      1.0000 0.84670  0.66600  0.18880  Biso   1.000  C
  C18      1.0000 0.15330  0.66600  0.18880  Biso   1.000  C
  C19      1.0000 0.15330  0.33400  0.68880  Biso   1.000  C
  C20      1.0000 0.84670  0.33400  0.68880  Biso   1.000  C
  C21      1.0000 0.34670  0.16600  0.18880  Biso   1.000  C
  C22      1.0000 0.65330  0.16600  0.18880  Biso   1.000  C
  C23      1.0000 0.65330  0.83400  0.68880  Biso   1.000  C
  C24      1.0000 0.34670  0.83400  0.68880  Biso   1.000  C
  C25      1.0000 0.82760  0.72310  0.27380  Biso   1.000  C
  C26      1.0000 0.17240  0.72310  0.27380  Biso   1.000  C
  C27      1.0000 0.17240  0.27690  0.77380  Biso   1.000  C
  C28      1.0000 0.82760  0.27690  0.77380  Biso   1.000  C
  C29      1.0000 0.32760  0.22310  0.27380  Biso   1.000  C
  C30      1.0000 0.67240  0.22310  0.27380  Biso   1.000  C
  C31      1.0000 0.67240  0.77690  0.77380  Biso   1.000  C
  C32      1.0000 0.32760  0.77690  0.77380  Biso   1.000  C
  C33      1.0000 0.76640  0.75810  0.27250  Biso   1.000  C
  C34      1.0000 0.23360  0.75810  0.27250  Biso   1.000  C
  C35      1.0000 0.23360  0.24190  0.77250  Biso   1.000  C
  C36      1.0000 0.76640  0.24190  0.77250  Biso   1.000  C
  C37      1.0000 0.26640  0.25810  0.27250  Biso   1.000  C
  C38      1.0000 0.73360  0.25810  0.27250  Biso   1.000  C
  C39      1.0000 0.73360  0.74190  0.77250  Biso   1.000  C
  C40      1.0000 0.26640  0.74190  0.77250  Biso   1.000  C
  C41      1.0000 0.72240  0.73510  0.18770  Biso   1.000  C
  C42      1.0000 0.27760  0.73510  0.18770  Biso   1.000  C
  C43      1.0000 0.27760  0.26490  0.68770  Biso   1.000  C
  C44      1.0000 0.72240  0.26490  0.68770  Biso   1.000  C
  C45      1.0000 0.22240  0.23510  0.18770  Biso   1.000  C
  C46      1.0000 0.77760  0.23510  0.18770  Biso   1.000  C
  C47      1.0000 0.77760  0.76490  0.68770  Biso   1.000  C
  C48      1.0000 0.22240  0.76490  0.68770  Biso   1.000  C
  C49      1.0000 0.65280  0.76250  0.19510  Biso   1.000  C
  C50      1.0000 0.34720  0.76250  0.19510  Biso   1.000  C
  C51      1.0000 0.34720  0.23750  0.69510  Biso   1.000  C
  C52      1.0000 0.65280  0.23750  0.69510  Biso   1.000  C
  C53      1.0000 0.15280  0.26250  0.19510  Biso   1.000  C
  C54      1.0000 0.84720  0.26250  0.19510  Biso   1.000  C
  C55      1.0000 0.84720  0.73750  0.69510  Biso   1.000  C
  C56      1.0000 0.15280  0.73750  0.69510  Biso   1.000  C
  C57      1.0000 0.60440  0.62730  0.33650  Biso   1.000  C
  C58      1.0000 0.39560  0.62730  0.33650  Biso   1.000  C
  C59      1.0000 0.39560  0.37270  0.83650  Biso   1.000  C
  C60      1.0000 0.60440  0.37270  0.83650  Biso   1.000  C
  C61      1.0000 0.10440  0.12730  0.33650  Biso   1.000  C
  C62      1.0000 0.89560  0.12730  0.33650  Biso   1.000  C
  C63      1.0000 0.89560  0.87270  0.83650  Biso   1.000  C
  C64      1.0000 0.10440  0.87270  0.83650  Biso   1.000  C
  C65      1.0000 0.77210  0.57410  0.44630  Biso   1.000  C
  C66      1.0000 0.22790  0.57410  0.44630  Biso   1.000  C
  C67      1.0000 0.22790  0.42590  0.94630  Biso   1.000  C
  C68      1.0000 0.77210  0.42590  0.94630  Biso   1.000  C
  C69      1.0000 0.27210  0.07410  0.44630  Biso   1.000  C
  C70      1.0000 0.72790  0.07410  0.44630  Biso   1.000  C
  C71      1.0000 0.72790  0.92590  0.94630  Biso   1.000  C
  C72      1.0000 0.27210  0.92590  0.94630  Biso   1.000  C
  C73      1.0000 0.70930  0.60620  0.44180  Biso   1.000  C
  C74      1.0000 0.29070  0.60620  0.44180  Biso   1.000  C
  C75      1.0000 0.29070  0.39380  0.94180  Biso   1.000  C
  C76      1.0000 0.70930  0.39380  0.94180  Biso   1.000  C
  C77      1.0000 0.20930  0.10620  0.44180  Biso   1.000  C
  C78      1.0000 0.79070  0.10620  0.44180  Biso   1.000  C
  C79      1.0000 0.79070  0.89380  0.94180  Biso   1.000  C
  C80      1.0000 0.20930  0.89380  0.94180  Biso   1.000  C
  C81      1.0000 0.66870  0.58340  0.35410  Biso   1.000  C
  C82      1.0000 0.33130  0.58340  0.35410  Biso   1.000  C
  C83      1.0000 0.33130  0.41660  0.85410  Biso   1.000  C
  C84      1.0000 0.66870  0.41660  0.85410  Biso   1.000  C
  C85      1.0000 0.16870  0.08340  0.35410  Biso   1.000  C
  C86      1.0000 0.83130  0.08340  0.35410  Biso   1.000  C
  C87      1.0000 0.83130  0.91660  0.85410  Biso   1.000  C
  C88      1.0000 0.16870  0.91660  0.85410  Biso   1.000  C
  C89      1.0000 0.68830  0.52220  0.27650  Biso   1.000  C
  C90      1.0000 0.31170  0.52220  0.27650  Biso   1.000  C
  C91      1.0000 0.31170  0.47780  0.77650  Biso   1.000  C
  C92      1.0000 0.68830  0.47780  0.77650  Biso   1.000  C
  C93      1.0000 0.18830  0.02220  0.27650  Biso   1.000  C
  C94      1.0000 0.81170  0.02220  0.27650  Biso   1.000  C
  C95      1.0000 0.81170  0.97780  0.77650  Biso   1.000  C
  C96      1.0000 0.18830  0.97780  0.77650  Biso   1.000  C
  C97      1.0000 0.75000  0.48910  0.27930  Biso   1.000  C
  C98      1.0000 0.25000  0.48910  0.27930  Biso   1.000  C
  C99      1.0000 0.25000  0.51090  0.77930  Biso   1.000  C
  C100     1.0000 0.75000  0.51090  0.77930  Biso   1.000  C
  C101     1.0000 0.25000  0.98910  0.27930  Biso   1.000  C
  C102     1.0000 0.75000  0.98910  0.27930  Biso   1.000  C
  C103     1.0000 0.75000  0.01090  0.77930  Biso   1.000  C
  C104     1.0000 0.25000  0.01090  0.77930  Biso   1.000  C
  C105     1.0000 0.79370  0.51830  0.36180  Biso   1.000  C
  C106     1.0000 0.20630  0.51830  0.36180  Biso   1.000  C
  C107     1.0000 0.20630  0.48170  0.86180  Biso   1.000  C
  C108     1.0000 0.79370  0.48170  0.86180  Biso   1.000  C
  C109     1.0000 0.29370  0.01830  0.36180  Biso   1.000  C
  C110     1.0000 0.70630  0.01830  0.36180  Biso   1.000  C
  C111     1.0000 0.70630  0.98170  0.86180  Biso   1.000  C
  C112     1.0000 0.29370  0.98170  0.86180  Biso   1.000  C
  C113     1.0000 0.86420  0.49400  0.35750  Biso   1.000  C
  C114     1.0000 0.13580  0.49400  0.35750  Biso   1.000  C
  C115     1.0000 0.13580  0.50600  0.85750  Biso   1.000  C
  C116     1.0000 0.86420  0.50600  0.85750  Biso   1.000  C
  C117     1.0000 0.36420  0.99400  0.35750  Biso   1.000  C
  C118     1.0000 0.63580  0.99400  0.35750  Biso   1.000  C
  C119     1.0000 0.63580  0.00600  0.85750  Biso   1.000  C
  C120     1.0000 0.36420  0.00600  0.85750  Biso   1.000  C
  C121     1.0000 0.90990  0.62030  0.19960  Biso   1.000  C
  C122     1.0000 0.09010  0.62030  0.19960  Biso   1.000  C
  C123     1.0000 0.09010  0.37970  0.69960  Biso   1.000  C
  C124     1.0000 0.90990  0.37970  0.69960  Biso   1.000  C
  C125     1.0000 0.40990  0.12030  0.19960  Biso   1.000  C
  C126     1.0000 0.59010  0.12030  0.19960  Biso   1.000  C
  C127     1.0000 0.59010  0.87970  0.69960  Biso   1.000  C
  C128     1.0000 0.40990  0.87970  0.69960  Biso   1.000  C
  C129     1.0000 0.50000  0.39800  0.32100  Biso   1.000  C
  C130     1.0000 0.50000  0.60200  0.82100  Biso   1.000  C
  C131     1.0000 0.00000  0.89800  0.32100  Biso   1.000  C
  C132     1.0000 0.00000  0.10200  0.82100  Biso   1.000  C
  C133     1.0000 0.50000  0.33000  0.22400  Biso   1.000  C
  C134     1.0000 0.50000  0.67000  0.72400  Biso   1.000  C
  C135     1.0000 0.00000  0.83000  0.22400  Biso   1.000  C
  C136     1.0000 0.00000  0.17000  0.72400  Biso   1.000  C
  C137     1.0000 0.46300  0.37000  0.13900  Biso   1.000  C
  C138     1.0000 0.53700  0.37000  0.13900  Biso   1.000  C
  C139     1.0000 0.53700  0.63000  0.63900  Biso   1.000  C
  C140     1.0000 0.46300  0.63000  0.63900  Biso   1.000  C
  C141     1.0000 0.96300  0.87000  0.13900  Biso   1.000  C
  C142     1.0000 0.03700  0.87000  0.13900  Biso   1.000  C
  C143     1.0000 0.03700  0.13000  0.63900  Biso   1.000  C
  C144     1.0000 0.96300  0.13000  0.63900  Biso   1.000  C
  C145     1.0000 0.50000  0.46000  0.13200  Biso   1.000  C
  C146     1.0000 0.50000  0.54000  0.63200  Biso   1.000  C
  C147     1.0000 0.00000  0.96000  0.13200  Biso   1.000  C
  C148     1.0000 0.00000  0.04000  0.63200  Biso   1.000  C
  C149     1.0000 0.44900  0.39100  0.40200  Biso   1.000  C
  C150     1.0000 0.55100  0.39100  0.40200  Biso   1.000  C
  C151     1.0000 0.55100  0.60900  0.90200  Biso   1.000  C
  C152     1.0000 0.44900  0.60900  0.90200  Biso   1.000  C
  C153     1.0000 0.94900  0.89100  0.40200  Biso   1.000  C
  C154     1.0000 0.05100  0.89100  0.40200  Biso   1.000  C
  C155     1.0000 0.05100  0.10900  0.90200  Biso   1.000  C
  C156     1.0000 0.94900  0.10900  0.90200  Biso   1.000  C
  H1       1.0000 0.71470  0.66730  0.03680  Biso   1.000  H
  H2       1.0000 0.28530  0.66730  0.03680  Biso   1.000  H
  H3       1.0000 0.28530  0.33270  0.53680  Biso   1.000  H
  H4       1.0000 0.71470  0.33270  0.53680  Biso   1.000  H
  H5       1.0000 0.21470  0.16730  0.03680  Biso   1.000  H
  H6       1.0000 0.78530  0.16730  0.03680  Biso   1.000  H
  H7       1.0000 0.78530  0.83270  0.53680  Biso   1.000  H
  H8       1.0000 0.21470  0.83270  0.53680  Biso   1.000  H
  H9       1.0000 0.81850  0.61260  0.03680  Biso   1.000  H
  H10      1.0000 0.18150  0.61260  0.03680  Biso   1.000  H
  H11      1.0000 0.18150  0.38740  0.53680  Biso   1.000  H
  H12      1.0000 0.81850  0.38740  0.53680  Biso   1.000  H
  H13      1.0000 0.31850  0.11260  0.03680  Biso   1.000  H
  H14      1.0000 0.68150  0.11260  0.03680  Biso   1.000  H
  H15      1.0000 0.68150  0.88740  0.53680  Biso   1.000  H
  H16      1.0000 0.31850  0.88740  0.53680  Biso   1.000  H
  H17      1.0000 0.85720  0.73870  0.33340  Biso   1.000  H
  H18      1.0000 0.14280  0.73870  0.33340  Biso   1.000  H
  H19      1.0000 0.14280  0.26130  0.83340  Biso   1.000  H
  H20      1.0000 0.85720  0.26130  0.83340  Biso   1.000  H
  H21      1.0000 0.35720  0.23870  0.33340  Biso   1.000  H
  H22      1.0000 0.64280  0.23870  0.33340  Biso   1.000  H
  H23      1.0000 0.64280  0.76130  0.83340  Biso   1.000  H
  H24      1.0000 0.35720  0.76130  0.83340  Biso   1.000  H
  H25      1.0000 0.75500  0.79850  0.32980  Biso   1.000  H
  H26      1.0000 0.24500  0.79850  0.32980  Biso   1.000  H
  H27      1.0000 0.24500  0.20150  0.82980  Biso   1.000  H
  H28      1.0000 0.75500  0.20150  0.82980  Biso   1.000  H
  H29      1.0000 0.25500  0.29850  0.32980  Biso   1.000  H
  H30      1.0000 0.74500  0.29850  0.32980  Biso   1.000  H
  H31      1.0000 0.74500  0.70150  0.82980  Biso   1.000  H
  H32      1.0000 0.25500  0.70150  0.82980  Biso   1.000  H
  H33      1.0000 0.64740  0.79370  0.26480  Biso   1.000  H
  H34      1.0000 0.35260  0.79370  0.26480  Biso   1.000  H
  H35      1.0000 0.35260  0.20630  0.76480  Biso   1.000  H
  H36      1.0000 0.64740  0.20630  0.76480  Biso   1.000  H
  H37      1.0000 0.14740  0.29370  0.26480  Biso   1.000  H
  H38      1.0000 0.85260  0.29370  0.26480  Biso   1.000  H
  H39      1.0000 0.85260  0.70630  0.76480  Biso   1.000  H
  H40      1.0000 0.14740  0.70630  0.76480  Biso   1.000  H
  H41      1.0000 0.64400  0.79810  0.13020  Biso   1.000  H
  H42      1.0000 0.35600  0.79810  0.13020  Biso   1.000  H
  H43      1.0000 0.35600  0.20190  0.63020  Biso   1.000  H
  H44      1.0000 0.64400  0.20190  0.63020  Biso   1.000  H
  H45      1.0000 0.14400  0.29810  0.13020  Biso   1.000  H
  H46      1.0000 0.85600  0.29810  0.13020  Biso   1.000  H
  H47      1.0000 0.85600  0.70190  0.63020  Biso   1.000  H
  H48      1.0000 0.14400  0.70190  0.63020  Biso   1.000  H
  H49      1.0000 0.57110  0.58560  0.34540  Biso   1.000  H
  H50      1.0000 0.42890  0.58560  0.34540  Biso   1.000  H
  H51      1.0000 0.42890  0.41440  0.84540  Biso   1.000  H
  H52      1.0000 0.57110  0.41440  0.84540  Biso   1.000  H
  H53      1.0000 0.07110  0.08560  0.34540  Biso   1.000  H
  H54      1.0000 0.92890  0.08560  0.34540  Biso   1.000  H
  H55      1.0000 0.92890  0.91440  0.84540  Biso   1.000  H
  H56      1.0000 0.07110  0.91440  0.84540  Biso   1.000  H
  H57      1.0000 0.59930  0.66960  0.39380  Biso   1.000  H
  H58      1.0000 0.40070  0.66960  0.39380  Biso   1.000  H
  H59      1.0000 0.40070  0.33040  0.89380  Biso   1.000  H
  H60      1.0000 0.59930  0.33040  0.89380  Biso   1.000  H
  H61      1.0000 0.09930  0.16960  0.39380  Biso   1.000  H
  H62      1.0000 0.90070  0.16960  0.39380  Biso   1.000  H
  H63      1.0000 0.90070  0.83040  0.89380  Biso   1.000  H
  H64      1.0000 0.09930  0.83040  0.89380  Biso   1.000  H
  H65      1.0000 0.80030  0.59080  0.50790  Biso   1.000  H
  H66      1.0000 0.19970  0.59080  0.50790  Biso   1.000  H
  H67      1.0000 0.19970  0.40920  0.00790  Biso   1.000  H
  H68      1.0000 0.80030  0.40920  0.00790  Biso   1.000  H
  H69      1.0000 0.30030  0.09080  0.50790  Biso   1.000  H
  H70      1.0000 0.69970  0.09080  0.50790  Biso   1.000  H
  H71      1.0000 0.69970  0.90920  0.00790  Biso   1.000  H
  H72      1.0000 0.30030  0.90920  0.00790  Biso   1.000  H
  H73      1.0000 0.69420  0.64430  0.50080  Biso   1.000  H
  H74      1.0000 0.30580  0.64430  0.50080  Biso   1.000  H
  H75      1.0000 0.30580  0.35570  0.00080  Biso   1.000  H
  H76      1.0000 0.69420  0.35570  0.00080  Biso   1.000  H
  H77      1.0000 0.19420  0.14430  0.50080  Biso   1.000  H
  H78      1.0000 0.80580  0.14430  0.50080  Biso   1.000  H
  H79      1.0000 0.80580  0.85570  0.00080  Biso   1.000  H
  H80      1.0000 0.19420  0.85570  0.00080  Biso   1.000  H
  H81      1.0000 0.65890  0.50320  0.21880  Biso   1.000  H
  H82      1.0000 0.34110  0.50320  0.21880  Biso   1.000  H
  H83      1.0000 0.34110  0.49680  0.71880  Biso   1.000  H
  H84      1.0000 0.65890  0.49680  0.71880  Biso   1.000  H
  H85      1.0000 0.15890  0.00320  0.21880  Biso   1.000  H
  H86      1.0000 0.84110  0.00320  0.21880  Biso   1.000  H
  H87      1.0000 0.84110  0.99680  0.71880  Biso   1.000  H
  H88      1.0000 0.15890  0.99680  0.71880  Biso   1.000  H
  H89      1.0000 0.76170  0.44620  0.22460  Biso   1.000  H
  H90      1.0000 0.23830  0.44620  0.22460  Biso   1.000  H
  H91      1.0000 0.23830  0.55380  0.72460  Biso   1.000  H
  H92      1.0000 0.76170  0.55380  0.72460  Biso   1.000  H
  H93      1.0000 0.26170  0.94620  0.22460  Biso   1.000  H
  H94      1.0000 0.73830  0.94620  0.22460  Biso   1.000  H
  H95      1.0000 0.73830  0.05380  0.72460  Biso   1.000  H
  H96      1.0000 0.26170  0.05380  0.72460  Biso   1.000  H
  H97      1.0000 0.88720  0.52860  0.41130  Biso   1.000  H
  H98      1.0000 0.11280  0.52860  0.41130  Biso   1.000  H
  H99      1.0000 0.11280  0.47140  0.91130  Biso   1.000  H
  H100     1.0000 0.88720  0.47140  0.91130  Biso   1.000  H
  H101     1.0000 0.38720  0.02860  0.41130  Biso   1.000  H
  H102     1.0000 0.61280  0.02860  0.41130  Biso   1.000  H
  H103     1.0000 0.61280  0.97140  0.91130  Biso   1.000  H
  H104     1.0000 0.38720  0.97140  0.91130  Biso   1.000  H
  H105     1.0000 0.86810  0.43600  0.38080  Biso   1.000  H
  H106     1.0000 0.13190  0.43600  0.38080  Biso   1.000  H
  H107     1.0000 0.13190  0.56400  0.88080  Biso   1.000  H
  H108     1.0000 0.86810  0.56400  0.88080  Biso   1.000  H
  H109     1.0000 0.36810  0.93600  0.38080  Biso   1.000  H
  H110     1.0000 0.63190  0.93600  0.38080  Biso   1.000  H
  H111     1.0000 0.63190  0.06400  0.88080  Biso   1.000  H
  H112     1.0000 0.36810  0.06400  0.88080  Biso   1.000  H
  H113     1.0000 0.93510  0.63180  0.13340  Biso   1.000  H
  H114     1.0000 0.06490  0.63180  0.13340  Biso   1.000  H
  H115     1.0000 0.06490  0.36820  0.63340  Biso   1.000  H
  H116     1.0000 0.93510  0.36820  0.63340  Biso   1.000  H
  H117     1.0000 0.43510  0.13180  0.13340  Biso   1.000  H
  H118     1.0000 0.56490  0.13180  0.13340  Biso   1.000  H
  H119     1.0000 0.56490  0.86820  0.63340  Biso   1.000  H
  H120     1.0000 0.43510  0.86820  0.63340  Biso   1.000  H
  H121     1.0000 0.93160  0.64090  0.26750  Biso   1.000  H
  H122     1.0000 0.06840  0.64090  0.26750  Biso   1.000  H
  H123     1.0000 0.06840  0.35910  0.76750  Biso   1.000  H
  H124     1.0000 0.93160  0.35910  0.76750  Biso   1.000  H
  H125     1.0000 0.43160  0.14090  0.26750  Biso   1.000  H
  H126     1.0000 0.56840  0.14090  0.26750  Biso   1.000  H
  H127     1.0000 0.56840  0.85910  0.76750  Biso   1.000  H
  H128     1.0000 0.43160  0.85910  0.76750  Biso   1.000  H
