data_image0
_cell_length_a       10.3809
_cell_length_b       14.0798
_cell_length_c       12.4462
_cell_angle_alpha    90
_cell_angle_beta     93.695
_cell_angle_gamma    90

_symmetry_space_group_name_H-M    "P 1"
_symmetry_int_tables_number       1

loop_
  _symmetry_equiv_pos_as_xyz
  'x, y, z'

loop_
  _atom_site_label
  _atom_site_occupancy
  _atom_site_fract_x
  _atom_site_fract_y
  _atom_site_fract_z
  _atom_site_thermal_displace_type
  _atom_site_B_iso_or_equiv
  _atom_site_type_symbol
  Cu1      1.0000 0.61420  0.39300  0.52140  Biso   1.000  Cu
  Cu2      1.0000 0.38580  0.89300  0.47860  Biso   1.000  Cu
  Cu3      1.0000 0.66000  0.68550  0.73920  Biso   1.000  Cu
  Cu4      1.0000 0.34000  0.18550  0.26080  Biso   1.000  Cu
  Cu5      1.0000 0.88150  0.69950  0.31150  Biso   1.000  Cu
  Cu6      1.0000 0.11850  0.19950  0.68850  Biso   1.000  Cu
  Cu7      1.0000 0.36300  0.39220  0.94110  Biso   1.000  Cu
  Cu8      1.0000 0.63700  0.89220  0.05890  Biso   1.000  Cu
  Cu9      1.0000 0.60740  0.22480  0.17820  Biso   1.000  Cu
  Cu10     1.0000 0.39260  0.72480  0.82180  Biso   1.000  Cu
  Cu11     1.0000 0.86480  0.18890  0.77450  Biso   1.000  Cu
  Cu12     1.0000 0.13520  0.68890  0.22550  Biso   1.000  Cu
  Cu13     1.0000 0.90570  0.90080  0.99430  Biso   1.000  Cu
  Cu14     1.0000 0.09430  0.40080  0.00570  Biso   1.000  Cu
  Cu15     1.0000 0.86770  0.36680  0.43390  Biso   1.000  Cu
  Cu16     1.0000 0.13230  0.86680  0.56610  Biso   1.000  Cu
  N1       1.0000 0.74000  0.78350  0.61530  Biso   1.000  N
  N2       1.0000 0.26000  0.28350  0.38470  Biso   1.000  N
  N3       1.0000 0.67500  0.30710  0.04470  Biso   1.000  N
  N4       1.0000 0.32500  0.80710  0.95530  Biso   1.000  N
  C1       1.0000 0.02100  0.84700  0.78200  Biso   1.000  C
  C2       1.0000 0.97900  0.34700  0.21800  Biso   1.000  C
  N5       1.0000 0.44000  0.31290  0.81850  Biso   1.000  N
  N6       1.0000 0.56000  0.81290  0.18150  Biso   1.000  N
  N7       1.0000 0.05200  0.78800  0.69800  Biso   1.000  N
  N8       1.0000 0.94800  0.28800  0.30200  Biso   1.000  N
  C3       1.0000 0.41900  0.20990  0.80910  Biso   1.000  C
  C4       1.0000 0.58100  0.70990  0.19090  Biso   1.000  C
  C5       1.0000 0.08100  0.69500  0.71400  Biso   1.000  C
  C6       1.0000 0.91900  0.19500  0.28600  Biso   1.000  C
  C7       1.0000 0.03400  0.64800  0.82000  Biso   1.000  C
  C8       1.0000 0.96600  0.14800  0.18000  Biso   1.000  C
  N9       1.0000 0.65600  0.57000  0.66400  Biso   1.000  N
  N10      1.0000 0.34400  0.07000  0.33600  Biso   1.000  N
  N11      1.0000 0.90900  0.08200  0.87300  Biso   1.000  N
  N12      1.0000 0.09100  0.58200  0.12700  Biso   1.000  N
  C9       1.0000 0.71500  0.24900  0.96200  Biso   1.000  C
  C10      1.0000 0.28500  0.74900  0.03800  Biso   1.000  C
  C11      1.0000 0.86000  0.30020  0.56200  Biso   1.000  C
  C12      1.0000 0.14000  0.80020  0.43800  Biso   1.000  C
  C13      1.0000 0.77200  0.74800  0.53200  Biso   1.000  C
  C14      1.0000 0.22800  0.24800  0.46800  Biso   1.000  C
  C15      1.0000 0.98200  0.71170  0.89700  Biso   1.000  C
  C16      1.0000 0.01800  0.21170  0.10300  Biso   1.000  C
  C17      1.0000 0.92100  0.02000  0.92800  Biso   1.000  C
  C18      1.0000 0.07900  0.52000  0.07200  Biso   1.000  C
  C19      1.0000 0.64700  0.80900  0.94400  Biso   1.000  C
  C20      1.0000 0.35300  0.30900  0.05600  Biso   1.000  C
  N13      1.0000 0.87200  0.57200  0.35800  Biso   1.000  N
  N14      1.0000 0.12800  0.07200  0.64200  Biso   1.000  N
  C21      1.0000 0.87300  0.48700  0.38200  Biso   1.000  C
  C22      1.0000 0.12700  0.98700  0.61800  Biso   1.000  C
  C23      1.0000 0.45000  0.15100  0.69600  Biso   1.000  C
  C24      1.0000 0.55000  0.65100  0.30400  Biso   1.000  C
  N15      1.0000 0.97300  0.80560  0.87600  Biso   1.000  N
  N16      1.0000 0.02700  0.30560  0.12400  Biso   1.000  N
  N17      1.0000 0.65000  0.75500  0.86600  Biso   1.000  N
  N18      1.0000 0.35000  0.25500  0.13400  Biso   1.000  N
  C25      1.0000 0.51500  0.21400  0.63000  Biso   1.000  C
  C26      1.0000 0.48500  0.71400  0.37000  Biso   1.000  C
  N19      1.0000 0.76800  0.28950  0.87270  Biso   1.000  N
  N20      1.0000 0.23200  0.78950  0.12730  Biso   1.000  N
  N21      1.0000 0.86500  0.25330  0.64050  Biso   1.000  N
  N22      1.0000 0.13500  0.75330  0.35950  Biso   1.000  N
  N23      1.0000 0.37700  0.59800  0.86700  Biso   1.000  N
  N24      1.0000 0.62300  0.09800  0.13300  Biso   1.000  N
  N25      1.0000 0.52900  0.29960  0.64420  Biso   1.000  N
  N26      1.0000 0.47100  0.79960  0.35580  Biso   1.000  N
  C27      1.0000 0.48300  0.35200  0.73500  Biso   1.000  C
  C28      1.0000 0.51700  0.85200  0.26500  Biso   1.000  C
  C29      1.0000 0.79000  0.92300  0.51400  Biso   1.000  C
  C30      1.0000 0.21000  0.42300  0.48600  Biso   1.000  C
  C31      1.0000 0.78100  0.38800  0.86600  Biso   1.000  C
  C32      1.0000 0.21900  0.88800  0.13400  Biso   1.000  C
  C33      1.0000 0.74100  0.88500  0.60100  Biso   1.000  C
  C34      1.0000 0.25900  0.38500  0.39900  Biso   1.000  C
  C35      1.0000 0.74100  0.44600  0.94800  Biso   1.000  C
  C36      1.0000 0.25900  0.94600  0.05200  Biso   1.000  C
  C37      1.0000 0.36700  0.52400  0.89800  Biso   1.000  C
  C38      1.0000 0.63300  0.02400  0.10200  Biso   1.000  C
  C39      1.0000 0.68800  0.40500  0.03800  Biso   1.000  C
  C40      1.0000 0.31200  0.90500  0.96200  Biso   1.000  C
  C41      1.0000 0.63800  0.50600  0.60700  Biso   1.000  C
  C42      1.0000 0.36200  0.00600  0.39300  Biso   1.000  C
  N27      1.0000 0.82500  0.78380  0.44580  Biso   1.000  N
  N28      1.0000 0.17500  0.28380  0.55420  Biso   1.000  N
  C43      1.0000 0.56900  0.15600  0.55400  Biso   1.000  C
  C44      1.0000 0.43100  0.65600  0.44600  Biso   1.000  C
  C45      1.0000 0.70400  0.93800  0.70400  Biso   1.000  C
  C46      1.0000 0.29600  0.43800  0.29600  Biso   1.000  C
  C47      1.0000 0.60100  0.30150  0.30500  Biso   1.000  C
  C48      1.0000 0.39900  0.80150  0.69500  Biso   1.000  C
  C49      1.0000 0.90200  0.83500  0.12400  Biso   1.000  C
  C50      1.0000 0.09800  0.33500  0.87600  Biso   1.000  C
  C51      1.0000 0.80300  0.86400  0.42700  Biso   1.000  C
  C52      1.0000 0.19700  0.36400  0.57300  Biso   1.000  C
  N29      1.0000 0.60100  0.33600  0.38200  Biso   1.000  N
  N30      1.0000 0.39900  0.83600  0.61800  Biso   1.000  N
  N31      1.0000 0.89300  0.78700  0.19100  Biso   1.000  N
  N32      1.0000 0.10700  0.28700  0.80900  Biso   1.000  N
  C53      1.0000 0.63000  0.46700  0.11900  Biso   1.000  C
  C54      1.0000 0.37000  0.96700  0.88100  Biso   1.000  C
  C55      1.0000 0.08400  0.61400  0.64900  Biso   1.000  C
  C56      1.0000 0.91600  0.11400  0.35100  Biso   1.000  C
  H1       1.0000 0.03303  0.91443  0.77624  Biso   1.000  H
  H2       1.0000 0.96697  0.41443  0.22376  Biso   1.000  H
  H3       1.0000 0.38769  0.17499  0.86813  Biso   1.000  H
  H4       1.0000 0.61231  0.67499  0.13187  Biso   1.000  H
  H5       1.0000 0.04178  0.58067  0.83051  Biso   1.000  H
  H6       1.0000 0.95822  0.08067  0.16949  Biso   1.000  H
  H7       1.0000 0.70549  0.18140  0.96698  Biso   1.000  H
  H8       1.0000 0.29451  0.68140  0.03302  Biso   1.000  H
  H9       1.0000 0.75951  0.68180  0.51874  Biso   1.000  H
  H10      1.0000 0.24049  0.18180  0.48126  Biso   1.000  H
  H11      1.0000 0.95421  0.68728  0.96382  Biso   1.000  H
  H12      1.0000 0.04579  0.18728  0.03618  Biso   1.000  H
  H13      1.0000 0.48659  0.41994  0.73001  Biso   1.000  H
  H14      1.0000 0.51341  0.91994  0.26999  Biso   1.000  H
  H15      1.0000 0.81440  0.98922  0.51459  Biso   1.000  H
  H16      1.0000 0.18560  0.48922  0.48541  Biso   1.000  H
  H17      1.0000 0.81763  0.41559  0.80418  Biso   1.000  H
  H18      1.0000 0.18237  0.91559  0.19582  Biso   1.000  H
  H19      1.0000 0.75051  0.51348  0.94345  Biso   1.000  H
  H20      1.0000 0.24949  0.01348  0.05655  Biso   1.000  H
  H21      1.0000 0.70562  0.00570  0.69161  Biso   1.000  H
  H22      1.0000 0.29438  0.50570  0.30839  Biso   1.000  H
  H23      1.0000 0.76394  0.92258  0.76307  Biso   1.000  H
  H24      1.0000 0.23606  0.42258  0.23693  Biso   1.000  H
  H25      1.0000 0.61840  0.91980  0.72087  Biso   1.000  H
  H26      1.0000 0.38160  0.41980  0.27913  Biso   1.000  H
  H27      1.0000 0.79481  0.88967  0.35565  Biso   1.000  H
  H28      1.0000 0.20519  0.38967  0.64435  Biso   1.000  H
  H29      1.0000 0.64714  0.53202  0.10361  Biso   1.000  H
  H30      1.0000 0.35286  0.03202  0.89639  Biso   1.000  H
  H31      1.0000 0.66680  0.45090  0.18939  Biso   1.000  H
  H32      1.0000 0.33320  0.95090  0.81061  Biso   1.000  H
  H33      1.0000 0.53844  0.45627  0.11605  Biso   1.000  H
  H34      1.0000 0.46156  0.95627  0.88395  Biso   1.000  H
  H35      1.0000 0.10798  0.55380  0.68036  Biso   1.000  H
  H36      1.0000 0.89202  0.05380  0.31964  Biso   1.000  H
  H37      1.0000 0.06130  0.61877  0.57327  Biso   1.000  H
  H38      1.0000 0.93870  0.11877  0.42673  Biso   1.000  H
  H39      1.0000 0.61482  0.19443  0.50583  Biso   1.000  H
  H40      1.0000 0.38518  0.69443  0.49417  Biso   1.000  H
  H41      1.0000 0.50150  0.12172  0.51398  Biso   1.000  H
  H42      1.0000 0.49850  0.62172  0.48602  Biso   1.000  H
  H43      1.0000 0.62721  0.11151  0.58991  Biso   1.000  H
  H44      1.0000 0.37279  0.61151  0.41009  Biso   1.000  H
  H45      1.0000 0.42420  0.08603  0.68654  Biso   1.000  H
  H46      1.0000 0.57580  0.58603  0.31346  Biso   1.000  H
