data_image0
_cell_length_a       9.055
_cell_length_b       10.734
_cell_length_c       18.338
_cell_angle_alpha    90
_cell_angle_beta     90
_cell_angle_gamma    90

_symmetry_space_group_name_H-M    "P 1"
_symmetry_int_tables_number       1

loop_
  _symmetry_equiv_pos_as_xyz
  'x, y, z'

loop_
  _atom_site_label
  _atom_site_occupancy
  _atom_site_fract_x
  _atom_site_fract_y
  _atom_site_fract_z
  _atom_site_thermal_displace_type
  _atom_site_B_iso_or_equiv
  _atom_site_type_symbol
  Cu1      1.0000 0.20032  0.49830  0.42762  Biso   1.000  Cu
  Cu2      1.0000 0.29968  0.50170  0.92762  Biso   1.000  Cu
  Cu3      1.0000 0.79968  0.99830  0.07238  Biso   1.000  Cu
  Cu4      1.0000 0.70032  0.00170  0.57238  Biso   1.000  Cu
  Cl1      1.0000 0.68200  0.53840  0.30176  Biso   1.000  Cl
  Cl2      1.0000 0.81800  0.46160  0.80176  Biso   1.000  Cl
  Cl3      1.0000 0.31800  0.03840  0.19824  Biso   1.000  Cl
  Cl4      1.0000 0.18200  0.96160  0.69824  Biso   1.000  Cl
  O1       1.0000 0.81730  0.50210  0.28530  Biso   1.000  O
  O2       1.0000 0.68270  0.49790  0.78530  Biso   1.000  O
  O3       1.0000 0.18270  0.00210  0.21470  Biso   1.000  O
  O4       1.0000 0.31730  0.99790  0.71470  Biso   1.000  O
  O5       1.0000 0.59530  0.57870  0.24580  Biso   1.000  O
  O6       1.0000 0.90470  0.42130  0.74580  Biso   1.000  O
  O7       1.0000 0.40470  0.07870  0.25420  Biso   1.000  O
  O8       1.0000 0.09530  0.92130  0.75420  Biso   1.000  O
  O9       1.0000 0.61990  0.44260  0.33650  Biso   1.000  O
  O10      1.0000 0.88010  0.55740  0.83650  Biso   1.000  O
  O11      1.0000 0.38010  0.94260  0.16350  Biso   1.000  O
  O12      1.0000 0.11990  0.05740  0.66350  Biso   1.000  O
  O13      1.0000 0.69240  0.63090  0.34490  Biso   1.000  O
  O14      1.0000 0.80760  0.36910  0.84490  Biso   1.000  O
  O15      1.0000 0.30760  0.13090  0.15510  Biso   1.000  O
  O16      1.0000 0.19240  0.86910  0.65510  Biso   1.000  O
  N1       1.0000 0.54890  0.92770  0.50360  Biso   1.000  N
  N2       1.0000 0.95110  0.07230  0.00360  Biso   1.000  N
  N3       1.0000 0.45110  0.42770  0.99640  Biso   1.000  N
  N4       1.0000 0.04890  0.57230  0.49640  Biso   1.000  N
  N5       1.0000 0.27810  0.62120  0.34410  Biso   1.000  N
  N6       1.0000 0.22190  0.37880  0.84410  Biso   1.000  N
  N7       1.0000 0.72190  0.12120  0.15590  Biso   1.000  N
  N8       1.0000 0.77810  0.87880  0.65590  Biso   1.000  N
  N9       1.0000 0.11870  0.38800  0.33740  Biso   1.000  N
  N10      1.0000 0.38130  0.61200  0.83740  Biso   1.000  N
  N11      1.0000 0.88130  0.88800  0.16260  Biso   1.000  N
  N12      1.0000 0.61870  0.11200  0.66260  Biso   1.000  N
  N13      1.0000 0.84720  0.08880  0.50490  Biso   1.000  N
  N14      1.0000 0.65280  0.91120  0.00490  Biso   1.000  N
  N15      1.0000 0.15280  0.58880  0.99510  Biso   1.000  N
  N16      1.0000 0.34720  0.41120  0.49510  Biso   1.000  N
  C1       1.0000 0.47840  0.86690  0.38170  Biso   1.000  C
  C2       1.0000 0.02160  0.13310  0.88170  Biso   1.000  C
  C3       1.0000 0.52160  0.36690  0.11830  Biso   1.000  C
  C4       1.0000 0.97840  0.63310  0.61830  Biso   1.000  C
  H1       1.0000 0.50030  0.86570  0.33210  Biso   1.000  H
  H2       1.0000 0.99970  0.13430  0.83210  Biso   1.000  H
  H3       1.0000 0.49970  0.36570  0.16790  Biso   1.000  H
  H4       1.0000 0.00030  0.63430  0.66790  Biso   1.000  H
  C5       1.0000 0.57600  0.92100  0.43100  Biso   1.000  C
  C6       1.0000 0.92400  0.07900  0.93100  Biso   1.000  C
  C7       1.0000 0.42400  0.42100  0.06900  Biso   1.000  C
  C8       1.0000 0.07600  0.57900  0.56900  Biso   1.000  C
  H5       1.0000 0.66390  0.95410  0.41330  Biso   1.000  H
  H6       1.0000 0.83610  0.04590  0.91330  Biso   1.000  H
  H7       1.0000 0.33610  0.45410  0.08670  Biso   1.000  H
  H8       1.0000 0.16390  0.54590  0.58670  Biso   1.000  H
  C9       1.0000 0.42580  0.87620  0.52540  Biso   1.000  C
  C10      1.0000 0.07420  0.12380  0.02540  Biso   1.000  C
  C11      1.0000 0.57420  0.37620  0.97460  Biso   1.000  C
  C12      1.0000 0.92580  0.62380  0.47460  Biso   1.000  C
  H9       1.0000 0.40540  0.87620  0.57510  Biso   1.000  H
  H10      1.0000 0.09460  0.12380  0.07510  Biso   1.000  H
  H11      1.0000 0.59460  0.37620  0.92490  Biso   1.000  H
  H12      1.0000 0.90540  0.62380  0.42490  Biso   1.000  H
  C13      1.0000 0.32460  0.82190  0.47910  Biso   1.000  C
  C14      1.0000 0.17540  0.17810  0.97910  Biso   1.000  C
  C15      1.0000 0.67540  0.32190  0.02090  Biso   1.000  C
  C16      1.0000 0.82460  0.67810  0.52090  Biso   1.000  C
  H13      1.0000 0.23750  0.78910  0.49800  Biso   1.000  H
  H14      1.0000 0.26250  0.21090  0.99800  Biso   1.000  H
  H15      1.0000 0.76250  0.28910  0.00200  Biso   1.000  H
  H16      1.0000 0.73750  0.71090  0.50200  Biso   1.000  H
  C17      1.0000 0.35050  0.81570  0.40660  Biso   1.000  C
  C18      1.0000 0.14950  0.18430  0.90660  Biso   1.000  C
  C19      1.0000 0.64950  0.31570  0.09340  Biso   1.000  C
  C20      1.0000 0.85050  0.68430  0.59340  Biso   1.000  C
  C21      1.0000 0.24800  0.75560  0.35390  Biso   1.000  C
  C22      1.0000 0.25200  0.24440  0.85390  Biso   1.000  C
  C23      1.0000 0.75200  0.25560  0.14610  Biso   1.000  C
  C24      1.0000 0.74800  0.74440  0.64610  Biso   1.000  C
  H17      1.0000 0.14740  0.76610  0.37100  Biso   1.000  H
  H18      1.0000 0.35260  0.23390  0.87100  Biso   1.000  H
  H19      1.0000 0.85260  0.26610  0.12900  Biso   1.000  H
  H20      1.0000 0.64740  0.73390  0.62900  Biso   1.000  H
  H21      1.0000 0.25640  0.79720  0.30720  Biso   1.000  H
  H22      1.0000 0.24360  0.20280  0.80720  Biso   1.000  H
  H23      1.0000 0.74360  0.29720  0.19280  Biso   1.000  H
  H24      1.0000 0.75640  0.70280  0.69280  Biso   1.000  H
  C25      1.0000 0.20860  0.57410  0.27740  Biso   1.000  C
  C26      1.0000 0.29140  0.42590  0.77740  Biso   1.000  C
  C27      1.0000 0.79140  0.07410  0.22260  Biso   1.000  C
  C28      1.0000 0.70860  0.92590  0.72260  Biso   1.000  C
  H25      1.0000 0.26090  0.60560  0.23510  Biso   1.000  H
  H26      1.0000 0.23910  0.39440  0.73510  Biso   1.000  H
  H27      1.0000 0.73910  0.10560  0.26490  Biso   1.000  H
  H28      1.0000 0.76090  0.89440  0.76490  Biso   1.000  H
  H29      1.0000 0.10720  0.60290  0.27480  Biso   1.000  H
  H30      1.0000 0.39280  0.39710  0.77480  Biso   1.000  H
  H31      1.0000 0.89280  0.10290  0.22520  Biso   1.000  H
  H32      1.0000 0.60720  0.89710  0.72520  Biso   1.000  H
  C29      1.0000 0.21190  0.43380  0.27720  Biso   1.000  C
  C30      1.0000 0.28810  0.56620  0.77720  Biso   1.000  C
  C31      1.0000 0.78810  0.93380  0.22280  Biso   1.000  C
  C32      1.0000 0.71190  0.06620  0.72280  Biso   1.000  C
  H33      1.0000 0.17510  0.40250  0.23100  Biso   1.000  H
  H34      1.0000 0.32490  0.59750  0.73100  Biso   1.000  H
  H35      1.0000 0.82490  0.90250  0.26900  Biso   1.000  H
  H36      1.0000 0.67510  0.09750  0.76900  Biso   1.000  H
  H37      1.0000 0.31250  0.40470  0.28350  Biso   1.000  H
  H38      1.0000 0.18750  0.59530  0.78350  Biso   1.000  H
  H39      1.0000 0.68750  0.90470  0.21650  Biso   1.000  H
  H40      1.0000 0.81250  0.09530  0.71650  Biso   1.000  H
  C33      1.0000 0.13000  0.25330  0.34260  Biso   1.000  C
  C34      1.0000 0.37000  0.74670  0.84260  Biso   1.000  C
  C35      1.0000 0.87000  0.75330  0.15740  Biso   1.000  C
  C36      1.0000 0.63000  0.24670  0.65740  Biso   1.000  C
  H41      1.0000 0.23110  0.23100  0.35440  Biso   1.000  H
  H42      1.0000 0.26890  0.76900  0.85440  Biso   1.000  H
  H43      1.0000 0.76890  0.73100  0.14560  Biso   1.000  H
  H44      1.0000 0.73110  0.26900  0.64560  Biso   1.000  H
  H45      1.0000 0.10660  0.21690  0.29560  Biso   1.000  H
  H46      1.0000 0.39340  0.78310  0.79560  Biso   1.000  H
  H47      1.0000 0.89340  0.71690  0.20440  Biso   1.000  H
  H48      1.0000 0.60660  0.28310  0.70440  Biso   1.000  H
  C37      1.0000 0.02920  0.19940  0.39910  Biso   1.000  C
  C38      1.0000 0.47080  0.80060  0.89910  Biso   1.000  C
  C39      1.0000 0.97080  0.69940  0.10090  Biso   1.000  C
  C40      1.0000 0.52920  0.30060  0.60090  Biso   1.000  C
  C41      1.0000 0.89760  0.24670  0.41800  Biso   1.000  C
  C42      1.0000 0.60240  0.75330  0.91800  Biso   1.000  C
  C43      1.0000 0.10240  0.74670  0.08200  Biso   1.000  C
  C44      1.0000 0.39760  0.25330  0.58200  Biso   1.000  C
  H49      1.0000 0.86420  0.31860  0.39500  Biso   1.000  H
  H50      1.0000 0.63580  0.68140  0.89500  Biso   1.000  H
  H51      1.0000 0.13580  0.81860  0.10500  Biso   1.000  H
  H52      1.0000 0.36420  0.18140  0.60500  Biso   1.000  H
  C45      1.0000 0.81130  0.19220  0.47010  Biso   1.000  C
  C46      1.0000 0.68870  0.80780  0.97010  Biso   1.000  C
  C47      1.0000 0.18870  0.69220  0.02990  Biso   1.000  C
  C48      1.0000 0.31130  0.30780  0.52990  Biso   1.000  C
  H53      1.0000 0.72200  0.23010  0.48170  Biso   1.000  H
  H54      1.0000 0.77800  0.76990  0.98170  Biso   1.000  H
  H55      1.0000 0.27800  0.73010  0.01830  Biso   1.000  H
  H56      1.0000 0.22200  0.26990  0.51830  Biso   1.000  H
  C49      1.0000 0.97730  0.04130  0.48500  Biso   1.000  C
  C50      1.0000 0.52270  0.95870  0.98500  Biso   1.000  C
  C51      1.0000 0.02270  0.54130  0.01500  Biso   1.000  C
  C52      1.0000 0.47730  0.45870  0.51500  Biso   1.000  C
  H57      1.0000 0.00920  0.96890  0.50800  Biso   1.000  H
  H58      1.0000 0.49080  0.03110  0.00800  Biso   1.000  H
  H59      1.0000 0.99080  0.46890  0.99200  Biso   1.000  H
  H60      1.0000 0.50920  0.53110  0.49200  Biso   1.000  H
  C53      1.0000 0.06770  0.09330  0.43220  Biso   1.000  C
  C54      1.0000 0.43230  0.90670  0.93220  Biso   1.000  C
  C55      1.0000 0.93230  0.59330  0.06780  Biso   1.000  C
  C56      1.0000 0.56770  0.40670  0.56780  Biso   1.000  C
  H61      1.0000 0.15580  0.05420  0.41970  Biso   1.000  H
  H62      1.0000 0.34420  0.94580  0.91970  Biso   1.000  H
  H63      1.0000 0.84420  0.55420  0.08030  Biso   1.000  H
  H64      1.0000 0.65580  0.44580  0.58030  Biso   1.000  H
