data_image0
_cell_length_a       3.823
_cell_length_b       15.99
_cell_length_c       13.1
_cell_angle_alpha    90
_cell_angle_beta     99.768
_cell_angle_gamma    90

_symmetry_space_group_name_H-M    "P 1"
_symmetry_int_tables_number       1

loop_
  _symmetry_equiv_pos_as_xyz
  'x, y, z'

loop_
  _atom_site_label
  _atom_site_occupancy
  _atom_site_fract_x
  _atom_site_fract_y
  _atom_site_fract_z
  _atom_site_thermal_displace_type
  _atom_site_B_iso_or_equiv
  _atom_site_type_symbol
  C1       1.0000 0.64520  0.87890  0.42610  Biso   1.000  C
  C2       1.0000 0.35480  0.37890  0.07390  Biso   1.000  C
  C3       1.0000 0.35480  0.12110  0.57390  Biso   1.000  C
  C4       1.0000 0.64520  0.62110  0.92610  Biso   1.000  C
  C5       1.0000 0.60630  0.95870  0.36820  Biso   1.000  C
  C6       1.0000 0.39370  0.45870  0.13180  Biso   1.000  C
  C7       1.0000 0.39370  0.04130  0.63180  Biso   1.000  C
  C8       1.0000 0.60630  0.54130  0.86820  Biso   1.000  C
  H1       1.0000 0.73140  0.00210  0.41000  Biso   1.000  H
  H2       1.0000 0.26860  0.50210  0.09000  Biso   1.000  H
  H3       1.0000 0.26860  0.99790  0.59000  Biso   1.000  H
  H4       1.0000 0.73140  0.49790  0.91000  Biso   1.000  H
  H5       1.0000 0.35940  0.97310  0.35130  Biso   1.000  H
  H6       1.0000 0.64060  0.47310  0.14870  Biso   1.000  H
  H7       1.0000 0.64060  0.02690  0.64870  Biso   1.000  H
  H8       1.0000 0.35940  0.52690  0.85130  Biso   1.000  H
  H9       1.0000 0.70280  0.95280  0.30550  Biso   1.000  H
  H10      1.0000 0.29720  0.45280  0.19450  Biso   1.000  H
  H11      1.0000 0.29720  0.04720  0.69450  Biso   1.000  H
  H12      1.0000 0.70280  0.54720  0.80550  Biso   1.000  H
  O1       1.0000 0.81260  0.87510  0.51270  Biso   1.000  O
  O2       1.0000 0.18740  0.37510  0.98730  Biso   1.000  O
  O3       1.0000 0.18740  0.12490  0.48730  Biso   1.000  O
  O4       1.0000 0.81260  0.62490  0.01270  Biso   1.000  O
  C9       1.0000 0.44280  0.73350  0.43690  Biso   1.000  C
  C10      1.0000 0.55720  0.23350  0.06310  Biso   1.000  C
  C11      1.0000 0.55720  0.26650  0.56310  Biso   1.000  C
  C12      1.0000 0.44280  0.76650  0.93690  Biso   1.000  C
  H13      1.0000 0.53280  0.73710  0.50740  Biso   1.000  H
  H14      1.0000 0.46720  0.23710  0.99260  Biso   1.000  H
  H15      1.0000 0.46720  0.26290  0.49260  Biso   1.000  H
  H16      1.0000 0.53280  0.76290  0.00740  Biso   1.000  H
  C13      1.0000 0.47480  0.80240  0.37550  Biso   1.000  C
  C14      1.0000 0.52520  0.30240  0.12450  Biso   1.000  C
  C15      1.0000 0.52520  0.19760  0.62450  Biso   1.000  C
  C16      1.0000 0.47480  0.69760  0.87550  Biso   1.000  C
  C17      1.0000 0.35250  0.79580  0.27160  Biso   1.000  C
  C18      1.0000 0.64750  0.29580  0.22840  Biso   1.000  C
  C19      1.0000 0.64750  0.20420  0.72840  Biso   1.000  C
  C20      1.0000 0.35250  0.70420  0.77160  Biso   1.000  C
  H17      1.0000 0.37010  0.84080  0.22790  Biso   1.000  H
  H18      1.0000 0.62990  0.34080  0.27210  Biso   1.000  H
  H19      1.0000 0.62990  0.15920  0.77210  Biso   1.000  H
  H20      1.0000 0.37010  0.65920  0.72790  Biso   1.000  H
  C21      1.0000 0.20370  0.72210  0.23270  Biso   1.000  C
  C22      1.0000 0.79630  0.22210  0.26730  Biso   1.000  C
  C23      1.0000 0.79630  0.27790  0.76730  Biso   1.000  C
  C24      1.0000 0.20370  0.77790  0.73270  Biso   1.000  C
  H21      1.0000 0.12350  0.71600  0.16200  Biso   1.000  H
  H22      1.0000 0.87650  0.21600  0.33800  Biso   1.000  H
  H23      1.0000 0.87650  0.28400  0.83800  Biso   1.000  H
  H24      1.0000 0.12350  0.78400  0.66200  Biso   1.000  H
  C25      1.0000 0.17460  0.65800  0.29870  Biso   1.000  C
  C26      1.0000 0.82540  0.15800  0.20130  Biso   1.000  C
  C27      1.0000 0.82540  0.34200  0.70130  Biso   1.000  C
  C28      1.0000 0.17460  0.84200  0.79870  Biso   1.000  C
  H25      1.0000 0.06930  0.60850  0.27170  Biso   1.000  H
  H26      1.0000 0.93070  0.10850  0.22830  Biso   1.000  H
  H27      1.0000 0.93070  0.39150  0.72830  Biso   1.000  H
  H28      1.0000 0.06930  0.89150  0.77170  Biso   1.000  H
  N1       1.0000 0.29040  0.66276  0.40050  Biso   1.000  N
  N2       1.0000 0.70960  0.16276  0.09950  Biso   1.000  N
  N3       1.0000 0.70960  0.33724  0.59950  Biso   1.000  N
  N4       1.0000 0.29040  0.83724  0.90050  Biso   1.000  N
  Cl1      1.0000 0.16690  0.43956  0.39548  Biso   1.000  Cl
  Cl2      1.0000 0.83310  0.93956  0.10452  Biso   1.000  Cl
  Cl3      1.0000 0.83310  0.56044  0.60452  Biso   1.000  Cl
  Cl4      1.0000 0.16690  0.06044  0.89548  Biso   1.000  Cl
  Cu1      1.0000 0.24840  0.56819  0.49662  Biso   1.000  Cu
  Cu2      1.0000 0.75160  0.06819  0.00338  Biso   1.000  Cu
  Cu3      1.0000 0.75160  0.43181  0.50338  Biso   1.000  Cu
  Cu4      1.0000 0.24840  0.93181  0.99662  Biso   1.000  Cu
