data_image0
_cell_length_a       12.75
_cell_length_b       4.3315
_cell_length_c       18.209
_cell_angle_alpha    90
_cell_angle_beta     97.92
_cell_angle_gamma    90

_symmetry_space_group_name_H-M    "P 1"
_symmetry_int_tables_number       1

loop_
  _symmetry_equiv_pos_as_xyz
  'x, y, z'

loop_
  _atom_site_label
  _atom_site_occupancy
  _atom_site_fract_x
  _atom_site_fract_y
  _atom_site_fract_z
  _atom_site_thermal_displace_type
  _atom_site_B_iso_or_equiv
  _atom_site_type_symbol
  Cu1      1.0000 0.75539  0.00130  0.60182  Biso   1.000  Cu
  Cu2      1.0000 0.74461  0.00130  0.89818  Biso   1.000  Cu
  Cu3      1.0000 0.24461  0.99870  0.39818  Biso   1.000  Cu
  Cu4      1.0000 0.25539  0.99870  0.10182  Biso   1.000  Cu
  Cu5      1.0000 0.84424  0.53740  0.70801  Biso   1.000  Cu
  Cu6      1.0000 0.65576  0.53740  0.79199  Biso   1.000  Cu
  Cu7      1.0000 0.15576  0.46260  0.29199  Biso   1.000  Cu
  Cu8      1.0000 0.34424  0.46260  0.20801  Biso   1.000  Cu
  I1       1.0000 0.94916  0.03675  0.67081  Biso   1.000  I
  I2       1.0000 0.55084  0.03675  0.82919  Biso   1.000  I
  I3       1.0000 0.05084  0.96325  0.32919  Biso   1.000  I
  I4       1.0000 0.44916  0.96325  0.17081  Biso   1.000  I
  I5       1.0000 0.64494  0.52127  0.64482  Biso   1.000  I
  I6       1.0000 0.85506  0.52127  0.85518  Biso   1.000  I
  I7       1.0000 0.35506  0.47873  0.35518  Biso   1.000  I
  I8       1.0000 0.14494  0.47873  0.14482  Biso   1.000  I
  N1       1.0000 0.71980  0.04870  0.49210  Biso   1.000  N
  N2       1.0000 0.78020  0.04870  0.00790  Biso   1.000  N
  N3       1.0000 0.28020  0.95130  0.50790  Biso   1.000  N
  N4       1.0000 0.21980  0.95130  0.99210  Biso   1.000  N
  N5       1.0000 0.70540  0.23010  0.37850  Biso   1.000  N
  N6       1.0000 0.79460  0.23010  0.12150  Biso   1.000  N
  N7       1.0000 0.29460  0.76990  0.62150  Biso   1.000  N
  N8       1.0000 0.20540  0.76990  0.87850  Biso   1.000  N
  C1       1.0000 0.61610  0.05200  0.38260  Biso   1.000  C
  C2       1.0000 0.88390  0.05200  0.11740  Biso   1.000  C
  C3       1.0000 0.38390  0.94800  0.61740  Biso   1.000  C
  C4       1.0000 0.11610  0.94800  0.88260  Biso   1.000  C
  H1       1.0000 0.56010  0.01660  0.34510  Biso   1.000  H
  H2       1.0000 0.93990  0.01660  0.15490  Biso   1.000  H
  H3       1.0000 0.43990  0.98340  0.65490  Biso   1.000  H
  H4       1.0000 0.06010  0.98340  0.84510  Biso   1.000  H
  C5       1.0000 0.62730  0.94090  0.45230  Biso   1.000  C
  C6       1.0000 0.87270  0.94090  0.04770  Biso   1.000  C
  C7       1.0000 0.37270  0.05910  0.54770  Biso   1.000  C
  C8       1.0000 0.12730  0.05910  0.95230  Biso   1.000  C
  H5       1.0000 0.57950  0.81020  0.47090  Biso   1.000  H
  H6       1.0000 0.92050  0.81020  0.02910  Biso   1.000  H
  H7       1.0000 0.42050  0.18980  0.52910  Biso   1.000  H
  H8       1.0000 0.07950  0.18980  0.97090  Biso   1.000  H
  C9       1.0000 0.76620  0.22220  0.44590  Biso   1.000  C
  C10      1.0000 0.73380  0.22220  0.05410  Biso   1.000  C
  C11      1.0000 0.23380  0.77780  0.55410  Biso   1.000  C
  C12      1.0000 0.26620  0.77780  0.94590  Biso   1.000  C
  C13      1.0000 0.72210  0.40470  0.31380  Biso   1.000  C
  C14      1.0000 0.77790  0.40470  0.18620  Biso   1.000  C
  C15      1.0000 0.27790  0.59530  0.68620  Biso   1.000  C
  C16      1.0000 0.22210  0.59530  0.81380  Biso   1.000  C
  H9       1.0000 0.77880  0.55180  0.32760  Biso   1.000  H
  H10      1.0000 0.72120  0.55180  0.17240  Biso   1.000  H
  H11      1.0000 0.22120  0.44820  0.67240  Biso   1.000  H
  H12      1.0000 0.27880  0.44820  0.82760  Biso   1.000  H
  H13      1.0000 0.65840  0.52110  0.29680  Biso   1.000  H
  H14      1.0000 0.84160  0.52110  0.20320  Biso   1.000  H
  H15      1.0000 0.34160  0.47890  0.70320  Biso   1.000  H
  H16      1.0000 0.15840  0.47890  0.79680  Biso   1.000  H
  C17      1.0000 0.75000  0.20800  0.25000  Biso   1.000  C
  C18      1.0000 0.25000  0.79200  0.75000  Biso   1.000  C
  H17      1.0000 0.69040  0.07620  0.23220  Biso   1.000  H
  H18      1.0000 0.80960  0.07620  0.26780  Biso   1.000  H
  H19      1.0000 0.30960  0.92380  0.76780  Biso   1.000  H
  H20      1.0000 0.19040  0.92380  0.73220  Biso   1.000  H
  C19      1.0000 0.86650  0.38850  0.46440  Biso   1.000  C
  C20      1.0000 0.63350  0.38850  0.03560  Biso   1.000  C
  C21      1.0000 0.13350  0.61150  0.53560  Biso   1.000  C
  C22      1.0000 0.36650  0.61150  0.96440  Biso   1.000  C
  H21      1.0000 0.89510  0.34720  0.51500  Biso   1.000  H
  H22      1.0000 0.60490  0.34720  0.98500  Biso   1.000  H
  H23      1.0000 0.10490  0.65280  0.48500  Biso   1.000  H
  H24      1.0000 0.39510  0.65280  0.01500  Biso   1.000  H
  H25      1.0000 0.85440  0.60610  0.45800  Biso   1.000  H
  H26      1.0000 0.64560  0.60610  0.04200  Biso   1.000  H
  H27      1.0000 0.14560  0.39390  0.54200  Biso   1.000  H
  H28      1.0000 0.35440  0.39390  0.95800  Biso   1.000  H
  H29      1.0000 0.91580  0.32080  0.43240  Biso   1.000  H
  H30      1.0000 0.58420  0.32080  0.06760  Biso   1.000  H
  H31      1.0000 0.08420  0.67920  0.56760  Biso   1.000  H
  H32      1.0000 0.41580  0.67920  0.93240  Biso   1.000  H
