data_image0
_cell_length_a       16.0289
_cell_length_b       16.0289
_cell_length_c       9.4148
_cell_angle_alpha    90
_cell_angle_beta     90
_cell_angle_gamma    120

_symmetry_space_group_name_H-M    "P 1"
_symmetry_int_tables_number       1

loop_
  _symmetry_equiv_pos_as_xyz
  'x, y, z'

loop_
  _atom_site_label
  _atom_site_occupancy
  _atom_site_fract_x
  _atom_site_fract_y
  _atom_site_fract_z
  _atom_site_thermal_displace_type
  _atom_site_B_iso_or_equiv
  _atom_site_type_symbol
  Cu1      1.0000 0.38798  0.00000  0.00000  Biso   1.000  Cu
  Cu2      1.0000 0.00000  0.38798  0.00000  Biso   1.000  Cu
  Cu3      1.0000 0.61202  0.61202  0.00000  Biso   1.000  Cu
  Cu4      1.0000 0.05465  0.33333  0.33333  Biso   1.000  Cu
  Cu5      1.0000 0.66667  0.72131  0.33333  Biso   1.000  Cu
  Cu6      1.0000 0.27869  0.94535  0.33333  Biso   1.000  Cu
  Cu7      1.0000 0.72131  0.66667  0.66667  Biso   1.000  Cu
  Cu8      1.0000 0.33333  0.05465  0.66667  Biso   1.000  Cu
  Cu9      1.0000 0.94535  0.27869  0.66667  Biso   1.000  Cu
  Cu10     1.0000 0.61202  0.00000  0.00000  Biso   1.000  Cu
  Cu11     1.0000 0.00000  0.61202  0.00000  Biso   1.000  Cu
  Cu12     1.0000 0.38798  0.38798  0.00000  Biso   1.000  Cu
  Cu13     1.0000 0.27869  0.33333  0.33333  Biso   1.000  Cu
  Cu14     1.0000 0.66667  0.94535  0.33333  Biso   1.000  Cu
  Cu15     1.0000 0.05465  0.72131  0.33333  Biso   1.000  Cu
  Cu16     1.0000 0.94535  0.66667  0.66667  Biso   1.000  Cu
  Cu17     1.0000 0.33333  0.27869  0.66667  Biso   1.000  Cu
  Cu18     1.0000 0.72131  0.05465  0.66667  Biso   1.000  Cu
  C1       1.0000 0.23670  0.76330  0.83310  Biso   1.000  C
  C2       1.0000 0.23670  0.47340  0.83310  Biso   1.000  C
  C3       1.0000 0.52660  0.76330  0.83310  Biso   1.000  C
  C4       1.0000 0.76330  0.23670  0.16690  Biso   1.000  C
  C5       1.0000 0.90337  0.09663  0.16643  Biso   1.000  C
  C6       1.0000 0.90337  0.80673  0.16643  Biso   1.000  C
  C7       1.0000 0.19327  0.09663  0.16643  Biso   1.000  C
  C8       1.0000 0.42997  0.57003  0.50023  Biso   1.000  C
  C9       1.0000 0.57003  0.42997  0.49977  Biso   1.000  C
  C10      1.0000 0.09663  0.90337  0.83357  Biso   1.000  C
  C11      1.0000 0.47340  0.23670  0.16690  Biso   1.000  C
  C12      1.0000 0.76330  0.52660  0.16690  Biso   1.000  C
  C13      1.0000 0.57003  0.14007  0.49977  Biso   1.000  C
  C14      1.0000 0.85993  0.42997  0.49977  Biso   1.000  C
  C15      1.0000 0.80673  0.90337  0.83357  Biso   1.000  C
  C16      1.0000 0.09663  0.19327  0.83357  Biso   1.000  C
  C17      1.0000 0.14007  0.57003  0.50023  Biso   1.000  C
  C18      1.0000 0.42997  0.85993  0.50023  Biso   1.000  C
  N1       1.0000 0.26100  0.87590  0.03420  Biso   1.000  N
  N2       1.0000 0.12410  0.38510  0.03420  Biso   1.000  N
  N3       1.0000 0.61490  0.73900  0.03420  Biso   1.000  N
  N4       1.0000 0.87590  0.26100  0.96580  Biso   1.000  N
  N5       1.0000 0.92767  0.20923  0.36753  Biso   1.000  N
  N6       1.0000 0.79077  0.71843  0.36753  Biso   1.000  N
  N7       1.0000 0.28157  0.07233  0.36753  Biso   1.000  N
  N8       1.0000 0.54257  0.59433  0.29913  Biso   1.000  N
  N9       1.0000 0.59433  0.54257  0.70087  Biso   1.000  N
  N10      1.0000 0.20923  0.92767  0.63247  Biso   1.000  N
  N11      1.0000 0.38510  0.12410  0.96580  Biso   1.000  N
  N12      1.0000 0.73900  0.61490  0.96580  Biso   1.000  N
  N13      1.0000 0.45743  0.05177  0.70087  Biso   1.000  N
  N14      1.0000 0.94823  0.40567  0.70087  Biso   1.000  N
  N15      1.0000 0.71843  0.79077  0.63247  Biso   1.000  N
  N16      1.0000 0.07233  0.28157  0.63247  Biso   1.000  N
  N17      1.0000 0.05177  0.45743  0.29913  Biso   1.000  N
  N18      1.0000 0.40567  0.94823  0.29913  Biso   1.000  N
  N19      1.0000 0.73900  0.12410  0.96580  Biso   1.000  N
  N20      1.0000 0.87590  0.61490  0.96580  Biso   1.000  N
  N21      1.0000 0.38510  0.26100  0.96580  Biso   1.000  N
  N22      1.0000 0.12410  0.73900  0.03420  Biso   1.000  N
  N23      1.0000 0.40567  0.45743  0.29913  Biso   1.000  N
  N24      1.0000 0.54257  0.94823  0.29913  Biso   1.000  N
  N25      1.0000 0.05177  0.59433  0.29913  Biso   1.000  N
  N26      1.0000 0.79077  0.07233  0.36753  Biso   1.000  N
  N27      1.0000 0.07233  0.79077  0.63247  Biso   1.000  N
  N28      1.0000 0.45743  0.40567  0.70087  Biso   1.000  N
  N29      1.0000 0.61490  0.87590  0.03420  Biso   1.000  N
  N30      1.0000 0.26100  0.38510  0.03420  Biso   1.000  N
  N31      1.0000 0.20923  0.28157  0.63247  Biso   1.000  N
  N32      1.0000 0.71843  0.92767  0.63247  Biso   1.000  N
  N33      1.0000 0.94823  0.54257  0.70087  Biso   1.000  N
  N34      1.0000 0.59433  0.05177  0.70087  Biso   1.000  N
  N35      1.0000 0.28157  0.20923  0.36753  Biso   1.000  N
  N36      1.0000 0.92767  0.71843  0.36753  Biso   1.000  N
  N37      1.0000 0.21066  0.87095  0.15180  Biso   1.000  N
  N38      1.0000 0.12905  0.33971  0.15180  Biso   1.000  N
  N39      1.0000 0.66029  0.78934  0.15180  Biso   1.000  N
  N40      1.0000 0.87095  0.21066  0.84820  Biso   1.000  N
  N41      1.0000 0.87733  0.20428  0.48513  Biso   1.000  N
  N42      1.0000 0.79572  0.67304  0.48513  Biso   1.000  N
  N43      1.0000 0.32696  0.12267  0.48513  Biso   1.000  N
  N44      1.0000 0.53762  0.54399  0.18153  Biso   1.000  N
  N45      1.0000 0.54399  0.53762  0.81847  Biso   1.000  N
  N46      1.0000 0.20428  0.87733  0.51487  Biso   1.000  N
  N47      1.0000 0.33971  0.12905  0.84820  Biso   1.000  N
  N48      1.0000 0.78934  0.66029  0.84820  Biso   1.000  N
  N49      1.0000 0.46238  0.00638  0.81847  Biso   1.000  N
  N50      1.0000 0.99362  0.45601  0.81847  Biso   1.000  N
  N51      1.0000 0.67304  0.79572  0.51487  Biso   1.000  N
  N52      1.0000 0.12267  0.32696  0.51487  Biso   1.000  N
  N53      1.0000 0.00638  0.46238  0.18153  Biso   1.000  N
  N54      1.0000 0.45601  0.99362  0.18153  Biso   1.000  N
  N55      1.0000 0.78934  0.12905  0.84820  Biso   1.000  N
  N56      1.0000 0.87095  0.66029  0.84820  Biso   1.000  N
  N57      1.0000 0.33971  0.21066  0.84820  Biso   1.000  N
  N58      1.0000 0.12905  0.78934  0.15180  Biso   1.000  N
  N59      1.0000 0.45601  0.46238  0.18153  Biso   1.000  N
  N60      1.0000 0.53762  0.99362  0.18153  Biso   1.000  N
  N61      1.0000 0.00638  0.54399  0.18153  Biso   1.000  N
  N62      1.0000 0.79572  0.12267  0.48513  Biso   1.000  N
  N63      1.0000 0.12267  0.79572  0.51487  Biso   1.000  N
  N64      1.0000 0.46238  0.45601  0.81847  Biso   1.000  N
  N65      1.0000 0.66029  0.87095  0.15180  Biso   1.000  N
  N66      1.0000 0.21066  0.33971  0.15180  Biso   1.000  N
  N67      1.0000 0.20428  0.32696  0.51487  Biso   1.000  N
  N68      1.0000 0.67304  0.87733  0.51487  Biso   1.000  N
  N69      1.0000 0.99362  0.53762  0.81847  Biso   1.000  N
  N70      1.0000 0.54399  0.00638  0.81847  Biso   1.000  N
  N71      1.0000 0.32696  0.20428  0.48513  Biso   1.000  N
  N72      1.0000 0.87733  0.67304  0.48513  Biso   1.000  N
  C19      1.0000 0.20667  0.79333  0.96550  Biso   1.000  C
  C20      1.0000 0.20667  0.41334  0.96550  Biso   1.000  C
  C21      1.0000 0.58666  0.79333  0.96550  Biso   1.000  C
  C22      1.0000 0.79333  0.20667  0.03450  Biso   1.000  C
  C23      1.0000 0.87334  0.12666  0.29883  Biso   1.000  C
  C24      1.0000 0.87334  0.74667  0.29883  Biso   1.000  C
  C25      1.0000 0.25333  0.12666  0.29883  Biso   1.000  C
  C26      1.0000 0.46000  0.54000  0.36783  Biso   1.000  C
  C27      1.0000 0.54000  0.46000  0.63217  Biso   1.000  C
  C28      1.0000 0.12666  0.87334  0.70117  Biso   1.000  C
  C29      1.0000 0.41334  0.20667  0.03450  Biso   1.000  C
  C30      1.0000 0.79333  0.58666  0.03450  Biso   1.000  C
  C31      1.0000 0.54000  0.08001  0.63217  Biso   1.000  C
  C32      1.0000 0.91999  0.46000  0.63217  Biso   1.000  C
  C33      1.0000 0.74667  0.87334  0.70117  Biso   1.000  C
  C34      1.0000 0.12666  0.25333  0.70117  Biso   1.000  C
  C35      1.0000 0.08001  0.54000  0.36783  Biso   1.000  C
  C36      1.0000 0.46000  0.91999  0.36783  Biso   1.000  C
  O1       1.0000 0.00000  0.99997  0.50020  Biso   1.000  O
  O2       1.0000 0.66667  0.33330  0.83353  Biso   1.000  O
  O3       1.0000 0.33333  0.66664  0.16687  Biso   1.000  O
  H1       1.0000 0.29520  0.81660  0.79740  Biso   1.000  H
  H2       1.0000 0.18340  0.47860  0.79740  Biso   1.000  H
  H3       1.0000 0.52140  0.70480  0.79740  Biso   1.000  H
  H4       1.0000 0.81660  0.29520  0.20260  Biso   1.000  H
  H5       1.0000 0.96187  0.14993  0.13073  Biso   1.000  H
  H6       1.0000 0.85007  0.81193  0.13073  Biso   1.000  H
  H7       1.0000 0.18807  0.03813  0.13073  Biso   1.000  H
  H8       1.0000 0.48327  0.62853  0.53593  Biso   1.000  H
  H9       1.0000 0.62853  0.48327  0.46407  Biso   1.000  H
  H10      1.0000 0.14993  0.96187  0.86927  Biso   1.000  H
  H11      1.0000 0.47860  0.18340  0.20260  Biso   1.000  H
  H12      1.0000 0.70480  0.52140  0.20260  Biso   1.000  H
  H13      1.0000 0.51673  0.14527  0.46407  Biso   1.000  H
  H14      1.0000 0.85473  0.37147  0.46407  Biso   1.000  H
  H15      1.0000 0.81193  0.85007  0.86927  Biso   1.000  H
  H16      1.0000 0.03813  0.18807  0.86927  Biso   1.000  H
  H17      1.0000 0.14527  0.51673  0.53593  Biso   1.000  H
  H18      1.0000 0.37147  0.85473  0.53593  Biso   1.000  H
  H19      1.0000 0.70480  0.18340  0.20260  Biso   1.000  H
  H20      1.0000 0.81660  0.52140  0.20260  Biso   1.000  H
  H21      1.0000 0.47860  0.29520  0.20260  Biso   1.000  H
  H22      1.0000 0.18340  0.70480  0.79740  Biso   1.000  H
  H23      1.0000 0.37147  0.51673  0.53593  Biso   1.000  H
  H24      1.0000 0.48327  0.85473  0.53593  Biso   1.000  H
  H25      1.0000 0.14527  0.62853  0.53593  Biso   1.000  H
  H26      1.0000 0.85007  0.03813  0.13073  Biso   1.000  H
  H27      1.0000 0.03813  0.85007  0.86927  Biso   1.000  H
  H28      1.0000 0.51673  0.37147  0.46407  Biso   1.000  H
  H29      1.0000 0.52140  0.81660  0.79740  Biso   1.000  H
  H30      1.0000 0.29520  0.47860  0.79740  Biso   1.000  H
  H31      1.0000 0.14993  0.18807  0.86927  Biso   1.000  H
  H32      1.0000 0.81193  0.96187  0.86927  Biso   1.000  H
  H33      1.0000 0.85473  0.48327  0.46407  Biso   1.000  H
  H34      1.0000 0.62853  0.14527  0.46407  Biso   1.000  H
  H35      1.0000 0.18807  0.14993  0.13073  Biso   1.000  H
  H36      1.0000 0.96187  0.81193  0.13073  Biso   1.000  H
  H37      1.0000 0.18690  0.74340  0.76280  Biso   1.000  H
  H38      1.0000 0.25660  0.44350  0.76280  Biso   1.000  H
  H39      1.0000 0.55650  0.81310  0.76280  Biso   1.000  H
  H40      1.0000 0.74340  0.18690  0.23720  Biso   1.000  H
  H41      1.0000 0.85357  0.07673  0.09613  Biso   1.000  H
  H42      1.0000 0.92327  0.77683  0.09613  Biso   1.000  H
  H43      1.0000 0.22317  0.14643  0.09613  Biso   1.000  H
  H44      1.0000 0.41007  0.52023  0.57053  Biso   1.000  H
  H45      1.0000 0.52023  0.41007  0.42947  Biso   1.000  H
  H46      1.0000 0.07673  0.85357  0.90387  Biso   1.000  H
  H47      1.0000 0.44350  0.25660  0.23720  Biso   1.000  H
  H48      1.0000 0.81310  0.55650  0.23720  Biso   1.000  H
  H49      1.0000 0.58993  0.11017  0.42947  Biso   1.000  H
  H50      1.0000 0.88983  0.47977  0.42947  Biso   1.000  H
  H51      1.0000 0.77683  0.92327  0.90387  Biso   1.000  H
  H52      1.0000 0.14643  0.22317  0.90387  Biso   1.000  H
  H53      1.0000 0.11017  0.58993  0.57053  Biso   1.000  H
  H54      1.0000 0.47977  0.88983  0.57053  Biso   1.000  H
  H55      1.0000 0.81310  0.25660  0.23720  Biso   1.000  H
  H56      1.0000 0.74340  0.55650  0.23720  Biso   1.000  H
  H57      1.0000 0.44350  0.18690  0.23720  Biso   1.000  H
  H58      1.0000 0.25660  0.81310  0.76280  Biso   1.000  H
  H59      1.0000 0.47977  0.58993  0.57053  Biso   1.000  H
  H60      1.0000 0.41007  0.88983  0.57053  Biso   1.000  H
  H61      1.0000 0.11017  0.52023  0.57053  Biso   1.000  H
  H62      1.0000 0.92327  0.14643  0.09613  Biso   1.000  H
  H63      1.0000 0.14643  0.92327  0.90387  Biso   1.000  H
  H64      1.0000 0.58993  0.47977  0.42947  Biso   1.000  H
  H65      1.0000 0.55650  0.74340  0.76280  Biso   1.000  H
  H66      1.0000 0.18690  0.44350  0.76280  Biso   1.000  H
  H67      1.0000 0.07673  0.22317  0.90387  Biso   1.000  H
  H68      1.0000 0.77683  0.85357  0.90387  Biso   1.000  H
  H69      1.0000 0.88983  0.41007  0.42947  Biso   1.000  H
  H70      1.0000 0.52023  0.11017  0.42947  Biso   1.000  H
  H71      1.0000 0.22317  0.07673  0.09613  Biso   1.000  H
  H72      1.0000 0.85357  0.77683  0.09613  Biso   1.000  H
  H73      1.0000 0.24720  0.71070  0.85440  Biso   1.000  H
  H74      1.0000 0.28930  0.53650  0.85440  Biso   1.000  H
  H75      1.0000 0.46350  0.75280  0.85440  Biso   1.000  H
  H76      1.0000 0.71070  0.24720  0.14560  Biso   1.000  H
  H77      1.0000 0.91387  0.04403  0.18773  Biso   1.000  H
  H78      1.0000 0.95597  0.86983  0.18773  Biso   1.000  H
  H79      1.0000 0.13017  0.08613  0.18773  Biso   1.000  H
  H80      1.0000 0.37737  0.58053  0.47893  Biso   1.000  H
  H81      1.0000 0.58053  0.37737  0.52107  Biso   1.000  H
  H82      1.0000 0.04403  0.91387  0.81227  Biso   1.000  H
  H83      1.0000 0.53650  0.28930  0.14560  Biso   1.000  H
  H84      1.0000 0.75280  0.46350  0.14560  Biso   1.000  H
  H85      1.0000 0.62263  0.20317  0.52107  Biso   1.000  H
  H86      1.0000 0.79683  0.41947  0.52107  Biso   1.000  H
  H87      1.0000 0.86983  0.95597  0.81227  Biso   1.000  H
  H88      1.0000 0.08613  0.13017  0.81227  Biso   1.000  H
  H89      1.0000 0.20317  0.62263  0.47893  Biso   1.000  H
  H90      1.0000 0.41947  0.79683  0.47893  Biso   1.000  H
  H91      1.0000 0.75280  0.28930  0.14560  Biso   1.000  H
  H92      1.0000 0.71070  0.46350  0.14560  Biso   1.000  H
  H93      1.0000 0.53650  0.24720  0.14560  Biso   1.000  H
  H94      1.0000 0.28930  0.75280  0.85440  Biso   1.000  H
  H95      1.0000 0.41947  0.62263  0.47893  Biso   1.000  H
  H96      1.0000 0.37737  0.79683  0.47893  Biso   1.000  H
  H97      1.0000 0.20317  0.58053  0.47893  Biso   1.000  H
  H98      1.0000 0.95597  0.08613  0.18773  Biso   1.000  H
  H99      1.0000 0.08613  0.95597  0.81227  Biso   1.000  H
  H100     1.0000 0.62263  0.41947  0.52107  Biso   1.000  H
  H101     1.0000 0.46350  0.71070  0.85440  Biso   1.000  H
  H102     1.0000 0.24720  0.53650  0.85440  Biso   1.000  H
  H103     1.0000 0.04403  0.13017  0.81227  Biso   1.000  H
  H104     1.0000 0.86983  0.91387  0.81227  Biso   1.000  H
  H105     1.0000 0.79683  0.37737  0.52107  Biso   1.000  H
  H106     1.0000 0.58053  0.20317  0.52107  Biso   1.000  H
  H107     1.0000 0.13017  0.04403  0.18773  Biso   1.000  H
  H108     1.0000 0.91387  0.86983  0.18773  Biso   1.000  H
