data_image0
_cell_length_a       11.3787
_cell_length_b       13.5544
_cell_length_c       11.5748
_cell_angle_alpha    90
_cell_angle_beta     90
_cell_angle_gamma    90

_symmetry_space_group_name_H-M    "P 1"
_symmetry_int_tables_number       1

loop_
  _symmetry_equiv_pos_as_xyz
  'x, y, z'

loop_
  _atom_site_label
  _atom_site_occupancy
  _atom_site_fract_x
  _atom_site_fract_y
  _atom_site_fract_z
  _atom_site_thermal_displace_type
  _atom_site_B_iso_or_equiv
  _atom_site_type_symbol
  Cu1      1.0000 0.25000  0.25000  0.16100  Biso   1.000  Cu
  Cu2      1.0000 0.75000  0.75000  0.16100  Biso   1.000  Cu
  Cu3      1.0000 0.75000  0.25000  0.33900  Biso   1.000  Cu
  Cu4      1.0000 0.25000  0.75000  0.33900  Biso   1.000  Cu
  Cu5      1.0000 0.75000  0.75000  0.83900  Biso   1.000  Cu
  Cu6      1.0000 0.25000  0.25000  0.83900  Biso   1.000  Cu
  Cu7      1.0000 0.25000  0.75000  0.66100  Biso   1.000  Cu
  Cu8      1.0000 0.75000  0.25000  0.66100  Biso   1.000  Cu
  Cu9      1.0000 0.17062  0.50000  0.25000  Biso   1.000  Cu
  Cu10     1.0000 0.67062  0.00000  0.25000  Biso   1.000  Cu
  Cu11     1.0000 0.82938  0.50000  0.25000  Biso   1.000  Cu
  Cu12     1.0000 0.32938  0.00000  0.25000  Biso   1.000  Cu
  Cu13     1.0000 0.82938  0.50000  0.75000  Biso   1.000  Cu
  Cu14     1.0000 0.32938  0.00000  0.75000  Biso   1.000  Cu
  Cu15     1.0000 0.17062  0.50000  0.75000  Biso   1.000  Cu
  Cu16     1.0000 0.67062  0.00000  0.75000  Biso   1.000  Cu
  N1       1.0000 0.26113  0.37606  0.05651  Biso   1.000  N
  N2       1.0000 0.76113  0.87606  0.05651  Biso   1.000  N
  N3       1.0000 0.73887  0.62394  0.05651  Biso   1.000  N
  N4       1.0000 0.73887  0.37606  0.44349  Biso   1.000  N
  N5       1.0000 0.26113  0.62394  0.44349  Biso   1.000  N
  N6       1.0000 0.23887  0.12394  0.05651  Biso   1.000  N
  N7       1.0000 0.23887  0.87606  0.44349  Biso   1.000  N
  N8       1.0000 0.76113  0.12394  0.44349  Biso   1.000  N
  N9       1.0000 0.73887  0.62394  0.94349  Biso   1.000  N
  N10      1.0000 0.23887  0.12394  0.94349  Biso   1.000  N
  N11      1.0000 0.26113  0.37606  0.94349  Biso   1.000  N
  N12      1.0000 0.26113  0.62394  0.55651  Biso   1.000  N
  N13      1.0000 0.73887  0.37606  0.55651  Biso   1.000  N
  N14      1.0000 0.76113  0.87606  0.94349  Biso   1.000  N
  N15      1.0000 0.76113  0.12394  0.55651  Biso   1.000  N
  N16      1.0000 0.23887  0.87606  0.55651  Biso   1.000  N
  N17      1.0000 0.09508  0.28414  0.23453  Biso   1.000  N
  N18      1.0000 0.59508  0.78414  0.23453  Biso   1.000  N
  N19      1.0000 0.90492  0.71586  0.23453  Biso   1.000  N
  N20      1.0000 0.90492  0.28414  0.26547  Biso   1.000  N
  N21      1.0000 0.09508  0.71586  0.26547  Biso   1.000  N
  N22      1.0000 0.40492  0.21586  0.23453  Biso   1.000  N
  N23      1.0000 0.40492  0.78414  0.26547  Biso   1.000  N
  N24      1.0000 0.59508  0.21586  0.26547  Biso   1.000  N
  N25      1.0000 0.90492  0.71586  0.76547  Biso   1.000  N
  N26      1.0000 0.40492  0.21586  0.76547  Biso   1.000  N
  N27      1.0000 0.09508  0.28414  0.76547  Biso   1.000  N
  N28      1.0000 0.09508  0.71586  0.73453  Biso   1.000  N
  N29      1.0000 0.90492  0.28414  0.73453  Biso   1.000  N
  N30      1.0000 0.59508  0.78414  0.76547  Biso   1.000  N
  N31      1.0000 0.59508  0.21586  0.73453  Biso   1.000  N
  N32      1.0000 0.40492  0.78414  0.73453  Biso   1.000  N
  C1       1.0000 0.23800  0.52440  0.00000  Biso   1.000  C
  C2       1.0000 0.73800  0.02440  0.00000  Biso   1.000  C
  C3       1.0000 0.76200  0.47560  0.00000  Biso   1.000  C
  C4       1.0000 0.76200  0.52440  0.50000  Biso   1.000  C
  C5       1.0000 0.23800  0.47560  0.50000  Biso   1.000  C
  C6       1.0000 0.26200  0.97560  0.00000  Biso   1.000  C
  C7       1.0000 0.26200  0.02440  0.50000  Biso   1.000  C
  C8       1.0000 0.73800  0.97560  0.50000  Biso   1.000  C
  N33      1.0000 0.05653  0.37788  0.24158  Biso   1.000  N
  N34      1.0000 0.55653  0.87788  0.24158  Biso   1.000  N
  N35      1.0000 0.94347  0.62212  0.24158  Biso   1.000  N
  N36      1.0000 0.94347  0.37788  0.25842  Biso   1.000  N
  N37      1.0000 0.05653  0.62212  0.25842  Biso   1.000  N
  N38      1.0000 0.44347  0.12212  0.24158  Biso   1.000  N
  N39      1.0000 0.44347  0.87788  0.25842  Biso   1.000  N
  N40      1.0000 0.55653  0.12212  0.25842  Biso   1.000  N
  N41      1.0000 0.94347  0.62212  0.75842  Biso   1.000  N
  N42      1.0000 0.44347  0.12212  0.75842  Biso   1.000  N
  N43      1.0000 0.05653  0.37788  0.75842  Biso   1.000  N
  N44      1.0000 0.05653  0.62212  0.74158  Biso   1.000  N
  N45      1.0000 0.94347  0.37788  0.74158  Biso   1.000  N
  N46      1.0000 0.55653  0.87788  0.75842  Biso   1.000  N
  N47      1.0000 0.55653  0.12212  0.74158  Biso   1.000  N
  N48      1.0000 0.44347  0.87788  0.74158  Biso   1.000  N
  C9       1.0000 0.00000  0.22860  0.25000  Biso   1.000  C
  C10      1.0000 0.50000  0.72860  0.25000  Biso   1.000  C
  C11      1.0000 0.00000  0.77140  0.25000  Biso   1.000  C
  C12      1.0000 0.50000  0.27140  0.25000  Biso   1.000  C
  C13      1.0000 0.00000  0.77140  0.75000  Biso   1.000  C
  C14      1.0000 0.50000  0.27140  0.75000  Biso   1.000  C
  C15      1.0000 0.00000  0.22860  0.75000  Biso   1.000  C
  C16      1.0000 0.50000  0.72860  0.75000  Biso   1.000  C
  C17      1.0000 0.22300  0.63320  0.00000  Biso   1.000  C
  C18      1.0000 0.72300  0.13320  0.00000  Biso   1.000  C
  C19      1.0000 0.77700  0.36680  0.00000  Biso   1.000  C
  C20      1.0000 0.77700  0.63320  0.50000  Biso   1.000  C
  C21      1.0000 0.22300  0.36680  0.50000  Biso   1.000  C
  C22      1.0000 0.27700  0.86680  0.00000  Biso   1.000  C
  C23      1.0000 0.27700  0.13320  0.50000  Biso   1.000  C
  C24      1.0000 0.72300  0.86680  0.50000  Biso   1.000  C
  C25      1.0000 0.00000  0.11810  0.25000  Biso   1.000  C
  C26      1.0000 0.50000  0.61810  0.25000  Biso   1.000  C
  C27      1.0000 0.00000  0.88190  0.25000  Biso   1.000  C
  C28      1.0000 0.50000  0.38190  0.25000  Biso   1.000  C
  C29      1.0000 0.00000  0.88190  0.75000  Biso   1.000  C
  C30      1.0000 0.50000  0.38190  0.75000  Biso   1.000  C
  C31      1.0000 0.00000  0.11810  0.75000  Biso   1.000  C
  C32      1.0000 0.50000  0.61810  0.75000  Biso   1.000  C
  N49      1.0000 0.24583  0.46983  0.09481  Biso   1.000  N
  N50      1.0000 0.74583  0.96983  0.09481  Biso   1.000  N
  N51      1.0000 0.75417  0.53017  0.09481  Biso   1.000  N
  N52      1.0000 0.75417  0.46983  0.40519  Biso   1.000  N
  N53      1.0000 0.24583  0.53017  0.40519  Biso   1.000  N
  N54      1.0000 0.25417  0.03017  0.09481  Biso   1.000  N
  N55      1.0000 0.25417  0.96983  0.40519  Biso   1.000  N
  N56      1.0000 0.74583  0.03017  0.40519  Biso   1.000  N
  N57      1.0000 0.75417  0.53017  0.90519  Biso   1.000  N
  N58      1.0000 0.25417  0.03017  0.90519  Biso   1.000  N
  N59      1.0000 0.24583  0.46983  0.90519  Biso   1.000  N
  N60      1.0000 0.24583  0.53017  0.59481  Biso   1.000  N
  N61      1.0000 0.75417  0.46983  0.59481  Biso   1.000  N
  N62      1.0000 0.74583  0.96983  0.90519  Biso   1.000  N
  N63      1.0000 0.74583  0.03017  0.59481  Biso   1.000  N
  N64      1.0000 0.25417  0.96983  0.59481  Biso   1.000  N
  H1       1.0000 0.27770  0.66230  0.94680  Biso   1.000  H
  H2       1.0000 0.77770  0.16230  0.94680  Biso   1.000  H
  H3       1.0000 0.72230  0.33770  0.94680  Biso   1.000  H
  H4       1.0000 0.72230  0.66230  0.55320  Biso   1.000  H
  H5       1.0000 0.27770  0.33770  0.55320  Biso   1.000  H
  H6       1.0000 0.22230  0.83770  0.94680  Biso   1.000  H
  H7       1.0000 0.22230  0.16230  0.55320  Biso   1.000  H
  H8       1.0000 0.77770  0.83770  0.55320  Biso   1.000  H
  H9       1.0000 0.72230  0.33770  0.05320  Biso   1.000  H
  H10      1.0000 0.22230  0.83770  0.05320  Biso   1.000  H
  H11      1.0000 0.27770  0.66230  0.05320  Biso   1.000  H
  H12      1.0000 0.27770  0.33770  0.44680  Biso   1.000  H
  H13      1.0000 0.72230  0.66230  0.44680  Biso   1.000  H
  H14      1.0000 0.77770  0.16230  0.05320  Biso   1.000  H
  H15      1.0000 0.77770  0.83770  0.44680  Biso   1.000  H
  H16      1.0000 0.22230  0.16230  0.44680  Biso   1.000  H
  H17      1.0000 0.23730  0.65840  0.07620  Biso   1.000  H
  H18      1.0000 0.73730  0.15840  0.07620  Biso   1.000  H
  H19      1.0000 0.76270  0.34160  0.07620  Biso   1.000  H
  H20      1.0000 0.76270  0.65840  0.42380  Biso   1.000  H
  H21      1.0000 0.23730  0.34160  0.42380  Biso   1.000  H
  H22      1.0000 0.26270  0.84160  0.07620  Biso   1.000  H
  H23      1.0000 0.26270  0.15840  0.42380  Biso   1.000  H
  H24      1.0000 0.73730  0.84160  0.42380  Biso   1.000  H
  H25      1.0000 0.76270  0.34160  0.92380  Biso   1.000  H
  H26      1.0000 0.26270  0.84160  0.92380  Biso   1.000  H
  H27      1.0000 0.23730  0.65840  0.92380  Biso   1.000  H
  H28      1.0000 0.23730  0.34160  0.57620  Biso   1.000  H
  H29      1.0000 0.76270  0.65840  0.57620  Biso   1.000  H
  H30      1.0000 0.73730  0.15840  0.92380  Biso   1.000  H
  H31      1.0000 0.73730  0.84160  0.57620  Biso   1.000  H
  H32      1.0000 0.26270  0.15840  0.57620  Biso   1.000  H
  H33      1.0000 0.14430  0.64930  0.97690  Biso   1.000  H
  H34      1.0000 0.64430  0.14930  0.97690  Biso   1.000  H
  H35      1.0000 0.85570  0.35070  0.97690  Biso   1.000  H
  H36      1.0000 0.85570  0.64930  0.52310  Biso   1.000  H
  H37      1.0000 0.14430  0.35070  0.52310  Biso   1.000  H
  H38      1.0000 0.35570  0.85070  0.97690  Biso   1.000  H
  H39      1.0000 0.35570  0.14930  0.52310  Biso   1.000  H
  H40      1.0000 0.64430  0.85070  0.52310  Biso   1.000  H
  H41      1.0000 0.85570  0.35070  0.02310  Biso   1.000  H
  H42      1.0000 0.35570  0.85070  0.02310  Biso   1.000  H
  H43      1.0000 0.14430  0.64930  0.02310  Biso   1.000  H
  H44      1.0000 0.14430  0.35070  0.47690  Biso   1.000  H
  H45      1.0000 0.85570  0.64930  0.47690  Biso   1.000  H
  H46      1.0000 0.64430  0.14930  0.02310  Biso   1.000  H
  H47      1.0000 0.64430  0.85070  0.47690  Biso   1.000  H
  H48      1.0000 0.35570  0.14930  0.47690  Biso   1.000  H
  H49      1.0000 0.07770  0.09450  0.23340  Biso   1.000  H
  H50      1.0000 0.57770  0.59450  0.23340  Biso   1.000  H
  H51      1.0000 0.92230  0.90550  0.23340  Biso   1.000  H
  H52      1.0000 0.92230  0.09450  0.26660  Biso   1.000  H
  H53      1.0000 0.07770  0.90550  0.26660  Biso   1.000  H
  H54      1.0000 0.42230  0.40550  0.23340  Biso   1.000  H
  H55      1.0000 0.42230  0.59450  0.26660  Biso   1.000  H
  H56      1.0000 0.57770  0.40550  0.26660  Biso   1.000  H
  H57      1.0000 0.92230  0.90550  0.76660  Biso   1.000  H
  H58      1.0000 0.42230  0.40550  0.76660  Biso   1.000  H
  H59      1.0000 0.07770  0.09450  0.76660  Biso   1.000  H
  H60      1.0000 0.07770  0.90550  0.73340  Biso   1.000  H
  H61      1.0000 0.92230  0.09450  0.73340  Biso   1.000  H
  H62      1.0000 0.57770  0.59450  0.76660  Biso   1.000  H
  H63      1.0000 0.57770  0.40550  0.73340  Biso   1.000  H
  H64      1.0000 0.42230  0.59450  0.73340  Biso   1.000  H
  H65      1.0000 0.94650  0.09450  0.19210  Biso   1.000  H
  H66      1.0000 0.44650  0.59450  0.19210  Biso   1.000  H
  H67      1.0000 0.05350  0.90550  0.19210  Biso   1.000  H
  H68      1.0000 0.05350  0.09450  0.30790  Biso   1.000  H
  H69      1.0000 0.94650  0.90550  0.30790  Biso   1.000  H
  H70      1.0000 0.55350  0.40550  0.19210  Biso   1.000  H
  H71      1.0000 0.55350  0.59450  0.30790  Biso   1.000  H
  H72      1.0000 0.44650  0.40550  0.30790  Biso   1.000  H
  H73      1.0000 0.05350  0.90550  0.80790  Biso   1.000  H
  H74      1.0000 0.55350  0.40550  0.80790  Biso   1.000  H
  H75      1.0000 0.94650  0.09450  0.80790  Biso   1.000  H
  H76      1.0000 0.94650  0.90550  0.69210  Biso   1.000  H
  H77      1.0000 0.05350  0.09450  0.69210  Biso   1.000  H
  H78      1.0000 0.44650  0.59450  0.80790  Biso   1.000  H
  H79      1.0000 0.44650  0.40550  0.69210  Biso   1.000  H
  H80      1.0000 0.55350  0.59450  0.69210  Biso   1.000  H
  H81      1.0000 0.97580  0.09450  0.32450  Biso   1.000  H
  H82      1.0000 0.47580  0.59450  0.32450  Biso   1.000  H
  H83      1.0000 0.02420  0.90550  0.32450  Biso   1.000  H
  H84      1.0000 0.02420  0.09450  0.17550  Biso   1.000  H
  H85      1.0000 0.97580  0.90550  0.17550  Biso   1.000  H
  H86      1.0000 0.52420  0.40550  0.32450  Biso   1.000  H
  H87      1.0000 0.52420  0.59450  0.17550  Biso   1.000  H
  H88      1.0000 0.47580  0.40550  0.17550  Biso   1.000  H
  H89      1.0000 0.02420  0.90550  0.67550  Biso   1.000  H
  H90      1.0000 0.52420  0.40550  0.67550  Biso   1.000  H
  H91      1.0000 0.97580  0.09450  0.67550  Biso   1.000  H
  H92      1.0000 0.97580  0.90550  0.82450  Biso   1.000  H
  H93      1.0000 0.02420  0.09450  0.82450  Biso   1.000  H
  H94      1.0000 0.47580  0.59450  0.67550  Biso   1.000  H
  H95      1.0000 0.47580  0.40550  0.82450  Biso   1.000  H
  H96      1.0000 0.52420  0.59450  0.82450  Biso   1.000  H
