data_image0
_cell_length_a       13.495
_cell_length_b       4.1059
_cell_length_c       16.727
_cell_angle_alpha    90
_cell_angle_beta     109.626
_cell_angle_gamma    90

_symmetry_space_group_name_H-M    "P 1"
_symmetry_int_tables_number       1

loop_
  _symmetry_equiv_pos_as_xyz
  'x, y, z'

loop_
  _atom_site_label
  _atom_site_occupancy
  _atom_site_fract_x
  _atom_site_fract_y
  _atom_site_fract_z
  _atom_site_thermal_displace_type
  _atom_site_B_iso_or_equiv
  _atom_site_type_symbol
  I1       1.0000 0.61534  0.42444  0.86028  Biso   1.000  I
  I2       1.0000 0.61534  0.07556  0.36028  Biso   1.000  I
  I3       1.0000 0.38466  0.57556  0.13972  Biso   1.000  I
  I4       1.0000 0.38466  0.92444  0.63972  Biso   1.000  I
  Cu1      1.0000 0.42396  0.43950  0.74643  Biso   1.000  Cu
  Cu2      1.0000 0.42396  0.06050  0.24643  Biso   1.000  Cu
  Cu3      1.0000 0.57604  0.56050  0.25357  Biso   1.000  Cu
  Cu4      1.0000 0.57604  0.93950  0.75357  Biso   1.000  Cu
  N1       1.0000 0.31830  0.37190  0.80790  Biso   1.000  N
  N2       1.0000 0.31830  0.12810  0.30790  Biso   1.000  N
  N3       1.0000 0.68170  0.62810  0.19210  Biso   1.000  N
  N4       1.0000 0.68170  0.87190  0.69210  Biso   1.000  N
  C1       1.0000 0.34830  0.21450  0.88260  Biso   1.000  C
  C2       1.0000 0.34830  0.28550  0.38260  Biso   1.000  C
  C3       1.0000 0.65170  0.78550  0.11740  Biso   1.000  C
  C4       1.0000 0.65170  0.71450  0.61740  Biso   1.000  C
  H1       1.0000 0.41860  0.15570  0.90690  Biso   1.000  H
  H2       1.0000 0.41860  0.34430  0.40690  Biso   1.000  H
  H3       1.0000 0.58140  0.84430  0.09310  Biso   1.000  H
  H4       1.0000 0.58140  0.65570  0.59310  Biso   1.000  H
  C5       1.0000 0.27930  0.13540  0.92520  Biso   1.000  C
  C6       1.0000 0.27930  0.36460  0.42520  Biso   1.000  C
  C7       1.0000 0.72070  0.86460  0.07480  Biso   1.000  C
  C8       1.0000 0.72070  0.63540  0.57480  Biso   1.000  C
  H5       1.0000 0.30330  0.02640  0.97690  Biso   1.000  H
  H6       1.0000 0.30330  0.47360  0.47690  Biso   1.000  H
  H7       1.0000 0.69670  0.97360  0.02310  Biso   1.000  H
  H8       1.0000 0.69670  0.52640  0.52310  Biso   1.000  H
  C9       1.0000 0.17460  0.22080  0.88980  Biso   1.000  C
  C10      1.0000 0.17460  0.27920  0.38980  Biso   1.000  C
  C11      1.0000 0.82540  0.77920  0.11020  Biso   1.000  C
  C12      1.0000 0.82540  0.72080  0.61020  Biso   1.000  C
  C13      1.0000 0.14230  0.38370  0.81240  Biso   1.000  C
  C14      1.0000 0.14230  0.11630  0.31240  Biso   1.000  C
  C15      1.0000 0.85770  0.61630  0.18760  Biso   1.000  C
  C16      1.0000 0.85770  0.88370  0.68760  Biso   1.000  C
  H9       1.0000 0.07230  0.44320  0.78670  Biso   1.000  H
  H10      1.0000 0.07230  0.05680  0.28670  Biso   1.000  H
  H11      1.0000 0.92770  0.55680  0.21330  Biso   1.000  H
  H12      1.0000 0.92770  0.94320  0.71330  Biso   1.000  H
  C17      1.0000 0.21640  0.45600  0.77430  Biso   1.000  C
  C18      1.0000 0.21640  0.04400  0.27430  Biso   1.000  C
  C19      1.0000 0.78360  0.54400  0.22570  Biso   1.000  C
  C20      1.0000 0.78360  0.95600  0.72570  Biso   1.000  C
  H13      1.0000 0.19450  0.56800  0.72290  Biso   1.000  H
  H14      1.0000 0.19450  0.93200  0.22290  Biso   1.000  H
  H15      1.0000 0.80550  0.43200  0.27710  Biso   1.000  H
  H16      1.0000 0.80550  0.06800  0.77710  Biso   1.000  H
  C21      1.0000 0.09520  0.13110  0.93210  Biso   1.000  C
  C22      1.0000 0.09520  0.36890  0.43210  Biso   1.000  C
  C23      1.0000 0.90480  0.86890  0.06790  Biso   1.000  C
  C24      1.0000 0.90480  0.63110  0.56790  Biso   1.000  C
  N5       1.0000 0.13070  0.13800  0.01690  Biso   1.000  N
  N6       1.0000 0.13070  0.36200  0.51690  Biso   1.000  N
  N7       1.0000 0.86930  0.86200  0.98310  Biso   1.000  N
  N8       1.0000 0.86930  0.63800  0.48310  Biso   1.000  N
  H17      1.0000 0.09990  0.06800  0.06140  Biso   1.000  H
  H18      1.0000 0.09990  0.43200  0.56140  Biso   1.000  H
  H19      1.0000 0.90010  0.93200  0.93860  Biso   1.000  H
  H20      1.0000 0.90010  0.56800  0.43860  Biso   1.000  H
  H21      1.0000 0.19440  0.30150  0.04830  Biso   1.000  H
  H22      1.0000 0.19440  0.19850  0.54830  Biso   1.000  H
  H23      1.0000 0.80560  0.69850  0.95170  Biso   1.000  H
  H24      1.0000 0.80560  0.80150  0.45170  Biso   1.000  H
  O1       1.0000 0.00550  0.06700  0.89120  Biso   1.000  O
  O2       1.0000 0.00550  0.43300  0.39120  Biso   1.000  O
  O3       1.0000 0.99450  0.93300  0.10880  Biso   1.000  O
  O4       1.0000 0.99450  0.56700  0.60880  Biso   1.000  O
