data_image0
_cell_length_a       13.5444
_cell_length_b       4.1098
_cell_length_c       15.094
_cell_angle_alpha    90
_cell_angle_beta     105.583
_cell_angle_gamma    90

_symmetry_space_group_name_H-M    "P 1"
_symmetry_int_tables_number       1

loop_
  _symmetry_equiv_pos_as_xyz
  'x, y, z'

loop_
  _atom_site_label
  _atom_site_occupancy
  _atom_site_fract_x
  _atom_site_fract_y
  _atom_site_fract_z
  _atom_site_thermal_displace_type
  _atom_site_B_iso_or_equiv
  _atom_site_type_symbol
  I1       1.0000 0.44077  0.14481  0.35800  Biso   1.000  I
  I2       1.0000 0.44077  0.35519  0.85800  Biso   1.000  I
  I3       1.0000 0.55923  0.85519  0.64200  Biso   1.000  I
  I4       1.0000 0.55923  0.64481  0.14200  Biso   1.000  I
  Cu1      1.0000 0.46026  0.14228  0.18916  Biso   1.000  Cu
  Cu2      1.0000 0.46026  0.35772  0.68916  Biso   1.000  Cu
  Cu3      1.0000 0.53974  0.85772  0.81084  Biso   1.000  Cu
  Cu4      1.0000 0.53974  0.64228  0.31084  Biso   1.000  Cu
  O1       1.0000 0.09808  0.63670  0.73416  Biso   1.000  O
  O2       1.0000 0.09808  0.86330  0.23416  Biso   1.000  O
  O3       1.0000 0.90192  0.36330  0.26584  Biso   1.000  O
  O4       1.0000 0.90192  0.13670  0.76584  Biso   1.000  O
  H1       1.0000 0.04230  0.51860  0.71640  Biso   1.000  H
  H2       1.0000 0.04230  0.98140  0.21640  Biso   1.000  H
  H3       1.0000 0.95770  0.48140  0.28360  Biso   1.000  H
  H4       1.0000 0.95770  0.01860  0.78360  Biso   1.000  H
  N1       1.0000 0.31430  0.14770  0.10211  Biso   1.000  N
  N2       1.0000 0.31430  0.35230  0.60211  Biso   1.000  N
  N3       1.0000 0.68570  0.85230  0.89789  Biso   1.000  N
  N4       1.0000 0.68570  0.64770  0.39789  Biso   1.000  N
  N5       1.0000 0.09282  0.80410  0.81419  Biso   1.000  N
  N6       1.0000 0.09282  0.69590  0.31419  Biso   1.000  N
  N7       1.0000 0.90718  0.19590  0.18581  Biso   1.000  N
  N8       1.0000 0.90718  0.30410  0.68581  Biso   1.000  N
  C1       1.0000 0.29390  0.01450  0.01794  Biso   1.000  C
  C2       1.0000 0.29390  0.48550  0.51794  Biso   1.000  C
  C3       1.0000 0.70610  0.98550  0.98206  Biso   1.000  C
  C4       1.0000 0.70610  0.51450  0.48206  Biso   1.000  C
  H5       1.0000 0.34590  0.90680  0.99380  Biso   1.000  H
  H6       1.0000 0.34590  0.59320  0.49380  Biso   1.000  H
  H7       1.0000 0.65410  0.09320  0.00620  Biso   1.000  H
  H8       1.0000 0.65410  0.40680  0.50620  Biso   1.000  H
  C5       1.0000 0.19660  0.01620  0.95583  Biso   1.000  C
  C6       1.0000 0.19660  0.48380  0.45583  Biso   1.000  C
  C7       1.0000 0.80340  0.98380  0.04417  Biso   1.000  C
  C8       1.0000 0.80340  0.51620  0.54417  Biso   1.000  C
  C9       1.0000 0.11770  0.16920  0.98320  Biso   1.000  C
  C10      1.0000 0.11770  0.33080  0.48320  Biso   1.000  C
  C11      1.0000 0.88230  0.83080  0.01680  Biso   1.000  C
  C12      1.0000 0.88230  0.66920  0.51680  Biso   1.000  C
  H9       1.0000 0.04730  0.17100  0.94380  Biso   1.000  H
  H10      1.0000 0.04730  0.32900  0.44380  Biso   1.000  H
  H11      1.0000 0.95270  0.82900  0.05620  Biso   1.000  H
  H12      1.0000 0.95270  0.67100  0.55620  Biso   1.000  H
  C13      1.0000 0.13840  0.30790  0.06930  Biso   1.000  C
  C14      1.0000 0.13840  0.19210  0.56930  Biso   1.000  C
  C15      1.0000 0.86160  0.69210  0.93070  Biso   1.000  C
  C16      1.0000 0.86160  0.80790  0.43070  Biso   1.000  C
  H13      1.0000 0.08930  0.41430  0.09230  Biso   1.000  H
  H14      1.0000 0.08930  0.08570  0.59230  Biso   1.000  H
  H15      1.0000 0.91070  0.58570  0.90770  Biso   1.000  H
  H16      1.0000 0.91070  0.91430  0.40770  Biso   1.000  H
  C17      1.0000 0.23750  0.29510  0.12650  Biso   1.000  C
  C18      1.0000 0.23750  0.20490  0.62650  Biso   1.000  C
  C19      1.0000 0.76250  0.70490  0.87350  Biso   1.000  C
  C20      1.0000 0.76250  0.79510  0.37350  Biso   1.000  C
  H17      1.0000 0.24350  0.36260  0.18070  Biso   1.000  H
  H18      1.0000 0.24350  0.13740  0.68070  Biso   1.000  H
  H19      1.0000 0.75650  0.63740  0.81930  Biso   1.000  H
  H20      1.0000 0.75650  0.86260  0.31930  Biso   1.000  H
  C21      1.0000 0.18250  0.84930  0.86790  Biso   1.000  C
  C22      1.0000 0.18250  0.65070  0.36790  Biso   1.000  C
  C23      1.0000 0.81750  0.15070  0.13210  Biso   1.000  C
  C24      1.0000 0.81750  0.34930  0.63210  Biso   1.000  C
  H21      1.0000 0.23770  0.78880  0.84800  Biso   1.000  H
  H22      1.0000 0.23770  0.71120  0.34800  Biso   1.000  H
  H23      1.0000 0.76230  0.21120  0.15200  Biso   1.000  H
  H24      1.0000 0.76230  0.28880  0.65200  Biso   1.000  H
