data_image0
_cell_length_a       8.587
_cell_length_b       11.444
_cell_length_c       12.591
_cell_angle_alpha    90
_cell_angle_beta     101.033
_cell_angle_gamma    90

_symmetry_space_group_name_H-M    "P 1"
_symmetry_int_tables_number       1

loop_
  _symmetry_equiv_pos_as_xyz
  'x, y, z'

loop_
  _atom_site_label
  _atom_site_occupancy
  _atom_site_fract_x
  _atom_site_fract_y
  _atom_site_fract_z
  _atom_site_thermal_displace_type
  _atom_site_B_iso_or_equiv
  _atom_site_type_symbol
  Cu1      1.0000 0.03050  0.90250  0.54220  Biso   1.000  Cu
  Cu2      1.0000 0.46950  0.40250  0.95780  Biso   1.000  Cu
  Cu3      1.0000 0.96950  0.09750  0.45780  Biso   1.000  Cu
  Cu4      1.0000 0.53050  0.59750  0.04220  Biso   1.000  Cu
  Cu5      1.0000 0.64010  0.65020  0.67800  Biso   1.000  Cu
  Cu6      1.0000 0.85990  0.15020  0.82200  Biso   1.000  Cu
  Cu7      1.0000 0.35990  0.34980  0.32200  Biso   1.000  Cu
  Cu8      1.0000 0.14010  0.84980  0.17800  Biso   1.000  Cu
  C1       1.0000 0.88750  0.79300  0.59270  Biso   1.000  C
  C2       1.0000 0.61250  0.29300  0.90730  Biso   1.000  C
  C3       1.0000 0.11250  0.20700  0.40730  Biso   1.000  C
  C4       1.0000 0.38750  0.70700  0.09270  Biso   1.000  C
  C5       1.0000 0.79870  0.73270  0.62430  Biso   1.000  C
  C6       1.0000 0.70130  0.23270  0.87570  Biso   1.000  C
  C7       1.0000 0.20130  0.26730  0.37570  Biso   1.000  C
  C8       1.0000 0.29870  0.76730  0.12430  Biso   1.000  C
  C9       1.0000 0.90250  0.09470  0.68750  Biso   1.000  C
  C10      1.0000 0.59750  0.59470  0.81250  Biso   1.000  C
  C11      1.0000 0.09750  0.90530  0.31250  Biso   1.000  C
  C12      1.0000 0.40250  0.40530  0.18750  Biso   1.000  C
  C13      1.0000 0.56600  0.57830  0.89590  Biso   1.000  C
  C14      1.0000 0.93400  0.07830  0.60410  Biso   1.000  C
  C15      1.0000 0.43400  0.42170  0.10410  Biso   1.000  C
  C16      1.0000 0.06600  0.92170  0.39590  Biso   1.000  C
  C17      1.0000 0.94160  0.86460  0.95700  Biso   1.000  C
  C18      1.0000 0.55840  0.36460  0.54300  Biso   1.000  C
  C19      1.0000 0.05840  0.13540  0.04300  Biso   1.000  C
  C20      1.0000 0.44160  0.63540  0.45700  Biso   1.000  C
  C21      1.0000 0.80990  0.87620  0.87520  Biso   1.000  C
  C22      1.0000 0.69010  0.37620  0.62480  Biso   1.000  C
  C23      1.0000 0.19010  0.12380  0.12480  Biso   1.000  C
  C24      1.0000 0.30990  0.62380  0.37520  Biso   1.000  C
  C25      1.0000 0.66020  0.88860  0.90190  Biso   1.000  C
  C26      1.0000 0.83980  0.38860  0.59810  Biso   1.000  C
  C27      1.0000 0.33980  0.11140  0.09810  Biso   1.000  C
  C28      1.0000 0.16020  0.61140  0.40190  Biso   1.000  C
  C29      1.0000 0.65310  0.89160  0.01220  Biso   1.000  C
  C30      1.0000 0.84690  0.39160  0.48780  Biso   1.000  C
  C31      1.0000 0.34690  0.10840  0.98780  Biso   1.000  C
  C32      1.0000 0.15310  0.60840  0.51220  Biso   1.000  C
  C33      1.0000 0.79150  0.88290  0.08870  Biso   1.000  C
  C34      1.0000 0.70850  0.38290  0.41130  Biso   1.000  C
  C35      1.0000 0.20850  0.11710  0.91130  Biso   1.000  C
  C36      1.0000 0.29150  0.61710  0.58870  Biso   1.000  C
  C37      1.0000 0.51450  0.89520  0.81750  Biso   1.000  C
  C38      1.0000 0.98550  0.39520  0.68250  Biso   1.000  C
  C39      1.0000 0.48550  0.10480  0.18250  Biso   1.000  C
  C40      1.0000 0.01450  0.60480  0.31750  Biso   1.000  C
  C41      1.0000 0.51240  0.94840  0.71770  Biso   1.000  C
  C42      1.0000 0.98760  0.44840  0.78230  Biso   1.000  C
  C43      1.0000 0.48760  0.05160  0.28230  Biso   1.000  C
  C44      1.0000 0.01240  0.55160  0.21770  Biso   1.000  C
  C45      1.0000 0.37300  0.95010  0.64140  Biso   1.000  C
  C46      1.0000 0.12700  0.45010  0.85860  Biso   1.000  C
  C47      1.0000 0.62700  0.04990  0.35860  Biso   1.000  C
  C48      1.0000 0.87300  0.54990  0.14140  Biso   1.000  C
  C49      1.0000 0.37220  0.84510  0.83520  Biso   1.000  C
  C50      1.0000 0.12780  0.34510  0.66480  Biso   1.000  C
  C51      1.0000 0.62780  0.15490  0.16480  Biso   1.000  C
  C52      1.0000 0.87220  0.65490  0.33520  Biso   1.000  C
  C53      1.0000 0.23890  0.85000  0.75380  Biso   1.000  C
  C54      1.0000 0.26110  0.35000  0.74620  Biso   1.000  C
  C55      1.0000 0.76110  0.15000  0.24620  Biso   1.000  C
  C56      1.0000 0.73890  0.65000  0.25380  Biso   1.000  C
  N1       1.0000 0.93510  0.86840  0.06280  Biso   1.000  N
  N2       1.0000 0.56490  0.36840  0.43720  Biso   1.000  N
  N3       1.0000 0.06490  0.13160  0.93720  Biso   1.000  N
  N4       1.0000 0.43510  0.63160  0.56280  Biso   1.000  N
  N5       1.0000 0.23690  0.90140  0.65780  Biso   1.000  N
  N6       1.0000 0.26310  0.40140  0.84220  Biso   1.000  N
  N7       1.0000 0.76310  0.09860  0.34220  Biso   1.000  N
  N8       1.0000 0.73690  0.59860  0.15780  Biso   1.000  N
  H1       1.0000 0.03990  0.85350  0.93790  Biso   1.000  H
  H2       1.0000 0.46010  0.35350  0.56210  Biso   1.000  H
  H3       1.0000 0.96010  0.14650  0.06210  Biso   1.000  H
  H4       1.0000 0.53990  0.64650  0.43790  Biso   1.000  H
  H5       1.0000 0.82080  0.87580  0.80320  Biso   1.000  H
  H6       1.0000 0.67920  0.37580  0.69680  Biso   1.000  H
  H7       1.0000 0.17920  0.12420  0.19680  Biso   1.000  H
  H8       1.0000 0.32080  0.62420  0.30320  Biso   1.000  H
  H9       1.0000 0.55600  0.89930  0.03370  Biso   1.000  H
  H10      1.0000 0.94400  0.39930  0.46630  Biso   1.000  H
  H11      1.0000 0.44400  0.10070  0.96630  Biso   1.000  H
  H12      1.0000 0.05600  0.60070  0.53370  Biso   1.000  H
  H13      1.0000 0.78500  0.88740  0.16140  Biso   1.000  H
  H14      1.0000 0.71500  0.38740  0.33860  Biso   1.000  H
  H15      1.0000 0.21500  0.11260  0.83860  Biso   1.000  H
  H16      1.0000 0.28500  0.61260  0.66140  Biso   1.000  H
  H17      1.0000 0.60400  0.98240  0.70250  Biso   1.000  H
  H18      1.0000 0.89600  0.48240  0.79750  Biso   1.000  H
  H19      1.0000 0.39600  0.01760  0.29750  Biso   1.000  H
  H20      1.0000 0.10400  0.51760  0.20250  Biso   1.000  H
  H21      1.0000 0.37340  0.98670  0.57550  Biso   1.000  H
  H22      1.0000 0.12660  0.48670  0.92450  Biso   1.000  H
  H23      1.0000 0.62660  0.01330  0.42450  Biso   1.000  H
  H24      1.0000 0.87340  0.51330  0.07550  Biso   1.000  H
  H25      1.0000 0.36770  0.80910  0.90070  Biso   1.000  H
  H26      1.0000 0.13230  0.30910  0.59930  Biso   1.000  H
  H27      1.0000 0.63230  0.19090  0.09930  Biso   1.000  H
  H28      1.0000 0.86770  0.69090  0.40070  Biso   1.000  H
  H29      1.0000 0.14580  0.81580  0.76620  Biso   1.000  H
  H30      1.0000 0.35420  0.31580  0.73380  Biso   1.000  H
  H31      1.0000 0.85420  0.18420  0.23380  Biso   1.000  H
  H32      1.0000 0.64580  0.68420  0.26620  Biso   1.000  H
