data_image0
_cell_length_a       8.5451
_cell_length_b       11.6761
_cell_length_c       12.5593
_cell_angle_alpha    90
_cell_angle_beta     100.911
_cell_angle_gamma    90

_symmetry_space_group_name_H-M    "P 1"
_symmetry_int_tables_number       1

loop_
  _symmetry_equiv_pos_as_xyz
  'x, y, z'

loop_
  _atom_site_label
  _atom_site_occupancy
  _atom_site_fract_x
  _atom_site_fract_y
  _atom_site_fract_z
  _atom_site_thermal_displace_type
  _atom_site_B_iso_or_equiv
  _atom_site_type_symbol
  Cu1      1.0000 0.02888  0.90337  0.54165  Biso   1.000  Cu
  Cu2      1.0000 0.47112  0.40337  0.95835  Biso   1.000  Cu
  Cu3      1.0000 0.97112  0.09663  0.45835  Biso   1.000  Cu
  Cu4      1.0000 0.52888  0.59663  0.04165  Biso   1.000  Cu
  Cu5      1.0000 0.85816  0.15350  0.82116  Biso   1.000  Cu
  Cu6      1.0000 0.64184  0.65350  0.67884  Biso   1.000  Cu
  Cu7      1.0000 0.14184  0.84650  0.17884  Biso   1.000  Cu
  Cu8      1.0000 0.35816  0.34650  0.32116  Biso   1.000  Cu
  N1       1.0000 0.90100  0.09695  0.68669  Biso   1.000  N
  N2       1.0000 0.59900  0.59695  0.81331  Biso   1.000  N
  N3       1.0000 0.09900  0.90305  0.31331  Biso   1.000  N
  N4       1.0000 0.40100  0.40305  0.18669  Biso   1.000  N
  N5       1.0000 0.79910  0.73680  0.62363  Biso   1.000  N
  N6       1.0000 0.70090  0.23680  0.87637  Biso   1.000  N
  N7       1.0000 0.20090  0.26320  0.37637  Biso   1.000  N
  N8       1.0000 0.29910  0.76320  0.12363  Biso   1.000  N
  N9       1.0000 0.23660  0.90226  0.65789  Biso   1.000  N
  N10      1.0000 0.26340  0.40226  0.84211  Biso   1.000  N
  N11      1.0000 0.76340  0.09774  0.34211  Biso   1.000  N
  N12      1.0000 0.73660  0.59774  0.15789  Biso   1.000  N
  N13      1.0000 0.93610  0.86780  0.06304  Biso   1.000  N
  N14      1.0000 0.56390  0.36780  0.43696  Biso   1.000  N
  N15      1.0000 0.06390  0.13220  0.93696  Biso   1.000  N
  N16      1.0000 0.43610  0.63220  0.56304  Biso   1.000  N
  C1       1.0000 0.93270  0.07930  0.60420  Biso   1.000  C
  C2       1.0000 0.56730  0.57930  0.89580  Biso   1.000  C
  C3       1.0000 0.06730  0.92070  0.39580  Biso   1.000  C
  C4       1.0000 0.43270  0.42070  0.10420  Biso   1.000  C
  C5       1.0000 0.88520  0.79600  0.59161  Biso   1.000  C
  C6       1.0000 0.61480  0.29600  0.90839  Biso   1.000  C
  C7       1.0000 0.11480  0.20400  0.40839  Biso   1.000  C
  C8       1.0000 0.38520  0.70400  0.09161  Biso   1.000  C
  C9       1.0000 0.79170  0.88200  0.08880  Biso   1.000  C
  C10      1.0000 0.70830  0.38200  0.41120  Biso   1.000  C
  C11      1.0000 0.20830  0.11800  0.91120  Biso   1.000  C
  C12      1.0000 0.29170  0.61800  0.58880  Biso   1.000  C
  H1       1.0000 0.78480  0.88590  0.16170  Biso   1.000  H
  H2       1.0000 0.71520  0.38590  0.33830  Biso   1.000  H
  H3       1.0000 0.21520  0.11410  0.83830  Biso   1.000  H
  H4       1.0000 0.28480  0.61410  0.66170  Biso   1.000  H
  C13      1.0000 0.65360  0.89110  0.01270  Biso   1.000  C
  C14      1.0000 0.84640  0.39110  0.48730  Biso   1.000  C
  C15      1.0000 0.34640  0.10890  0.98730  Biso   1.000  C
  C16      1.0000 0.15360  0.60890  0.51270  Biso   1.000  C
  H5       1.0000 0.55610  0.89870  0.03450  Biso   1.000  H
  H6       1.0000 0.94390  0.39870  0.46550  Biso   1.000  H
  H7       1.0000 0.44390  0.10130  0.96550  Biso   1.000  H
  H8       1.0000 0.05610  0.60130  0.53450  Biso   1.000  H
  C17      1.0000 0.66020  0.88900  0.90210  Biso   1.000  C
  C18      1.0000 0.83980  0.38900  0.59790  Biso   1.000  C
  C19      1.0000 0.33980  0.11100  0.09790  Biso   1.000  C
  C20      1.0000 0.16020  0.61100  0.40210  Biso   1.000  C
  C21      1.0000 0.81080  0.87760  0.87590  Biso   1.000  C
  C22      1.0000 0.68920  0.37760  0.62410  Biso   1.000  C
  C23      1.0000 0.18920  0.12240  0.12410  Biso   1.000  C
  C24      1.0000 0.31080  0.62240  0.37590  Biso   1.000  C
  H9       1.0000 0.82240  0.87820  0.80370  Biso   1.000  H
  H10      1.0000 0.67760  0.37820  0.69630  Biso   1.000  H
  H11      1.0000 0.17760  0.12180  0.19630  Biso   1.000  H
  H12      1.0000 0.32240  0.62180  0.30370  Biso   1.000  H
  C25      1.0000 0.94170  0.86550  0.95710  Biso   1.000  C
  C26      1.0000 0.55830  0.36550  0.54290  Biso   1.000  C
  C27      1.0000 0.05830  0.13450  0.04290  Biso   1.000  C
  C28      1.0000 0.44170  0.63450  0.45710  Biso   1.000  C
  H13      1.0000 0.04040  0.85510  0.93760  Biso   1.000  H
  H14      1.0000 0.45960  0.35510  0.56240  Biso   1.000  H
  H15      1.0000 0.95960  0.14490  0.06240  Biso   1.000  H
  H16      1.0000 0.54040  0.64490  0.43760  Biso   1.000  H
  C29      1.0000 0.51410  0.89570  0.81800  Biso   1.000  C
  C30      1.0000 0.98590  0.39570  0.68200  Biso   1.000  C
  C31      1.0000 0.48590  0.10430  0.18200  Biso   1.000  C
  C32      1.0000 0.01410  0.60430  0.31800  Biso   1.000  C
  C33      1.0000 0.37240  0.84640  0.83480  Biso   1.000  C
  C34      1.0000 0.12760  0.34640  0.66520  Biso   1.000  C
  C35      1.0000 0.62760  0.15360  0.16520  Biso   1.000  C
  C36      1.0000 0.87240  0.65360  0.33480  Biso   1.000  C
  H17      1.0000 0.36790  0.81030  0.90010  Biso   1.000  H
  H18      1.0000 0.13210  0.31030  0.59990  Biso   1.000  H
  H19      1.0000 0.63210  0.18970  0.09990  Biso   1.000  H
  H20      1.0000 0.86790  0.68970  0.40010  Biso   1.000  H
  C37      1.0000 0.51190  0.94840  0.71890  Biso   1.000  C
  C38      1.0000 0.98810  0.44840  0.78110  Biso   1.000  C
  C39      1.0000 0.48810  0.05160  0.28110  Biso   1.000  C
  C40      1.0000 0.01190  0.55160  0.21890  Biso   1.000  C
  H21      1.0000 0.60380  0.98240  0.70380  Biso   1.000  H
  H22      1.0000 0.89620  0.48240  0.79620  Biso   1.000  H
  H23      1.0000 0.39620  0.01760  0.29620  Biso   1.000  H
  H24      1.0000 0.10380  0.51760  0.20380  Biso   1.000  H
  C41      1.0000 0.23910  0.85150  0.75390  Biso   1.000  C
  C42      1.0000 0.26090  0.35150  0.74610  Biso   1.000  C
  C43      1.0000 0.76090  0.14850  0.24610  Biso   1.000  C
  C44      1.0000 0.73910  0.64850  0.25390  Biso   1.000  C
  H25      1.0000 0.14560  0.81790  0.76650  Biso   1.000  H
  H26      1.0000 0.35440  0.31790  0.73350  Biso   1.000  H
  H27      1.0000 0.85440  0.18210  0.23350  Biso   1.000  H
  H28      1.0000 0.64560  0.68210  0.26650  Biso   1.000  H
  C45      1.0000 0.37230  0.95020  0.64250  Biso   1.000  C
  C46      1.0000 0.12770  0.45020  0.85750  Biso   1.000  C
  C47      1.0000 0.62770  0.04980  0.35750  Biso   1.000  C
  C48      1.0000 0.87230  0.54980  0.14250  Biso   1.000  C
  H29      1.0000 0.37300  0.98690  0.57690  Biso   1.000  H
  H30      1.0000 0.12700  0.48690  0.92310  Biso   1.000  H
  H31      1.0000 0.62700  0.01310  0.42310  Biso   1.000  H
  H32      1.0000 0.87300  0.51310  0.07690  Biso   1.000  H
