data_image0
_cell_length_a       6.749
_cell_length_b       15.919
_cell_length_c       33.874
_cell_angle_alpha    90.361
_cell_angle_beta     89.682
_cell_angle_gamma    97.801

_symmetry_space_group_name_H-M    "P 1"
_symmetry_int_tables_number       1

loop_
  _symmetry_equiv_pos_as_xyz
  'x, y, z'

loop_
  _atom_site_label
  _atom_site_occupancy
  _atom_site_fract_x
  _atom_site_fract_y
  _atom_site_fract_z
  _atom_site_thermal_displace_type
  _atom_site_B_iso_or_equiv
  _atom_site_type_symbol
  C1       1.0000 0.78100  0.42310  0.93320  Biso   1.000  C
  C2       1.0000 0.21900  0.57690  0.06680  Biso   1.000  C
  C3       1.0000 0.73400  0.44200  0.97660  Biso   1.000  C
  C4       1.0000 0.26600  0.55800  0.02340  Biso   1.000  C
  H1       1.0000 0.85920  0.46640  0.98970  Biso   1.000  H
  H2       1.0000 0.14080  0.53360  0.01030  Biso   1.000  H
  H3       1.0000 0.64130  0.48500  0.97740  Biso   1.000  H
  H4       1.0000 0.35870  0.51500  0.02260  Biso   1.000  H
  O1       1.0000 0.64500  0.36900  0.99900  Biso   1.000  O
  O2       1.0000 0.35500  0.63100  0.00100  Biso   1.000  O
  C5       1.0000 0.60800  0.37900  0.03750  Biso   1.000  C
  C6       1.0000 0.39200  0.62100  0.96250  Biso   1.000  C
  O3       1.0000 0.66100  0.44700  0.05510  Biso   1.000  O
  O4       1.0000 0.33900  0.55300  0.94490  Biso   1.000  O
  C7       1.0000 0.53800  0.29860  0.06120  Biso   1.000  C
  C8       1.0000 0.46200  0.70140  0.93880  Biso   1.000  C
  C9       1.0000 0.47800  0.22570  0.04090  Biso   1.000  C
  C10      1.0000 0.52200  0.77430  0.95910  Biso   1.000  C
  H5       1.0000 0.47740  0.22600  0.01280  Biso   1.000  H
  H6       1.0000 0.52260  0.77400  0.98720  Biso   1.000  H
  N1       1.0000 0.41900  0.15250  0.06070  Biso   1.000  N
  N2       1.0000 0.58100  0.84750  0.93930  Biso   1.000  N
  C11      1.0000 0.41900  0.15200  0.10080  Biso   1.000  C
  C12      1.0000 0.58100  0.84800  0.89920  Biso   1.000  C
  H7       1.0000 0.37800  0.10100  0.11470  Biso   1.000  H
  H8       1.0000 0.62200  0.89900  0.88530  Biso   1.000  H
  C13      1.0000 0.48000  0.22500  0.12120  Biso   1.000  C
  C14      1.0000 0.52000  0.77500  0.87880  Biso   1.000  C
  H9       1.0000 0.48010  0.22470  0.14920  Biso   1.000  H
  H10      1.0000 0.51990  0.77530  0.85080  Biso   1.000  H
  C15      1.0000 0.53900  0.29820  0.10140  Biso   1.000  C
  C16      1.0000 0.46100  0.70180  0.89860  Biso   1.000  C
  H11      1.0000 0.58090  0.34910  0.11560  Biso   1.000  H
  H12      1.0000 0.41910  0.65090  0.88440  Biso   1.000  H
  C17      1.0000 0.96500  0.37540  0.93310  Biso   1.000  C
  C18      1.0000 0.03500  0.62460  0.06690  Biso   1.000  C
  H13      1.0000 0.00800  0.36630  0.90560  Biso   1.000  H
  H14      1.0000 0.99200  0.63370  0.09440  Biso   1.000  H
  H15      1.0000 0.07660  0.40940  0.94720  Biso   1.000  H
  H16      1.0000 0.92340  0.59060  0.05280  Biso   1.000  H
  O5       1.0000 0.91400  0.29590  0.95210  Biso   1.000  O
  O6       1.0000 0.08600  0.70410  0.04790  Biso   1.000  O
  C19      1.0000 0.99800  0.29960  0.98940  Biso   1.000  C
  C20      1.0000 0.00200  0.70040  0.01060  Biso   1.000  C
  O7       1.0000 0.11500  0.35180  0.00580  Biso   1.000  O
  O8       1.0000 0.88500  0.64820  0.99420  Biso   1.000  O
  C21      1.0000 0.97600  0.22120  0.01270  Biso   1.000  C
  C22      1.0000 0.02400  0.77880  0.98730  Biso   1.000  C
  C23      1.0000 0.88700  0.15350  0.99170  Biso   1.000  C
  C24      1.0000 0.11300  0.84650  0.00830  Biso   1.000  C
  H17      1.0000 0.86940  0.15800  0.96400  Biso   1.000  H
  H18      1.0000 0.13060  0.84200  0.03600  Biso   1.000  H
  N3       1.0000 0.82200  0.07930  0.01030  Biso   1.000  N
  N4       1.0000 0.17800  0.92070  0.98970  Biso   1.000  N
  C25      1.0000 0.84800  0.07280  0.04990  Biso   1.000  C
  C26      1.0000 0.15200  0.92720  0.95010  Biso   1.000  C
  H19      1.0000 0.80260  0.02090  0.06290  Biso   1.000  H
  H20      1.0000 0.19740  0.97910  0.93710  Biso   1.000  H
  C27      1.0000 0.93700  0.14050  0.07090  Biso   1.000  C
  C28      1.0000 0.06300  0.85950  0.92910  Biso   1.000  C
  H21      1.0000 0.95460  0.13590  0.09860  Biso   1.000  H
  H22      1.0000 0.04540  0.86410  0.90140  Biso   1.000  H
  C29      1.0000 0.00100  0.21470  0.05230  Biso   1.000  C
  C30      1.0000 0.99900  0.78530  0.94770  Biso   1.000  C
  H23      1.0000 0.06390  0.26190  0.06690  Biso   1.000  H
  H24      1.0000 0.93610  0.73810  0.93310  Biso   1.000  H
  C31      1.0000 0.58200  0.38040  0.91560  Biso   1.000  C
  C32      1.0000 0.41800  0.61960  0.08440  Biso   1.000  C
  H25      1.0000 0.53710  0.32600  0.92900  Biso   1.000  H
  H26      1.0000 0.46290  0.67400  0.07100  Biso   1.000  H
  H27      1.0000 0.47650  0.41760  0.91880  Biso   1.000  H
  H28      1.0000 0.52350  0.58240  0.08120  Biso   1.000  H
  O9       1.0000 0.61900  0.36560  0.87320  Biso   1.000  O
  O10      1.0000 0.38100  0.63440  0.12680  Biso   1.000  O
  C33      1.0000 0.54800  0.41860  0.84740  Biso   1.000  C
  C34      1.0000 0.45200  0.58140  0.15260  Biso   1.000  C
  O11      1.0000 0.47400  0.47360  0.85500  Biso   1.000  O
  O12      1.0000 0.52600  0.52640  0.14500  Biso   1.000  O
  C35      1.0000 0.61200  0.38850  0.80900  Biso   1.000  C
  C36      1.0000 0.38800  0.61150  0.19100  Biso   1.000  C
  C37      1.0000 0.67300  0.31400  0.79760  Biso   1.000  C
  C38      1.0000 0.32700  0.68600  0.20240  Biso   1.000  C
  H29      1.0000 0.68250  0.27080  0.81640  Biso   1.000  H
  H30      1.0000 0.31750  0.72920  0.18360  Biso   1.000  H
  N5       1.0000 0.72100  0.30130  0.75910  Biso   1.000  N
  N6       1.0000 0.27900  0.69870  0.24090  Biso   1.000  N
  C39      1.0000 0.70800  0.36320  0.73210  Biso   1.000  C
  C40      1.0000 0.29200  0.63680  0.26790  Biso   1.000  C
  H31      1.0000 0.74130  0.35430  0.70530  Biso   1.000  H
  H32      1.0000 0.25870  0.64570  0.29470  Biso   1.000  H
  C41      1.0000 0.64700  0.43770  0.74350  Biso   1.000  C
  C42      1.0000 0.35300  0.56230  0.25650  Biso   1.000  C
  H33      1.0000 0.63790  0.48080  0.72470  Biso   1.000  H
  H34      1.0000 0.36210  0.51920  0.27530  Biso   1.000  H
  C43      1.0000 0.59900  0.45030  0.78200  Biso   1.000  C
  C44      1.0000 0.40100  0.54970  0.21800  Biso   1.000  C
  H35      1.0000 0.55670  0.50240  0.79000  Biso   1.000  H
  H36      1.0000 0.44330  0.49760  0.21000  Biso   1.000  H
  C45      1.0000 0.84400  0.51540  0.92000  Biso   1.000  C
  C46      1.0000 0.15600  0.48460  0.08000  Biso   1.000  C
  H37      1.0000 0.73050  0.54780  0.91590  Biso   1.000  H
  H38      1.0000 0.26950  0.45220  0.08410  Biso   1.000  H
  H39      1.0000 0.94830  0.54730  0.93670  Biso   1.000  H
  H40      1.0000 0.05170  0.45270  0.06330  Biso   1.000  H
  O13      1.0000 0.92300  0.48050  0.88240  Biso   1.000  O
  O14      1.0000 0.07700  0.51950  0.11760  Biso   1.000  O
  C47      1.0000 0.99900  0.56440  0.86000  Biso   1.000  C
  C48      1.0000 0.00100  0.43560  0.14000  Biso   1.000  C
  O15      1.0000 0.99600  0.63390  0.86990  Biso   1.000  O
  O16      1.0000 0.00400  0.36610  0.13010  Biso   1.000  O
  C49      1.0000 0.04500  0.54720  0.81850  Biso   1.000  C
  C50      1.0000 0.95500  0.45280  0.18150  Biso   1.000  C
  C51      1.0000 0.06900  0.46600  0.80900  Biso   1.000  C
  C52      1.0000 0.93100  0.53400  0.19100  Biso   1.000  C
  H41      1.0000 0.05070  0.42320  0.82860  Biso   1.000  H
  H42      1.0000 0.94930  0.57680  0.17140  Biso   1.000  H
  N7       1.0000 0.11900  0.44620  0.77150  Biso   1.000  N
  N8       1.0000 0.88100  0.55380  0.22850  Biso   1.000  N
  C53      1.0000 0.14600  0.50750  0.74340  Biso   1.000  C
  C54      1.0000 0.85400  0.49250  0.25660  Biso   1.000  C
  H43      1.0000 0.18090  0.49370  0.71720  Biso   1.000  H
  H44      1.0000 0.81910  0.50630  0.28280  Biso   1.000  H
  C55      1.0000 0.12200  0.58870  0.75290  Biso   1.000  C
  C56      1.0000 0.87800  0.41130  0.24710  Biso   1.000  C
  H45      1.0000 0.14010  0.63150  0.73330  Biso   1.000  H
  H46      1.0000 0.85990  0.36850  0.26670  Biso   1.000  H
  C57      1.0000 0.07100  0.60850  0.79040  Biso   1.000  C
  C58      1.0000 0.92900  0.39150  0.20960  Biso   1.000  C
  H47      1.0000 0.05460  0.66520  0.79710  Biso   1.000  H
  H48      1.0000 0.94540  0.33480  0.20290  Biso   1.000  H
  C59      1.0000 0.22300  0.08880  0.56580  Biso   1.000  C
  C60      1.0000 0.77700  0.91120  0.43420  Biso   1.000  C
  C61      1.0000 0.26700  0.05420  0.52290  Biso   1.000  C
  C62      1.0000 0.73300  0.94580  0.47710  Biso   1.000  C
  H49      1.0000 0.36600  0.01370  0.52380  Biso   1.000  H
  H50      1.0000 0.63400  0.98630  0.47620  Biso   1.000  H
  H51      1.0000 0.14310  0.02620  0.51030  Biso   1.000  H
  H52      1.0000 0.85690  0.97380  0.48970  Biso   1.000  H
  O17      1.0000 0.34600  0.13050  0.50220  Biso   1.000  O
  O18      1.0000 0.65400  0.86950  0.49780  Biso   1.000  O
  C63      1.0000 0.37000  0.11940  0.46130  Biso   1.000  C
  C64      1.0000 0.63000  0.88060  0.53870  Biso   1.000  C
  O19      1.0000 0.34200  0.05380  0.44530  Biso   1.000  O
  O20      1.0000 0.65800  0.94620  0.55470  Biso   1.000  O
  C65      1.0000 0.46300  0.19920  0.44190  Biso   1.000  C
  C66      1.0000 0.53700  0.80080  0.55810  Biso   1.000  C
  C67      1.0000 0.51200  0.27070  0.46390  Biso   1.000  C
  C68      1.0000 0.48800  0.72930  0.53610  Biso   1.000  C
  H53      1.0000 0.50340  0.26810  0.49190  Biso   1.000  H
  H54      1.0000 0.49660  0.73190  0.50810  Biso   1.000  H
  N9       1.0000 0.57300  0.34590  0.44590  Biso   1.000  N
  N10      1.0000 0.42700  0.65410  0.55410  Biso   1.000  N
  C69      1.0000 0.58600  0.34960  0.40580  Biso   1.000  C
  C70      1.0000 0.41400  0.65040  0.59420  Biso   1.000  C
  H55      1.0000 0.62820  0.40210  0.39320  Biso   1.000  H
  H56      1.0000 0.37180  0.59790  0.60680  Biso   1.000  H
  C71      1.0000 0.53700  0.27810  0.38380  Biso   1.000  C
  C72      1.0000 0.46300  0.72190  0.61620  Biso   1.000  C
  H57      1.0000 0.54540  0.28070  0.35580  Biso   1.000  H
  H58      1.0000 0.45460  0.71930  0.64420  Biso   1.000  H
  C73      1.0000 0.47600  0.20290  0.40180  Biso   1.000  C
  C74      1.0000 0.52400  0.79710  0.59820  Biso   1.000  C
  H59      1.0000 0.44160  0.15300  0.38650  Biso   1.000  H
  H60      1.0000 0.55840  0.84700  0.61350  Biso   1.000  H
  C75      1.0000 0.03400  0.12180  0.57090  Biso   1.000  C
  C76      1.0000 0.96600  0.87820  0.42910  Biso   1.000  C
  H61      1.0000 0.01060  0.13560  0.59890  Biso   1.000  H
  H62      1.0000 0.98940  0.86440  0.40110  Biso   1.000  H
  H63      1.0000 0.92070  0.08060  0.56140  Biso   1.000  H
  H64      1.0000 0.07930  0.91940  0.43860  Biso   1.000  H
  O21      1.0000 0.05900  0.19980  0.54620  Biso   1.000  O
  O22      1.0000 0.94100  0.80020  0.45380  Biso   1.000  O
  C77      1.0000 0.98120  0.20290  0.50850  Biso   1.000  C
  C78      1.0000 0.01880  0.79710  0.49150  Biso   1.000  C
  O23      1.0000 0.88200  0.13500  0.49510  Biso   1.000  O
  O24      1.0000 0.11800  0.86500  0.50490  Biso   1.000  O
  C79      1.0000 0.05400  0.28520  0.49030  Biso   1.000  C
  C80      1.0000 0.94600  0.71480  0.50970  Biso   1.000  C
  C81      1.0000 0.13400  0.35570  0.51040  Biso   1.000  C
  C82      1.0000 0.86600  0.64430  0.48960  Biso   1.000  C
  H65      1.0000 0.15480  0.35310  0.53810  Biso   1.000  H
  H66      1.0000 0.84520  0.64690  0.46190  Biso   1.000  H
  N11      1.0000 0.18500  0.43000  0.49090  Biso   1.000  N
  N12      1.0000 0.81500  0.57000  0.50910  Biso   1.000  N
  C83      1.0000 0.15500  0.43380  0.45130  Biso   1.000  C
  C84      1.0000 0.84500  0.56620  0.54870  Biso   1.000  C
  H67      1.0000 0.19080  0.48570  0.43770  Biso   1.000  H
  H68      1.0000 0.80920  0.51430  0.56230  Biso   1.000  H
  C85      1.0000 0.07500  0.36330  0.43120  Biso   1.000  C
  C86      1.0000 0.92500  0.63670  0.56880  Biso   1.000  C
  H69      1.0000 0.05410  0.36590  0.40360  Biso   1.000  H
  H70      1.0000 0.94590  0.63410  0.59640  Biso   1.000  H
  C87      1.0000 0.02400  0.28900  0.45070  Biso   1.000  C
  C88      1.0000 0.97600  0.71100  0.54930  Biso   1.000  C
  H71      1.0000 0.96770  0.23970  0.43660  Biso   1.000  H
  H72      1.0000 0.03230  0.76030  0.56340  Biso   1.000  H
  C89      1.0000 0.40300  0.13680  0.58560  Biso   1.000  C
  C90      1.0000 0.59700  0.86320  0.41440  Biso   1.000  C
  H73      1.0000 0.52160  0.10790  0.58000  Biso   1.000  H
  H74      1.0000 0.47840  0.89210  0.42000  Biso   1.000  H
  H75      1.0000 0.42960  0.19470  0.57460  Biso   1.000  H
  H76      1.0000 0.57040  0.80530  0.42540  Biso   1.000  H
  O25      1.0000 0.37500  0.14190  0.62680  Biso   1.000  O
  O26      1.0000 0.62500  0.85810  0.37320  Biso   1.000  O
  C91      1.0000 0.44800  0.09890  0.65380  Biso   1.000  C
  C92      1.0000 0.55200  0.90110  0.34620  Biso   1.000  C
  O27      1.0000 0.52100  0.02580  0.64100  Biso   1.000  O
  O28      1.0000 0.47900  0.97420  0.35900  Biso   1.000  O
  C93      1.0000 0.40200  0.11020  0.69460  Biso   1.000  C
  C94      1.0000 0.59800  0.88980  0.30540  Biso   1.000  C
  C95      1.0000 0.37800  0.19320  0.69920  Biso   1.000  C
  C96      1.0000 0.62200  0.80680  0.30080  Biso   1.000  C
  H77      1.0000 0.42200  0.23290  0.67910  Biso   1.000  H
  H78      1.0000 0.57800  0.76710  0.32090  Biso   1.000  H
  N13      1.0000 0.29200  0.21940  0.73270  Biso   1.000  N
  N14      1.0000 0.70800  0.78060  0.26730  Biso   1.000  N
  C97      1.0000 0.22900  0.16300  0.76140  Biso   1.000  C
  C98      1.0000 0.77100  0.83700  0.23860  Biso   1.000  C
  H79      1.0000 0.16810  0.18090  0.78480  Biso   1.000  H
  H80      1.0000 0.83190  0.81910  0.21520  Biso   1.000  H
  C99      1.0000 0.25200  0.07960  0.75680  Biso   1.000  C
  C100     1.0000 0.74800  0.92040  0.24320  Biso   1.000  C
  H81      1.0000 0.20810  0.04000  0.77690  Biso   1.000  H
  H82      1.0000 0.79190  0.96000  0.22310  Biso   1.000  H
  C101     1.0000 0.33900  0.05340  0.72330  Biso   1.000  C
  C102     1.0000 0.66100  0.94660  0.27670  Biso   1.000  C
  H83      1.0000 0.35500  0.99550  0.72010  Biso   1.000  H
  H84      1.0000 0.64500  0.00450  0.27990  Biso   1.000  H
  C103     1.0000 0.18400  0.99390  0.58530  Biso   1.000  C
  C104     1.0000 0.81600  0.00610  0.41470  Biso   1.000  C
  H85      1.0000 0.11170  0.95260  0.56670  Biso   1.000  H
  H86      1.0000 0.88830  0.04740  0.43330  Biso   1.000  H
  H87      1.0000 0.31200  0.97430  0.59240  Biso   1.000  H
  H88      1.0000 0.68800  0.02570  0.40760  Biso   1.000  H
  O29      1.0000 0.06300  0.00320  0.62060  Biso   1.000  O
  O30      1.0000 0.93700  0.99680  0.37940  Biso   1.000  O
  C105     1.0000 0.01500  0.95210  0.64650  Biso   1.000  C
  C106     1.0000 0.98500  0.04790  0.35350  Biso   1.000  C
  O31      1.0000 0.99900  0.86260  0.63170  Biso   1.000  O
  O32      1.0000 0.00100  0.13740  0.36830  Biso   1.000  O
  C107     1.0000 0.91480  0.96970  0.68229  Biso   1.000  C
  C108     1.0000 0.08520  0.03030  0.31771  Biso   1.000  C
  C109     1.0000 0.86230  0.04530  0.69445  Biso   1.000  C
  C110     1.0000 0.13770  0.95470  0.30555  Biso   1.000  C
  H89      1.0000 0.85120  0.08860  0.67580  Biso   1.000  H
  H90      1.0000 0.14880  0.91140  0.32420  Biso   1.000  H
  N15      1.0000 0.82580  0.05870  0.73335  Biso   1.000  N
  N16      1.0000 0.17420  0.94130  0.26665  Biso   1.000  N
  C111     1.0000 0.84170  0.99670  0.76008  Biso   1.000  C
  C112     1.0000 0.15830  0.00330  0.23992  Biso   1.000  C
  H91      1.0000 0.81620  0.00610  0.78720  Biso   1.000  H
  H92      1.0000 0.18380  0.99390  0.21280  Biso   1.000  H
  C113     1.0000 0.89420  0.92110  0.74792  Biso   1.000  C
  C114     1.0000 0.10580  0.07890  0.25208  Biso   1.000  C
  H93      1.0000 0.90530  0.87770  0.76660  Biso   1.000  H
  H94      1.0000 0.09470  0.12230  0.23340  Biso   1.000  H
  C115     1.0000 0.93070  0.90760  0.70903  Biso   1.000  C
  C116     1.0000 0.06930  0.09240  0.29097  Biso   1.000  C
  H95      1.0000 0.96740  0.85480  0.70050  Biso   1.000  H
  H96      1.0000 0.03260  0.14520  0.29950  Biso   1.000  H
  F1       1.0000 0.91160  0.04180  0.87512  Biso   1.000  F
  F2       1.0000 0.08840  0.95820  0.12488  Biso   1.000  F
  F3       1.0000 0.59430  0.05770  0.91021  Biso   1.000  F
  F4       1.0000 0.40570  0.94230  0.08979  Biso   1.000  F
  F5       1.0000 0.77400  0.18340  0.88954  Biso   1.000  F
  F6       1.0000 0.22600  0.81660  0.11046  Biso   1.000  F
  F7       1.0000 0.52850  0.12970  0.85690  Biso   1.000  F
  F8       1.0000 0.47150  0.87030  0.14310  Biso   1.000  F
  F9       1.0000 0.81730  0.13440  0.82421  Biso   1.000  F
  F10      1.0000 0.18270  0.86560  0.17579  Biso   1.000  F
  F11      1.0000 0.61450  0.01210  0.84232  Biso   1.000  F
  F12      1.0000 0.38550  0.98790  0.15768  Biso   1.000  F
  F13      1.0000 0.51350  0.36840  0.64284  Biso   1.000  F
  F14      1.0000 0.48650  0.63160  0.35716  Biso   1.000  F
  F15      1.0000 0.18140  0.36640  0.67422  Biso   1.000  F
  F16      1.0000 0.81860  0.63360  0.32578  Biso   1.000  F
  F17      1.0000 0.36360  0.49640  0.65638  Biso   1.000  F
  F18      1.0000 0.63640  0.50360  0.34362  Biso   1.000  F
  F19      1.0000 0.09900  0.44340  0.62279  Biso   1.000  F
  F20      1.0000 0.90100  0.55660  0.37721  Biso   1.000  F
  F21      1.0000 0.35900  0.44840  0.58926  Biso   1.000  F
  F22      1.0000 0.64100  0.55160  0.41074  Biso   1.000  F
  F23      1.0000 0.20300  0.31470  0.60815  Biso   1.000  F
  F24      1.0000 0.79700  0.68530  0.39185  Biso   1.000  F
  Cu1      1.0000 0.31720  0.04030  0.02360  Biso   1.000  Cu
  Cu2      1.0000 0.68280  0.95970  0.97640  Biso   1.000  Cu
  Cu3      1.0000 0.81010  0.17820  0.74405  Biso   1.000  Cu
  Cu4      1.0000 0.18990  0.82180  0.25595  Biso   1.000  Cu
  Cu5      1.0000 0.19080  0.32030  0.75618  Biso   1.000  Cu
  Cu6      1.0000 0.80920  0.67970  0.24382  Biso   1.000  Cu
  Cu7      1.0000 0.68390  0.45910  0.47699  Biso   1.000  Cu
  Cu8      1.0000 0.31610  0.54090  0.52301  Biso   1.000  Cu
  P1       1.0000 0.72780  0.09420  0.86755  Biso   1.000  P
  P2       1.0000 0.27220  0.90580  0.13245  Biso   1.000  P
  P3       1.0000 0.28870  0.40490  0.63355  Biso   1.000  P
  P4       1.0000 0.71130  0.59510  0.36645  Biso   1.000  P
  O33      1.0000 0.07300  0.27940  0.81903  Biso   1.000  O
  O34      1.0000 0.92700  0.72060  0.18097  Biso   1.000  O
  H97      1.0000 0.15150  0.27170  0.83740  Biso   1.000  H
  H98      1.0000 0.84850  0.72830  0.16260  Biso   1.000  H
  O35      1.0000 0.57090  0.37880  0.53339  Biso   1.000  O
  O36      1.0000 0.42910  0.62120  0.46661  Biso   1.000  O
  H99      1.0000 0.63630  0.35270  0.54910  Biso   1.000  H
  H100     1.0000 0.36370  0.64730  0.45090  Biso   1.000  H
  O37      1.0000 0.43500  0.11800  0.96499  Biso   1.000  O
  O38      1.0000 0.56500  0.88200  0.03501  Biso   1.000  O
  H101     1.0000 0.37100  0.14670  0.95020  Biso   1.000  H
  H102     1.0000 0.62900  0.85330  0.04980  Biso   1.000  H
  H103     1.0000 0.47860  0.08220  0.95010  Biso   1.000  H
  H104     1.0000 0.52140  0.91780  0.04990  Biso   1.000  H
  O39      1.0000 0.92470  0.21970  0.67843  Biso   1.000  O
  O40      1.0000 0.07530  0.78030  0.32157  Biso   1.000  O
  H105     1.0000 0.84820  0.22800  0.65980  Biso   1.000  H
  H106     1.0000 0.15180  0.77200  0.34020  Biso   1.000  H
  H107     1.0000 0.00440  0.26470  0.68110  Biso   1.000  H
  H108     1.0000 0.99560  0.73530  0.31890  Biso   1.000  H
