data_image0
_cell_length_a       19.2111
_cell_length_b       12.6738
_cell_length_c       23.607
_cell_angle_alpha    90
_cell_angle_beta     110.041
_cell_angle_gamma    90

_symmetry_space_group_name_H-M    "P 1"
_symmetry_int_tables_number       1

loop_
  _symmetry_equiv_pos_as_xyz
  'x, y, z'

loop_
  _atom_site_label
  _atom_site_occupancy
  _atom_site_fract_x
  _atom_site_fract_y
  _atom_site_fract_z
  _atom_site_thermal_displace_type
  _atom_site_B_iso_or_equiv
  _atom_site_type_symbol
  Cu1      1.0000 0.78566  0.91153  0.43692  Biso   1.000  Cu
  Cu2      1.0000 0.71434  0.41153  0.06308  Biso   1.000  Cu
  Cu3      1.0000 0.21434  0.08847  0.56308  Biso   1.000  Cu
  Cu4      1.0000 0.28566  0.58847  0.93692  Biso   1.000  Cu
  Cu5      1.0000 0.76951  0.73034  0.61534  Biso   1.000  Cu
  Cu6      1.0000 0.73049  0.23034  0.88466  Biso   1.000  Cu
  Cu7      1.0000 0.23049  0.26966  0.38466  Biso   1.000  Cu
  Cu8      1.0000 0.26951  0.76966  0.11534  Biso   1.000  Cu
  Cu9      1.0000 0.58029  0.56262  0.68176  Biso   1.000  Cu
  Cu10     1.0000 0.91971  0.06262  0.81824  Biso   1.000  Cu
  Cu11     1.0000 0.41971  0.43738  0.31824  Biso   1.000  Cu
  Cu12     1.0000 0.08029  0.93738  0.18176  Biso   1.000  Cu
  Cu13     1.0000 0.88877  0.88417  0.27544  Biso   1.000  Cu
  Cu14     1.0000 0.61123  0.38417  0.22456  Biso   1.000  Cu
  Cu15     1.0000 0.11123  0.11583  0.72456  Biso   1.000  Cu
  Cu16     1.0000 0.38877  0.61583  0.77544  Biso   1.000  Cu
  Fe1      1.0000 0.79068  0.28766  0.42556  Biso   1.000  Fe
  Fe2      1.0000 0.70932  0.78766  0.07444  Biso   1.000  Fe
  Fe3      1.0000 0.20932  0.71234  0.57444  Biso   1.000  Fe
  Fe4      1.0000 0.29068  0.21234  0.92556  Biso   1.000  Fe
  Fe5      1.0000 0.94924  0.67934  0.81741  Biso   1.000  Fe
  Fe6      1.0000 0.55076  0.17934  0.68259  Biso   1.000  Fe
  Fe7      1.0000 0.05076  0.32066  0.18259  Biso   1.000  Fe
  Fe8      1.0000 0.44924  0.82066  0.31741  Biso   1.000  Fe
  N1       1.0000 0.84450  0.25854  0.51276  Biso   1.000  N
  N2       1.0000 0.65550  0.75854  0.98724  Biso   1.000  N
  N3       1.0000 0.15550  0.74146  0.48724  Biso   1.000  N
  N4       1.0000 0.34450  0.24146  0.01276  Biso   1.000  N
  N5       1.0000 0.71412  0.33950  0.45732  Biso   1.000  N
  N6       1.0000 0.78588  0.83950  0.04268  Biso   1.000  N
  N7       1.0000 0.28588  0.66050  0.54268  Biso   1.000  N
  N8       1.0000 0.21412  0.16050  0.95732  Biso   1.000  N
  N9       1.0000 0.83726  0.43141  0.43270  Biso   1.000  N
  N10      1.0000 0.66274  0.93141  0.06730  Biso   1.000  N
  N11      1.0000 0.16274  0.56859  0.56730  Biso   1.000  N
  N12      1.0000 0.33726  0.06859  0.93270  Biso   1.000  N
  N13      1.0000 0.87676  0.24932  0.40170  Biso   1.000  N
  N14      1.0000 0.62324  0.74932  0.09830  Biso   1.000  N
  N15      1.0000 0.12324  0.75068  0.59830  Biso   1.000  N
  N16      1.0000 0.37676  0.25068  0.90170  Biso   1.000  N
  N17      1.0000 0.74575  0.05580  0.41827  Biso   1.000  N
  N18      1.0000 0.75425  0.55580  0.08173  Biso   1.000  N
  N19      1.0000 0.25425  0.94420  0.58173  Biso   1.000  N
  N20      1.0000 0.24575  0.44420  0.91827  Biso   1.000  N
  C1       1.0000 0.75688  0.14490  0.41856  Biso   1.000  C
  C2       1.0000 0.74312  0.64490  0.08144  Biso   1.000  C
  C3       1.0000 0.24312  0.85510  0.58144  Biso   1.000  C
  C4       1.0000 0.25688  0.35510  0.91856  Biso   1.000  C
  N21      1.0000 0.84161  0.88430  0.38503  Biso   1.000  N
  N22      1.0000 0.65839  0.38430  0.11497  Biso   1.000  N
  N23      1.0000 0.15839  0.11570  0.61497  Biso   1.000  N
  N24      1.0000 0.34161  0.61570  0.88503  Biso   1.000  N
  C5       1.0000 0.86587  0.88010  0.34663  Biso   1.000  C
  C6       1.0000 0.63413  0.38010  0.15337  Biso   1.000  C
  C7       1.0000 0.13413  0.11990  0.65337  Biso   1.000  C
  C8       1.0000 0.36587  0.61990  0.84663  Biso   1.000  C
  N25      1.0000 0.77450  0.83630  0.50149  Biso   1.000  N
  N26      1.0000 0.72550  0.33630  0.99851  Biso   1.000  N
  N27      1.0000 0.22550  0.16370  0.49851  Biso   1.000  N
  N28      1.0000 0.27450  0.66370  0.00149  Biso   1.000  N
  C9       1.0000 0.77347  0.79310  0.54424  Biso   1.000  C
  C10      1.0000 0.72653  0.29310  0.95576  Biso   1.000  C
  C11      1.0000 0.22653  0.20690  0.45576  Biso   1.000  C
  C12      1.0000 0.27347  0.70690  0.04424  Biso   1.000  C
  N29      1.0000 0.85719  0.70080  0.68427  Biso   1.000  N
  N30      1.0000 0.64281  0.20080  0.81573  Biso   1.000  N
  N31      1.0000 0.14281  0.29920  0.31573  Biso   1.000  N
  N32      1.0000 0.35719  0.79920  0.18427  Biso   1.000  N
  C13      1.0000 0.89477  0.69170  0.73413  Biso   1.000  C
  C14      1.0000 0.60523  0.19170  0.76587  Biso   1.000  C
  C15      1.0000 0.10523  0.30830  0.26587  Biso   1.000  C
  C16      1.0000 0.39477  0.80830  0.23413  Biso   1.000  C
  N33      1.0000 0.68652  0.68590  0.63795  Biso   1.000  N
  N34      1.0000 0.81348  0.18590  0.86205  Biso   1.000  N
  N35      1.0000 0.31348  0.31410  0.36205  Biso   1.000  N
  N36      1.0000 0.18652  0.81410  0.13795  Biso   1.000  N
  C17      1.0000 0.64269  0.64500  0.65339  Biso   1.000  C
  C18      1.0000 0.85731  0.14500  0.84661  Biso   1.000  C
  C19      1.0000 0.35731  0.35500  0.34661  Biso   1.000  C
  C20      1.0000 0.14269  0.85500  0.15339  Biso   1.000  C
  N37      1.0000 0.01229  0.92210  0.22443  Biso   1.000  N
  N38      1.0000 0.48771  0.42210  0.27557  Biso   1.000  N
  N39      1.0000 0.98771  0.07790  0.77557  Biso   1.000  N
  N40      1.0000 0.51229  0.57790  0.72443  Biso   1.000  N
  C21      1.0000 0.96906  0.91540  0.24808  Biso   1.000  C
  C22      1.0000 0.53094  0.41540  0.25192  Biso   1.000  C
  C23      1.0000 0.03094  0.08460  0.75192  Biso   1.000  C
  C24      1.0000 0.46906  0.58460  0.74808  Biso   1.000  C
  N41      1.0000 0.80607  0.83890  0.20325  Biso   1.000  N
  N42      1.0000 0.69393  0.33890  0.29675  Biso   1.000  N
  N43      1.0000 0.19393  0.16110  0.79675  Biso   1.000  N
  N44      1.0000 0.30607  0.66110  0.70325  Biso   1.000  N
  C25      1.0000 0.76842  0.81790  0.15506  Biso   1.000  C
  C26      1.0000 0.73158  0.31790  0.34494  Biso   1.000  C
  C27      1.0000 0.23158  0.18210  0.84494  Biso   1.000  C
  C28      1.0000 0.26842  0.68210  0.65506  Biso   1.000  C
  N45      1.0000 0.58217  0.41130  0.66715  Biso   1.000  N
  N46      1.0000 0.91783  0.91130  0.83285  Biso   1.000  N
  N47      1.0000 0.41783  0.58870  0.33285  Biso   1.000  N
  N48      1.0000 0.08217  0.08870  0.16715  Biso   1.000  N
  N49      1.0000 0.04242  0.71990  0.80420  Biso   1.000  N
  N50      1.0000 0.45758  0.21990  0.69580  Biso   1.000  N
  N51      1.0000 0.95758  0.28010  0.19580  Biso   1.000  N
  N52      1.0000 0.54242  0.78010  0.30420  Biso   1.000  N
  N53      1.0000 0.98342  0.53494  0.80653  Biso   1.000  N
  N54      1.0000 0.51658  0.03494  0.69347  Biso   1.000  N
  N55      1.0000 0.01658  0.46506  0.19347  Biso   1.000  N
  N56      1.0000 0.48342  0.96506  0.30653  Biso   1.000  N
  N57      1.0000 0.99430  0.67040  0.90679  Biso   1.000  N
  N58      1.0000 0.50570  0.17040  0.59321  Biso   1.000  N
  N59      1.0000 0.00570  0.32960  0.09321  Biso   1.000  N
  N60      1.0000 0.49430  0.82960  0.40679  Biso   1.000  N
  N61      1.0000 0.86161  0.62386  0.83392  Biso   1.000  N
  N62      1.0000 0.63839  0.12386  0.66608  Biso   1.000  N
  N63      1.0000 0.13839  0.37614  0.16608  Biso   1.000  N
  N64      1.0000 0.36161  0.87614  0.33392  Biso   1.000  N
  C29      1.0000 0.90781  0.20790  0.53932  Biso   1.000  C
  C30      1.0000 0.59219  0.70790  0.96068  Biso   1.000  C
  C31      1.0000 0.09219  0.79210  0.46068  Biso   1.000  C
  C32      1.0000 0.40781  0.29210  0.03932  Biso   1.000  C
  H1       1.0000 0.93380  0.18190  0.51550  Biso   1.000  H
  H2       1.0000 0.56620  0.68190  0.98450  Biso   1.000  H
  H3       1.0000 0.06620  0.81810  0.48450  Biso   1.000  H
  H4       1.0000 0.43380  0.31810  0.01550  Biso   1.000  H
  C33      1.0000 0.93665  0.19230  0.60103  Biso   1.000  C
  C34      1.0000 0.56335  0.69230  0.89897  Biso   1.000  C
  C35      1.0000 0.06335  0.80770  0.39897  Biso   1.000  C
  C36      1.0000 0.43665  0.30770  0.10103  Biso   1.000  C
  H5       1.0000 0.98060  0.15480  0.61780  Biso   1.000  H
  H6       1.0000 0.51940  0.65480  0.88220  Biso   1.000  H
  H7       1.0000 0.01940  0.84520  0.38220  Biso   1.000  H
  H8       1.0000 0.48060  0.34520  0.11780  Biso   1.000  H
  C37      1.0000 0.90120  0.23140  0.63726  Biso   1.000  C
  C38      1.0000 0.59880  0.73140  0.86274  Biso   1.000  C
  C39      1.0000 0.09880  0.76860  0.36274  Biso   1.000  C
  C40      1.0000 0.40120  0.26860  0.13726  Biso   1.000  C
  H9       1.0000 0.92120  0.22260  0.67880  Biso   1.000  H
  H10      1.0000 0.57880  0.72260  0.82120  Biso   1.000  H
  H11      1.0000 0.07880  0.77740  0.32120  Biso   1.000  H
  H12      1.0000 0.42120  0.27740  0.17880  Biso   1.000  H
  C41      1.0000 0.83415  0.28510  0.61134  Biso   1.000  C
  C42      1.0000 0.66585  0.78510  0.88866  Biso   1.000  C
  C43      1.0000 0.16585  0.71490  0.38866  Biso   1.000  C
  C44      1.0000 0.33415  0.21490  0.11134  Biso   1.000  C
  C45      1.0000 0.79060  0.32800  0.64449  Biso   1.000  C
  C46      1.0000 0.70940  0.82800  0.85551  Biso   1.000  C
  C47      1.0000 0.20940  0.67200  0.35551  Biso   1.000  C
  C48      1.0000 0.29060  0.17200  0.14449  Biso   1.000  C
  H13      1.0000 0.80830  0.32440  0.68640  Biso   1.000  H
  H14      1.0000 0.69170  0.82440  0.81360  Biso   1.000  H
  H15      1.0000 0.19170  0.67560  0.31360  Biso   1.000  H
  H16      1.0000 0.30830  0.17560  0.18640  Biso   1.000  H
  C49      1.0000 0.72510  0.37290  0.61615  Biso   1.000  C
  C50      1.0000 0.77490  0.87290  0.88385  Biso   1.000  C
  C51      1.0000 0.27490  0.62710  0.38385  Biso   1.000  C
  C52      1.0000 0.22510  0.12710  0.11615  Biso   1.000  C
  H17      1.0000 0.69860  0.40110  0.63890  Biso   1.000  H
  H18      1.0000 0.80140  0.90110  0.86110  Biso   1.000  H
  H19      1.0000 0.30140  0.59890  0.36110  Biso   1.000  H
  H20      1.0000 0.19860  0.09890  0.13890  Biso   1.000  H
  C53      1.0000 0.69452  0.37910  0.55187  Biso   1.000  C
  C54      1.0000 0.80548  0.87910  0.94813  Biso   1.000  C
  C55      1.0000 0.30548  0.62090  0.44813  Biso   1.000  C
  C56      1.0000 0.19452  0.12090  0.05187  Biso   1.000  C
  C57      1.0000 0.62490  0.41970  0.51918  Biso   1.000  C
  C58      1.0000 0.87510  0.91970  0.98082  Biso   1.000  C
  C59      1.0000 0.37510  0.58030  0.48082  Biso   1.000  C
  C60      1.0000 0.12490  0.08030  0.01918  Biso   1.000  C
  H21      1.0000 0.59490  0.44800  0.53900  Biso   1.000  H
  H22      1.0000 0.90510  0.94800  0.96100  Biso   1.000  H
  H23      1.0000 0.40510  0.55200  0.46100  Biso   1.000  H
  H24      1.0000 0.09490  0.05200  0.03900  Biso   1.000  H
  C61      1.0000 0.60140  0.41740  0.45820  Biso   1.000  C
  C62      1.0000 0.89860  0.91740  0.04180  Biso   1.000  C
  C63      1.0000 0.39860  0.58260  0.54180  Biso   1.000  C
  C64      1.0000 0.10140  0.08260  0.95820  Biso   1.000  C
  H25      1.0000 0.55450  0.44280  0.43610  Biso   1.000  H
  H26      1.0000 0.94550  0.94280  0.06390  Biso   1.000  H
  H27      1.0000 0.44550  0.55720  0.56390  Biso   1.000  H
  H28      1.0000 0.05450  0.05720  0.93610  Biso   1.000  H
  C65      1.0000 0.64651  0.37740  0.42788  Biso   1.000  C
  C66      1.0000 0.85349  0.87740  0.07212  Biso   1.000  C
  C67      1.0000 0.35349  0.62260  0.57212  Biso   1.000  C
  C68      1.0000 0.14651  0.12260  0.92788  Biso   1.000  C
  H29      1.0000 0.62900  0.37710  0.38600  Biso   1.000  H
  H30      1.0000 0.87100  0.87710  0.11400  Biso   1.000  H
  H31      1.0000 0.37100  0.62290  0.61400  Biso   1.000  H
  H32      1.0000 0.12900  0.12290  0.88600  Biso   1.000  H
  C69      1.0000 0.73683  0.33970  0.51864  Biso   1.000  C
  C70      1.0000 0.76317  0.83970  0.98136  Biso   1.000  C
  C71      1.0000 0.26317  0.66030  0.48136  Biso   1.000  C
  C72      1.0000 0.23683  0.16030  0.01864  Biso   1.000  C
  C73      1.0000 0.80737  0.29480  0.54871  Biso   1.000  C
  C74      1.0000 0.69263  0.79480  0.95129  Biso   1.000  C
  C75      1.0000 0.19263  0.70520  0.45129  Biso   1.000  C
  C76      1.0000 0.30737  0.20520  0.04871  Biso   1.000  C
  C77      1.0000 0.81480  0.52390  0.44660  Biso   1.000  C
  C78      1.0000 0.68520  0.02390  0.05340  Biso   1.000  C
  C79      1.0000 0.18520  0.47610  0.55340  Biso   1.000  C
  C80      1.0000 0.31480  0.97610  0.94660  Biso   1.000  C
  H33      1.0000 0.77190  0.52610  0.45640  Biso   1.000  H
  H34      1.0000 0.72810  0.02610  0.04360  Biso   1.000  H
  H35      1.0000 0.22810  0.47390  0.54360  Biso   1.000  H
  H36      1.0000 0.27190  0.97390  0.95640  Biso   1.000  H
  C81      1.0000 0.85260  0.61710  0.44710  Biso   1.000  C
  C82      1.0000 0.64740  0.11710  0.05290  Biso   1.000  C
  C83      1.0000 0.14740  0.38290  0.55290  Biso   1.000  C
  C84      1.0000 0.35260  0.88290  0.94710  Biso   1.000  C
  H37      1.0000 0.83490  0.68020  0.45720  Biso   1.000  H
  H38      1.0000 0.66510  0.18020  0.04280  Biso   1.000  H
  H39      1.0000 0.16510  0.31980  0.54280  Biso   1.000  H
  H40      1.0000 0.33490  0.81980  0.95720  Biso   1.000  H
  C85      1.0000 0.91520  0.61640  0.43300  Biso   1.000  C
  C86      1.0000 0.58480  0.11640  0.06700  Biso   1.000  C
  C87      1.0000 0.08480  0.38360  0.56700  Biso   1.000  C
  C88      1.0000 0.41520  0.88360  0.93300  Biso   1.000  C
  H41      1.0000 0.94040  0.67910  0.43310  Biso   1.000  H
  H42      1.0000 0.55960  0.17910  0.06690  Biso   1.000  H
  H43      1.0000 0.05960  0.32090  0.56690  Biso   1.000  H
  H44      1.0000 0.44040  0.82090  0.93310  Biso   1.000  H
  C89      1.0000 0.94184  0.52170  0.41832  Biso   1.000  C
  C90      1.0000 0.55816  0.02170  0.08168  Biso   1.000  C
  C91      1.0000 0.05816  0.47830  0.58168  Biso   1.000  C
  C92      1.0000 0.44184  0.97830  0.91832  Biso   1.000  C
  C93      1.0000 0.00690  0.51040  0.40294  Biso   1.000  C
  C94      1.0000 0.49310  0.01040  0.09706  Biso   1.000  C
  C95      1.0000 0.99310  0.48960  0.59706  Biso   1.000  C
  C96      1.0000 0.50690  0.98960  0.90294  Biso   1.000  C
  H45      1.0000 0.03530  0.56980  0.40280  Biso   1.000  H
  H46      1.0000 0.46470  0.06980  0.09720  Biso   1.000  H
  H47      1.0000 0.96470  0.43020  0.59720  Biso   1.000  H
  H48      1.0000 0.53530  0.93020  0.90280  Biso   1.000  H
  C97      1.0000 0.02840  0.41690  0.38866  Biso   1.000  C
  C98      1.0000 0.47160  0.91690  0.11134  Biso   1.000  C
  C99      1.0000 0.97160  0.58310  0.61134  Biso   1.000  C
  C100     1.0000 0.52840  0.08310  0.88866  Biso   1.000  C
  H49      1.0000 0.07160  0.41240  0.37940  Biso   1.000  H
  H50      1.0000 0.42840  0.91240  0.12060  Biso   1.000  H
  H51      1.0000 0.92840  0.58760  0.62060  Biso   1.000  H
  H52      1.0000 0.57160  0.08760  0.87940  Biso   1.000  H
  C101     1.0000 0.98615  0.32340  0.38741  Biso   1.000  C
  C102     1.0000 0.51385  0.82340  0.11259  Biso   1.000  C
  C103     1.0000 0.01385  0.67660  0.61259  Biso   1.000  C
  C104     1.0000 0.48615  0.17660  0.88741  Biso   1.000  C
  C105     1.0000 0.00456  0.22350  0.37191  Biso   1.000  C
  C106     1.0000 0.49544  0.72350  0.12809  Biso   1.000  C
  C107     1.0000 0.99544  0.77650  0.62809  Biso   1.000  C
  C108     1.0000 0.50456  0.27650  0.87191  Biso   1.000  C
  H53      1.0000 0.04720  0.21370  0.36220  Biso   1.000  H
  H54      1.0000 0.45280  0.71370  0.13780  Biso   1.000  H
  H55      1.0000 0.95280  0.78630  0.63780  Biso   1.000  H
  H56      1.0000 0.54720  0.28630  0.86220  Biso   1.000  H
  C109     1.0000 0.95948  0.14130  0.37117  Biso   1.000  C
  C110     1.0000 0.54052  0.64130  0.12883  Biso   1.000  C
  C111     1.0000 0.04052  0.85870  0.62883  Biso   1.000  C
  C112     1.0000 0.45948  0.35870  0.87117  Biso   1.000  C
  H57      1.0000 0.97130  0.07430  0.36110  Biso   1.000  H
  H58      1.0000 0.52870  0.57430  0.13890  Biso   1.000  H
  H59      1.0000 0.02870  0.92570  0.63890  Biso   1.000  H
  H60      1.0000 0.47130  0.42570  0.86110  Biso   1.000  H
  C113     1.0000 0.89543  0.15600  0.38538  Biso   1.000  C
  C114     1.0000 0.60457  0.65600  0.11462  Biso   1.000  C
  C115     1.0000 0.10457  0.84400  0.61462  Biso   1.000  C
  C116     1.0000 0.39543  0.34400  0.88538  Biso   1.000  C
  H61      1.0000 0.86460  0.09850  0.38340  Biso   1.000  H
  H62      1.0000 0.63540  0.59850  0.11660  Biso   1.000  H
  H63      1.0000 0.13540  0.90150  0.61660  Biso   1.000  H
  H64      1.0000 0.36460  0.40150  0.88340  Biso   1.000  H
  C117     1.0000 0.92225  0.33190  0.40266  Biso   1.000  C
  C118     1.0000 0.57775  0.83190  0.09734  Biso   1.000  C
  C119     1.0000 0.07775  0.66810  0.59734  Biso   1.000  C
  C120     1.0000 0.42225  0.16810  0.90266  Biso   1.000  C
  C121     1.0000 0.90040  0.43120  0.41835  Biso   1.000  C
  C122     1.0000 0.59960  0.93120  0.08165  Biso   1.000  C
  C123     1.0000 0.09960  0.56880  0.58165  Biso   1.000  C
  C124     1.0000 0.40040  0.06880  0.91835  Biso   1.000  C
  C125     1.0000 0.57381  0.32210  0.67333  Biso   1.000  C
  C126     1.0000 0.92619  0.82210  0.82667  Biso   1.000  C
  C127     1.0000 0.42619  0.67790  0.32667  Biso   1.000  C
  C128     1.0000 0.07381  0.17790  0.17333  Biso   1.000  C
  C129     1.0000 0.07205  0.81500  0.80407  Biso   1.000  C
  C130     1.0000 0.42795  0.31500  0.69593  Biso   1.000  C
  C131     1.0000 0.92795  0.18500  0.19593  Biso   1.000  C
  C132     1.0000 0.57205  0.68500  0.30407  Biso   1.000  C
  H65      1.0000 0.04860  0.87370  0.81290  Biso   1.000  H
  H66      1.0000 0.45140  0.37370  0.68710  Biso   1.000  H
  H67      1.0000 0.95140  0.12630  0.18710  Biso   1.000  H
  H68      1.0000 0.54860  0.62630  0.31290  Biso   1.000  H
  C133     1.0000 0.13684  0.82960  0.79120  Biso   1.000  C
  C134     1.0000 0.36316  0.32960  0.70880  Biso   1.000  C
  C135     1.0000 0.86316  0.17040  0.20880  Biso   1.000  C
  C136     1.0000 0.63684  0.67040  0.29120  Biso   1.000  C
  H69      1.0000 0.15610  0.89710  0.79220  Biso   1.000  H
  H70      1.0000 0.34390  0.39710  0.70780  Biso   1.000  H
  H71      1.0000 0.84390  0.10290  0.20780  Biso   1.000  H
  H72      1.0000 0.65610  0.60290  0.29220  Biso   1.000  H
  C137     1.0000 0.17221  0.74580  0.77720  Biso   1.000  C
  C138     1.0000 0.32779  0.24580  0.72280  Biso   1.000  C
  C139     1.0000 0.82779  0.25420  0.22280  Biso   1.000  C
  C140     1.0000 0.67221  0.75420  0.27720  Biso   1.000  C
  H73      1.0000 0.21540  0.75580  0.76840  Biso   1.000  H
  H74      1.0000 0.28460  0.25580  0.73160  Biso   1.000  H
  H75      1.0000 0.78460  0.24420  0.23160  Biso   1.000  H
  H76      1.0000 0.71540  0.74420  0.26840  Biso   1.000  H
  C141     1.0000 0.14310  0.64520  0.77627  Biso   1.000  C
  C142     1.0000 0.35690  0.14520  0.72373  Biso   1.000  C
  C143     1.0000 0.85690  0.35480  0.22373  Biso   1.000  C
  C144     1.0000 0.64310  0.85480  0.27627  Biso   1.000  C
  C145     1.0000 0.17488  0.55120  0.76209  Biso   1.000  C
  C146     1.0000 0.32512  0.05120  0.73791  Biso   1.000  C
  C147     1.0000 0.82512  0.44880  0.23791  Biso   1.000  C
  C148     1.0000 0.67488  0.94880  0.26209  Biso   1.000  C
  H77      1.0000 0.21680  0.55610  0.75100  Biso   1.000  H
  H78      1.0000 0.28320  0.05610  0.74900  Biso   1.000  H
  H79      1.0000 0.78320  0.44390  0.24900  Biso   1.000  H
  H80      1.0000 0.71680  0.94390  0.25100  Biso   1.000  H
  C149     1.0000 0.14544  0.45600  0.76445  Biso   1.000  C
  C150     1.0000 0.35456  0.95600  0.73555  Biso   1.000  C
  C151     1.0000 0.85456  0.54400  0.23555  Biso   1.000  C
  C152     1.0000 0.64544  0.04400  0.26445  Biso   1.000  C
  H81      1.0000 0.16760  0.39640  0.75510  Biso   1.000  H
  H82      1.0000 0.33240  0.89640  0.74490  Biso   1.000  H
  H83      1.0000 0.83240  0.60360  0.24490  Biso   1.000  H
  H84      1.0000 0.66760  0.10360  0.25510  Biso   1.000  H
  C153     1.0000 0.08070  0.44410  0.78097  Biso   1.000  C
  C154     1.0000 0.41930  0.94410  0.71903  Biso   1.000  C
  C155     1.0000 0.91930  0.55590  0.21903  Biso   1.000  C
  C156     1.0000 0.58070  0.05590  0.28097  Biso   1.000  C
  C157     1.0000 0.04740  0.34850  0.78598  Biso   1.000  C
  C158     1.0000 0.45260  0.84850  0.71402  Biso   1.000  C
  C159     1.0000 0.95260  0.65150  0.21402  Biso   1.000  C
  C160     1.0000 0.54740  0.15150  0.28598  Biso   1.000  C
  H85      1.0000 0.06820  0.28540  0.77950  Biso   1.000  H
  H86      1.0000 0.43180  0.78540  0.72050  Biso   1.000  H
  H87      1.0000 0.93180  0.71460  0.22050  Biso   1.000  H
  H88      1.0000 0.56820  0.21460  0.27950  Biso   1.000  H
  C161     1.0000 0.98472  0.34750  0.80028  Biso   1.000  C
  C162     1.0000 0.51528  0.84750  0.69972  Biso   1.000  C
  C163     1.0000 0.01528  0.65250  0.19972  Biso   1.000  C
  C164     1.0000 0.48472  0.15250  0.30028  Biso   1.000  C
  H89      1.0000 0.96240  0.28380  0.80360  Biso   1.000  H
  H90      1.0000 0.53760  0.78380  0.69640  Biso   1.000  H
  H91      1.0000 0.03760  0.71620  0.19640  Biso   1.000  H
  H92      1.0000 0.46240  0.21620  0.30360  Biso   1.000  H
  C165     1.0000 0.95430  0.44120  0.80989  Biso   1.000  C
  C166     1.0000 0.54570  0.94120  0.69011  Biso   1.000  C
  C167     1.0000 0.04570  0.55880  0.19011  Biso   1.000  C
  C168     1.0000 0.45430  0.05880  0.30989  Biso   1.000  C
  H93      1.0000 0.91110  0.43870  0.81920  Biso   1.000  H
  H94      1.0000 0.58890  0.93870  0.68080  Biso   1.000  H
  H95      1.0000 0.08890  0.56130  0.18080  Biso   1.000  H
  H96      1.0000 0.41110  0.06130  0.31920  Biso   1.000  H
  C169     1.0000 0.04664  0.53580  0.79220  Biso   1.000  C
  C170     1.0000 0.45336  0.03580  0.70780  Biso   1.000  C
  C171     1.0000 0.95336  0.46420  0.20780  Biso   1.000  C
  C172     1.0000 0.54664  0.96420  0.29220  Biso   1.000  C
  C173     1.0000 0.07868  0.63600  0.79086  Biso   1.000  C
  C174     1.0000 0.42132  0.13600  0.70914  Biso   1.000  C
  C175     1.0000 0.92132  0.36400  0.20914  Biso   1.000  C
  C176     1.0000 0.57868  0.86400  0.29086  Biso   1.000  C
  C177     1.0000 0.06134  0.69730  0.94372  Biso   1.000  C
  C178     1.0000 0.43866  0.19730  0.55628  Biso   1.000  C
  C179     1.0000 0.93866  0.30270  0.05628  Biso   1.000  C
  C180     1.0000 0.56134  0.80270  0.44372  Biso   1.000  C
  H97      1.0000 0.09680  0.71660  0.92690  Biso   1.000  H
  H98      1.0000 0.40320  0.21660  0.57310  Biso   1.000  H
  H99      1.0000 0.90320  0.28340  0.07310  Biso   1.000  H
  H100     1.0000 0.59680  0.78340  0.42690  Biso   1.000  H
  C181     1.0000 0.08120  0.69820  0.00604  Biso   1.000  C
  C182     1.0000 0.41880  0.19820  0.49396  Biso   1.000  C
  C183     1.0000 0.91880  0.30180  0.99396  Biso   1.000  C
  C184     1.0000 0.58120  0.80180  0.50604  Biso   1.000  C
  H101     1.0000 0.12840  0.72000  0.02990  Biso   1.000  H
  H102     1.0000 0.37160  0.22000  0.47010  Biso   1.000  H
  H103     1.0000 0.87160  0.28000  0.97010  Biso   1.000  H
  H104     1.0000 0.62840  0.78000  0.52990  Biso   1.000  H
  C185     1.0000 0.03210  0.66760  0.03176  Biso   1.000  C
  C186     1.0000 0.46790  0.16760  0.46824  Biso   1.000  C
  C187     1.0000 0.96790  0.33240  0.96824  Biso   1.000  C
  C188     1.0000 0.53210  0.83240  0.53176  Biso   1.000  C
  H105     1.0000 0.04540  0.66790  0.07350  Biso   1.000  H
  H106     1.0000 0.45460  0.16790  0.42650  Biso   1.000  H
  H107     1.0000 0.95460  0.33210  0.92650  Biso   1.000  H
  H108     1.0000 0.54540  0.83210  0.57350  Biso   1.000  H
  C189     1.0000 0.96090  0.63510  0.99593  Biso   1.000  C
  C190     1.0000 0.53910  0.13510  0.50407  Biso   1.000  C
  C191     1.0000 0.03910  0.36490  0.00407  Biso   1.000  C
  C192     1.0000 0.46090  0.86490  0.49593  Biso   1.000  C
  C193     1.0000 0.90460  0.59870  0.01755  Biso   1.000  C
  C194     1.0000 0.59540  0.09870  0.48245  Biso   1.000  C
  C195     1.0000 0.09540  0.40130  0.98245  Biso   1.000  C
  C196     1.0000 0.40460  0.90130  0.51755  Biso   1.000  C
  H109     1.0000 0.91430  0.59650  0.05890  Biso   1.000  H
  H110     1.0000 0.58570  0.09650  0.44110  Biso   1.000  H
  H111     1.0000 0.08570  0.40350  0.94110  Biso   1.000  H
  H112     1.0000 0.41430  0.90350  0.55890  Biso   1.000  H
  C197     1.0000 0.83810  0.56740  0.98024  Biso   1.000  C
  C198     1.0000 0.66190  0.06740  0.51976  Biso   1.000  C
  C199     1.0000 0.16190  0.43260  0.01976  Biso   1.000  C
  C200     1.0000 0.33810  0.93260  0.48024  Biso   1.000  C
  H113     1.0000 0.80320  0.54260  0.99620  Biso   1.000  H
  H114     1.0000 0.69680  0.04260  0.50380  Biso   1.000  H
  H115     1.0000 0.19680  0.45740  0.00380  Biso   1.000  H
  H116     1.0000 0.30320  0.95740  0.49620  Biso   1.000  H
  C201     1.0000 0.82019  0.57150  0.91674  Biso   1.000  C
  C202     1.0000 0.67981  0.07150  0.58326  Biso   1.000  C
  C203     1.0000 0.17981  0.42850  0.08326  Biso   1.000  C
  C204     1.0000 0.32019  0.92850  0.41674  Biso   1.000  C
  C205     1.0000 0.75260  0.53980  0.87465  Biso   1.000  C
  C206     1.0000 0.74740  0.03980  0.62535  Biso   1.000  C
  C207     1.0000 0.24740  0.46020  0.12535  Biso   1.000  C
  C208     1.0000 0.25260  0.96020  0.37465  Biso   1.000  C
  H117     1.0000 0.71580  0.51150  0.88740  Biso   1.000  H
  H118     1.0000 0.78420  0.01150  0.61260  Biso   1.000  H
  H119     1.0000 0.28420  0.48850  0.11260  Biso   1.000  H
  H120     1.0000 0.21580  0.98850  0.38740  Biso   1.000  H
  C209     1.0000 0.74126  0.55080  0.81465  Biso   1.000  C
  C210     1.0000 0.75874  0.05080  0.68535  Biso   1.000  C
  C211     1.0000 0.25874  0.44920  0.18535  Biso   1.000  C
  C212     1.0000 0.24126  0.94920  0.31465  Biso   1.000  C
  H121     1.0000 0.69680  0.52860  0.78630  Biso   1.000  H
  H122     1.0000 0.80320  0.02860  0.71370  Biso   1.000  H
  H123     1.0000 0.30320  0.47140  0.21370  Biso   1.000  H
  H124     1.0000 0.19680  0.97140  0.28630  Biso   1.000  H
  C213     1.0000 0.79593  0.59520  0.79527  Biso   1.000  C
  C214     1.0000 0.70407  0.09520  0.70473  Biso   1.000  C
  C215     1.0000 0.20407  0.40480  0.20473  Biso   1.000  C
  C216     1.0000 0.29593  0.90480  0.29527  Biso   1.000  C
  H125     1.0000 0.78600  0.60490  0.75420  Biso   1.000  H
  H126     1.0000 0.71400  0.10490  0.74580  Biso   1.000  H
  H127     1.0000 0.21400  0.39510  0.24580  Biso   1.000  H
  H128     1.0000 0.28600  0.89510  0.25420  Biso   1.000  H
  C217     1.0000 0.87373  0.61110  0.89373  Biso   1.000  C
  C218     1.0000 0.62627  0.11110  0.60627  Biso   1.000  C
  C219     1.0000 0.12627  0.38890  0.10627  Biso   1.000  C
  C220     1.0000 0.37373  0.88890  0.39373  Biso   1.000  C
  C221     1.0000 0.94502  0.63950  0.93359  Biso   1.000  C
  C222     1.0000 0.55498  0.13950  0.56641  Biso   1.000  C
  C223     1.0000 0.05498  0.36050  0.06641  Biso   1.000  C
  C224     1.0000 0.44502  0.86050  0.43359  Biso   1.000  C
