data_image0
_cell_length_a       6.0928
_cell_length_b       16.889
_cell_length_c       13.4625
_cell_angle_alpha    90
_cell_angle_beta     96.174
_cell_angle_gamma    90

_symmetry_space_group_name_H-M    "P 1"
_symmetry_int_tables_number       1

loop_
  _symmetry_equiv_pos_as_xyz
  'x, y, z'

loop_
  _atom_site_label
  _atom_site_occupancy
  _atom_site_fract_x
  _atom_site_fract_y
  _atom_site_fract_z
  _atom_site_thermal_displace_type
  _atom_site_B_iso_or_equiv
  _atom_site_type_symbol
  Cu1      1.0000 0.20000  0.89977  0.60000  Biso   1.000  Cu
  Cu2      1.0000 0.20000  0.10023  0.10000  Biso   1.000  Cu
  Cu3      1.0000 0.70000  0.39977  0.60000  Biso   1.000  Cu
  Cu4      1.0000 0.70000  0.60023  0.10000  Biso   1.000  Cu
  Cu5      1.0000 0.20367  0.59452  0.41420  Biso   1.000  Cu
  Cu6      1.0000 0.20367  0.40548  0.91420  Biso   1.000  Cu
  Cu7      1.0000 0.70367  0.09452  0.41420  Biso   1.000  Cu
  Cu8      1.0000 0.70367  0.90548  0.91420  Biso   1.000  Cu
  N1       1.0000 0.36430  0.83440  0.49220  Biso   1.000  N
  N2       1.0000 0.36430  0.16560  0.99220  Biso   1.000  N
  N3       1.0000 0.86430  0.33440  0.49220  Biso   1.000  N
  N4       1.0000 0.86430  0.66560  0.99220  Biso   1.000  N
  N5       1.0000 0.38440  0.70520  0.42240  Biso   1.000  N
  N6       1.0000 0.38440  0.29480  0.92240  Biso   1.000  N
  N7       1.0000 0.88440  0.20520  0.42240  Biso   1.000  N
  N8       1.0000 0.88440  0.79480  0.92240  Biso   1.000  N
  N9       1.0000 0.03870  0.66000  0.52120  Biso   1.000  N
  N10      1.0000 0.03870  0.34000  0.02120  Biso   1.000  N
  N11      1.0000 0.53870  0.16000  0.52120  Biso   1.000  N
  N12      1.0000 0.53870  0.84000  0.02120  Biso   1.000  N
  N13      1.0000 0.02830  0.78880  0.59120  Biso   1.000  N
  N14      1.0000 0.02830  0.21120  0.09120  Biso   1.000  N
  N15      1.0000 0.52830  0.28880  0.59120  Biso   1.000  N
  N16      1.0000 0.52830  0.71120  0.09120  Biso   1.000  N
  N17      1.0000 0.38360  0.90560  0.72080  Biso   1.000  N
  N18      1.0000 0.38360  0.09440  0.22080  Biso   1.000  N
  N19      1.0000 0.88360  0.40560  0.72080  Biso   1.000  N
  N20      1.0000 0.88360  0.59440  0.22080  Biso   1.000  N
  C1       1.0000 0.50430  0.90710  0.79410  Biso   1.000  C
  C2       1.0000 0.50430  0.09290  0.29410  Biso   1.000  C
  C3       1.0000 0.00430  0.40710  0.79410  Biso   1.000  C
  C4       1.0000 0.00430  0.59290  0.29410  Biso   1.000  C
  N21      1.0000 0.01300  0.97520  0.52800  Biso   1.000  N
  N22      1.0000 0.01300  0.02480  0.02800  Biso   1.000  N
  N23      1.0000 0.51300  0.47520  0.52800  Biso   1.000  N
  N24      1.0000 0.51300  0.52480  0.02800  Biso   1.000  N
  C5       1.0000 0.89230  0.01910  0.48480  Biso   1.000  C
  C6       1.0000 0.89230  0.98090  0.98480  Biso   1.000  C
  C7       1.0000 0.39230  0.51910  0.48480  Biso   1.000  C
  C8       1.0000 0.39230  0.48090  0.98480  Biso   1.000  C
  C9       1.0000 0.52910  0.85660  0.44700  Biso   1.000  C
  C10      1.0000 0.52910  0.14340  0.94700  Biso   1.000  C
  C11      1.0000 0.02910  0.35660  0.44700  Biso   1.000  C
  C12      1.0000 0.02910  0.64340  0.94700  Biso   1.000  C
  H1       1.0000 0.58190  0.90920  0.45740  Biso   1.000  H
  H2       1.0000 0.58190  0.09080  0.95740  Biso   1.000  H
  H3       1.0000 0.08190  0.40920  0.45740  Biso   1.000  H
  H4       1.0000 0.08190  0.59080  0.95740  Biso   1.000  H
  C13      1.0000 0.63840  0.80600  0.38120  Biso   1.000  C
  C14      1.0000 0.63840  0.19400  0.88120  Biso   1.000  C
  C15      1.0000 0.13840  0.30600  0.38120  Biso   1.000  C
  C16      1.0000 0.13840  0.69400  0.88120  Biso   1.000  C
  H5       1.0000 0.75240  0.82370  0.34360  Biso   1.000  H
  H6       1.0000 0.75240  0.17630  0.84360  Biso   1.000  H
  H7       1.0000 0.25240  0.32370  0.34360  Biso   1.000  H
  H8       1.0000 0.25240  0.67630  0.84360  Biso   1.000  H
  C17      1.0000 0.55680  0.72660  0.37840  Biso   1.000  C
  C18      1.0000 0.55680  0.27340  0.87840  Biso   1.000  C
  C19      1.0000 0.05680  0.22660  0.37840  Biso   1.000  C
  C20      1.0000 0.05680  0.77340  0.87840  Biso   1.000  C
  H9       1.0000 0.63060  0.68770  0.34330  Biso   1.000  H
  H10      1.0000 0.63060  0.31230  0.84330  Biso   1.000  H
  H11      1.0000 0.13060  0.18770  0.34330  Biso   1.000  H
  H12      1.0000 0.13060  0.81230  0.84330  Biso   1.000  H
  C21      1.0000 0.86700  0.63820  0.57680  Biso   1.000  C
  C22      1.0000 0.86700  0.36180  0.07680  Biso   1.000  C
  C23      1.0000 0.36700  0.13820  0.57680  Biso   1.000  C
  C24      1.0000 0.36700  0.86180  0.07680  Biso   1.000  C
  H13      1.0000 0.81490  0.58520  0.57430  Biso   1.000  H
  H14      1.0000 0.81490  0.41480  0.07430  Biso   1.000  H
  H15      1.0000 0.31490  0.08520  0.57430  Biso   1.000  H
  H16      1.0000 0.31490  0.91480  0.07430  Biso   1.000  H
  C25      1.0000 0.77670  0.69090  0.63280  Biso   1.000  C
  C26      1.0000 0.77670  0.30910  0.13280  Biso   1.000  C
  C27      1.0000 0.27670  0.19090  0.63280  Biso   1.000  C
  C28      1.0000 0.27670  0.80910  0.13280  Biso   1.000  C
  C29      1.0000 0.85840  0.76540  0.64210  Biso   1.000  C
  C30      1.0000 0.85840  0.23460  0.14210  Biso   1.000  C
  C31      1.0000 0.35840  0.26540  0.64210  Biso   1.000  C
  C32      1.0000 0.35840  0.73460  0.14210  Biso   1.000  C
  H17      1.0000 0.79610  0.80180  0.68490  Biso   1.000  H
  H18      1.0000 0.79610  0.19820  0.18490  Biso   1.000  H
  H19      1.0000 0.29610  0.30180  0.68490  Biso   1.000  H
  H20      1.0000 0.29610  0.69820  0.18490  Biso   1.000  H
  C33      1.0000 0.10720  0.73540  0.53650  Biso   1.000  C
  C34      1.0000 0.10720  0.26460  0.03650  Biso   1.000  C
  C35      1.0000 0.60720  0.23540  0.53650  Biso   1.000  C
  C36      1.0000 0.60720  0.76460  0.03650  Biso   1.000  C
  C37      1.0000 0.29380  0.75930  0.48260  Biso   1.000  C
  C38      1.0000 0.29380  0.24070  0.98260  Biso   1.000  C
  C39      1.0000 0.79380  0.25930  0.48260  Biso   1.000  C
  C40      1.0000 0.79380  0.74070  0.98260  Biso   1.000  C
  C41      1.0000 0.59810  0.66800  0.68980  Biso   1.000  C
  C42      1.0000 0.59810  0.33200  0.18980  Biso   1.000  C
  C43      1.0000 0.09810  0.16800  0.68980  Biso   1.000  C
  C44      1.0000 0.09810  0.83200  0.18980  Biso   1.000  C
  H21      1.0000 0.50750  0.71440  0.70090  Biso   1.000  H
  H22      1.0000 0.50750  0.28560  0.20090  Biso   1.000  H
  H23      1.0000 0.00750  0.21440  0.70090  Biso   1.000  H
  H24      1.0000 0.00750  0.78560  0.20090  Biso   1.000  H
  H25      1.0000 0.65940  0.64620  0.75430  Biso   1.000  H
  H26      1.0000 0.65940  0.35380  0.25430  Biso   1.000  H
  H27      1.0000 0.15940  0.14620  0.75430  Biso   1.000  H
  H28      1.0000 0.15940  0.85380  0.25430  Biso   1.000  H
  H29      1.0000 0.50660  0.62780  0.65270  Biso   1.000  H
  H30      1.0000 0.50660  0.37220  0.15270  Biso   1.000  H
  H31      1.0000 0.00660  0.12780  0.65270  Biso   1.000  H
  H32      1.0000 0.00660  0.87220  0.15270  Biso   1.000  H
