data_image0
_cell_length_a       14.927
_cell_length_b       9.3301
_cell_length_c       19.464
_cell_angle_alpha    90
_cell_angle_beta     97.491
_cell_angle_gamma    90

_symmetry_space_group_name_H-M    "P 1"
_symmetry_int_tables_number       1

loop_
  _symmetry_equiv_pos_as_xyz
  'x, y, z'

loop_
  _atom_site_label
  _atom_site_occupancy
  _atom_site_fract_x
  _atom_site_fract_y
  _atom_site_fract_z
  _atom_site_thermal_displace_type
  _atom_site_B_iso_or_equiv
  _atom_site_type_symbol
  Cu1      1.0000 0.71227  0.84734  0.09815  Biso   1.000  Cu
  Cu2      1.0000 0.21227  0.34734  0.09815  Biso   1.000  Cu
  Cu3      1.0000 0.28773  0.84734  0.40185  Biso   1.000  Cu
  Cu4      1.0000 0.78773  0.34734  0.40185  Biso   1.000  Cu
  Cu5      1.0000 0.28773  0.15266  0.90185  Biso   1.000  Cu
  Cu6      1.0000 0.78773  0.65266  0.90185  Biso   1.000  Cu
  Cu7      1.0000 0.71227  0.15266  0.59815  Biso   1.000  Cu
  Cu8      1.0000 0.21227  0.65266  0.59815  Biso   1.000  Cu
  Cu9      1.0000 0.54393  0.39157  0.10084  Biso   1.000  Cu
  Cu10     1.0000 0.04393  0.89157  0.10084  Biso   1.000  Cu
  Cu11     1.0000 0.45607  0.39157  0.39916  Biso   1.000  Cu
  Cu12     1.0000 0.95607  0.89157  0.39916  Biso   1.000  Cu
  Cu13     1.0000 0.45607  0.60843  0.89916  Biso   1.000  Cu
  Cu14     1.0000 0.95607  0.10843  0.89916  Biso   1.000  Cu
  Cu15     1.0000 0.54393  0.60843  0.60084  Biso   1.000  Cu
  Cu16     1.0000 0.04393  0.10843  0.60084  Biso   1.000  Cu
  O1       1.0000 0.62130  0.64220  0.27470  Biso   1.000  O
  O2       1.0000 0.12130  0.14220  0.27470  Biso   1.000  O
  O3       1.0000 0.37870  0.64220  0.22530  Biso   1.000  O
  O4       1.0000 0.87870  0.14220  0.22530  Biso   1.000  O
  O5       1.0000 0.37870  0.35780  0.72530  Biso   1.000  O
  O6       1.0000 0.87870  0.85780  0.72530  Biso   1.000  O
  O7       1.0000 0.62130  0.35780  0.77470  Biso   1.000  O
  O8       1.0000 0.12130  0.85780  0.77470  Biso   1.000  O
  O9       1.0000 0.53830  0.79410  0.22970  Biso   1.000  O
  O10      1.0000 0.03830  0.29410  0.22970  Biso   1.000  O
  O11      1.0000 0.46170  0.79410  0.27030  Biso   1.000  O
  O12      1.0000 0.96170  0.29410  0.27030  Biso   1.000  O
  O13      1.0000 0.46170  0.20590  0.77030  Biso   1.000  O
  O14      1.0000 0.96170  0.70590  0.77030  Biso   1.000  O
  O15      1.0000 0.53830  0.20590  0.72970  Biso   1.000  O
  O16      1.0000 0.03830  0.70590  0.72970  Biso   1.000  O
  N1       1.0000 0.64400  0.99980  0.03110  Biso   1.000  N
  N2       1.0000 0.14400  0.49980  0.03110  Biso   1.000  N
  N3       1.0000 0.35600  0.99980  0.46890  Biso   1.000  N
  N4       1.0000 0.85600  0.49980  0.46890  Biso   1.000  N
  N5       1.0000 0.35600  0.00020  0.96890  Biso   1.000  N
  N6       1.0000 0.85600  0.50020  0.96890  Biso   1.000  N
  N7       1.0000 0.64400  0.00020  0.53110  Biso   1.000  N
  N8       1.0000 0.14400  0.50020  0.53110  Biso   1.000  N
  N9       1.0000 0.58260  0.23470  0.03091  Biso   1.000  N
  N10      1.0000 0.08260  0.73470  0.03091  Biso   1.000  N
  N11      1.0000 0.41740  0.23470  0.46909  Biso   1.000  N
  N12      1.0000 0.91740  0.73470  0.46909  Biso   1.000  N
  N13      1.0000 0.41740  0.76530  0.96909  Biso   1.000  N
  N14      1.0000 0.91740  0.26530  0.96909  Biso   1.000  N
  N15      1.0000 0.58260  0.76530  0.53091  Biso   1.000  N
  N16      1.0000 0.08260  0.26530  0.53091  Biso   1.000  N
  N17      1.0000 0.60340  0.23080  0.17000  Biso   1.000  N
  N18      1.0000 0.10340  0.73080  0.17000  Biso   1.000  N
  N19      1.0000 0.39660  0.23080  0.33000  Biso   1.000  N
  N20      1.0000 0.89660  0.73080  0.33000  Biso   1.000  N
  N21      1.0000 0.39660  0.76920  0.83000  Biso   1.000  N
  N22      1.0000 0.89660  0.26920  0.83000  Biso   1.000  N
  N23      1.0000 0.60340  0.76920  0.67000  Biso   1.000  N
  N24      1.0000 0.10340  0.26920  0.67000  Biso   1.000  N
  N25      1.0000 0.67000  0.99990  0.16950  Biso   1.000  N
  N26      1.0000 0.17000  0.49990  0.16950  Biso   1.000  N
  N27      1.0000 0.33000  0.99990  0.33050  Biso   1.000  N
  N28      1.0000 0.83000  0.49990  0.33050  Biso   1.000  N
  N29      1.0000 0.33000  0.00010  0.83050  Biso   1.000  N
  N30      1.0000 0.83000  0.50010  0.83050  Biso   1.000  N
  N31      1.0000 0.67000  0.00010  0.66950  Biso   1.000  N
  N32      1.0000 0.17000  0.50010  0.66950  Biso   1.000  N
  N33      1.0000 0.65560  0.66790  0.10480  Biso   1.000  N
  N34      1.0000 0.15560  0.16790  0.10480  Biso   1.000  N
  N35      1.0000 0.34440  0.66790  0.39520  Biso   1.000  N
  N36      1.0000 0.84440  0.16790  0.39520  Biso   1.000  N
  N37      1.0000 0.34440  0.33210  0.89520  Biso   1.000  N
  N38      1.0000 0.84440  0.83210  0.89520  Biso   1.000  N
  N39      1.0000 0.65560  0.33210  0.60480  Biso   1.000  N
  N40      1.0000 0.15560  0.83210  0.60480  Biso   1.000  N
  C1       1.0000 0.61810  0.55760  0.10690  Biso   1.000  C
  C2       1.0000 0.11810  0.05760  0.10690  Biso   1.000  C
  C3       1.0000 0.38190  0.55760  0.39310  Biso   1.000  C
  C4       1.0000 0.88190  0.05760  0.39310  Biso   1.000  C
  C5       1.0000 0.38190  0.44240  0.89310  Biso   1.000  C
  C6       1.0000 0.88190  0.94240  0.89310  Biso   1.000  C
  C7       1.0000 0.61810  0.44240  0.60690  Biso   1.000  C
  C8       1.0000 0.11810  0.94240  0.60690  Biso   1.000  C
  N41      1.0000 0.83880  0.87790  0.09860  Biso   1.000  N
  N42      1.0000 0.33880  0.37790  0.09860  Biso   1.000  N
  N43      1.0000 0.16120  0.87790  0.40140  Biso   1.000  N
  N44      1.0000 0.66120  0.37790  0.40140  Biso   1.000  N
  N45      1.0000 0.16120  0.12210  0.90140  Biso   1.000  N
  N46      1.0000 0.66120  0.62210  0.90140  Biso   1.000  N
  N47      1.0000 0.83880  0.12210  0.59860  Biso   1.000  N
  N48      1.0000 0.33880  0.62210  0.59860  Biso   1.000  N
  C9       1.0000 0.91830  0.88860  0.09970  Biso   1.000  C
  C10      1.0000 0.41830  0.38860  0.09970  Biso   1.000  C
  C11      1.0000 0.08170  0.88860  0.40030  Biso   1.000  C
  C12      1.0000 0.58170  0.38860  0.40030  Biso   1.000  C
  C13      1.0000 0.08170  0.11140  0.90030  Biso   1.000  C
  C14      1.0000 0.58170  0.61140  0.90030  Biso   1.000  C
  C15      1.0000 0.91830  0.11140  0.59970  Biso   1.000  C
  C16      1.0000 0.41830  0.61140  0.59970  Biso   1.000  C
  C17      1.0000 0.63080  0.00020  0.96160  Biso   1.000  C
  C18      1.0000 0.13080  0.50020  0.96160  Biso   1.000  C
  C19      1.0000 0.36920  0.00020  0.53840  Biso   1.000  C
  C20      1.0000 0.86920  0.50020  0.53840  Biso   1.000  C
  C21      1.0000 0.36920  0.99980  0.03840  Biso   1.000  C
  C22      1.0000 0.86920  0.49980  0.03840  Biso   1.000  C
  C23      1.0000 0.63080  0.99980  0.46160  Biso   1.000  C
  C24      1.0000 0.13080  0.49980  0.46160  Biso   1.000  C
  H1       1.0000 0.64740  0.91810  0.93730  Biso   1.000  H
  H2       1.0000 0.14740  0.41810  0.93730  Biso   1.000  H
  H3       1.0000 0.35260  0.91810  0.56270  Biso   1.000  H
  H4       1.0000 0.85260  0.41810  0.56270  Biso   1.000  H
  H5       1.0000 0.35260  0.08190  0.06270  Biso   1.000  H
  H6       1.0000 0.85260  0.58190  0.06270  Biso   1.000  H
  H7       1.0000 0.64740  0.08190  0.43730  Biso   1.000  H
  H8       1.0000 0.14740  0.58190  0.43730  Biso   1.000  H
  C25      1.0000 0.59400  0.11630  0.92450  Biso   1.000  C
  C26      1.0000 0.09400  0.61630  0.92450  Biso   1.000  C
  C27      1.0000 0.40600  0.11630  0.57550  Biso   1.000  C
  C28      1.0000 0.90600  0.61630  0.57550  Biso   1.000  C
  C29      1.0000 0.40600  0.88370  0.07550  Biso   1.000  C
  C30      1.0000 0.90600  0.38370  0.07550  Biso   1.000  C
  C31      1.0000 0.59400  0.88370  0.42450  Biso   1.000  C
  C32      1.0000 0.09400  0.38370  0.42450  Biso   1.000  C
  H9       1.0000 0.58510  0.11600  0.87530  Biso   1.000  H
  H10      1.0000 0.08510  0.61600  0.87530  Biso   1.000  H
  H11      1.0000 0.41490  0.11600  0.62470  Biso   1.000  H
  H12      1.0000 0.91490  0.61600  0.62470  Biso   1.000  H
  H13      1.0000 0.41490  0.88400  0.12470  Biso   1.000  H
  H14      1.0000 0.91490  0.38400  0.12470  Biso   1.000  H
  H15      1.0000 0.58510  0.88400  0.37530  Biso   1.000  H
  H16      1.0000 0.08510  0.38400  0.37530  Biso   1.000  H
  C33      1.0000 0.57040  0.23380  0.96190  Biso   1.000  C
  C34      1.0000 0.07040  0.73380  0.96190  Biso   1.000  C
  C35      1.0000 0.42960  0.23380  0.53810  Biso   1.000  C
  C36      1.0000 0.92960  0.73380  0.53810  Biso   1.000  C
  C37      1.0000 0.42960  0.76620  0.03810  Biso   1.000  C
  C38      1.0000 0.92960  0.26620  0.03810  Biso   1.000  C
  C39      1.0000 0.57040  0.76620  0.46190  Biso   1.000  C
  C40      1.0000 0.07040  0.26620  0.46190  Biso   1.000  C
  H17      1.0000 0.54480  0.31560  0.93770  Biso   1.000  H
  H18      1.0000 0.04480  0.81560  0.93770  Biso   1.000  H
  H19      1.0000 0.45520  0.31560  0.56230  Biso   1.000  H
  H20      1.0000 0.95520  0.81560  0.56230  Biso   1.000  H
  H21      1.0000 0.45520  0.68440  0.06230  Biso   1.000  H
  H22      1.0000 0.95520  0.18440  0.06230  Biso   1.000  H
  H23      1.0000 0.54480  0.68440  0.43770  Biso   1.000  H
  H24      1.0000 0.04480  0.18440  0.43770  Biso   1.000  H
  C41      1.0000 0.61630  0.22940  0.23950  Biso   1.000  C
  C42      1.0000 0.11630  0.72940  0.23950  Biso   1.000  C
  C43      1.0000 0.38370  0.22940  0.26050  Biso   1.000  C
  C44      1.0000 0.88370  0.72940  0.26050  Biso   1.000  C
  C45      1.0000 0.38370  0.77060  0.76050  Biso   1.000  C
  C46      1.0000 0.88370  0.27060  0.76050  Biso   1.000  C
  C47      1.0000 0.61630  0.77060  0.73950  Biso   1.000  C
  C48      1.0000 0.11630  0.27060  0.73950  Biso   1.000  C
  H25      1.0000 0.59690  0.30930  0.26390  Biso   1.000  H
  H26      1.0000 0.09690  0.80930  0.26390  Biso   1.000  H
  H27      1.0000 0.40310  0.30930  0.23610  Biso   1.000  H
  H28      1.0000 0.90310  0.80930  0.23610  Biso   1.000  H
  H29      1.0000 0.40310  0.69070  0.73610  Biso   1.000  H
  H30      1.0000 0.90310  0.19070  0.73610  Biso   1.000  H
  H31      1.0000 0.59690  0.69070  0.76390  Biso   1.000  H
  H32      1.0000 0.09690  0.19070  0.76390  Biso   1.000  H
  C49      1.0000 0.65620  0.11730  0.27590  Biso   1.000  C
  C50      1.0000 0.15620  0.61730  0.27590  Biso   1.000  C
  C51      1.0000 0.34380  0.11730  0.22410  Biso   1.000  C
  C52      1.0000 0.84380  0.61730  0.22410  Biso   1.000  C
  C53      1.0000 0.34380  0.88270  0.72410  Biso   1.000  C
  C54      1.0000 0.84380  0.38270  0.72410  Biso   1.000  C
  C55      1.0000 0.65620  0.88270  0.77590  Biso   1.000  C
  C56      1.0000 0.15620  0.38270  0.77590  Biso   1.000  C
  H33      1.0000 0.66590  0.11820  0.32510  Biso   1.000  H
  H34      1.0000 0.16590  0.61820  0.32510  Biso   1.000  H
  H35      1.0000 0.33410  0.11820  0.17490  Biso   1.000  H
  H36      1.0000 0.83410  0.61820  0.17490  Biso   1.000  H
  H37      1.0000 0.33410  0.88180  0.67490  Biso   1.000  H
  H38      1.0000 0.83410  0.38180  0.67490  Biso   1.000  H
  H39      1.0000 0.66590  0.88180  0.82510  Biso   1.000  H
  H40      1.0000 0.16590  0.38180  0.82510  Biso   1.000  H
  C57      1.0000 0.68220  0.00230  0.23880  Biso   1.000  C
  C58      1.0000 0.18220  0.50230  0.23880  Biso   1.000  C
  C59      1.0000 0.31780  0.00230  0.26120  Biso   1.000  C
  C60      1.0000 0.81780  0.50230  0.26120  Biso   1.000  C
  C61      1.0000 0.31780  0.99770  0.76120  Biso   1.000  C
  C62      1.0000 0.81780  0.49770  0.76120  Biso   1.000  C
  C63      1.0000 0.68220  0.99770  0.73880  Biso   1.000  C
  C64      1.0000 0.18220  0.49770  0.73880  Biso   1.000  C
  H41      1.0000 0.70970  0.92210  0.26320  Biso   1.000  H
  H42      1.0000 0.20970  0.42210  0.26320  Biso   1.000  H
  H43      1.0000 0.29030  0.92210  0.23680  Biso   1.000  H
  H44      1.0000 0.79030  0.42210  0.23680  Biso   1.000  H
  H45      1.0000 0.29030  0.07790  0.73680  Biso   1.000  H
  H46      1.0000 0.79030  0.57790  0.73680  Biso   1.000  H
  H47      1.0000 0.70970  0.07790  0.76320  Biso   1.000  H
  H48      1.0000 0.20970  0.57790  0.76320  Biso   1.000  H
  C65      1.0000 0.63130  0.11560  0.13880  Biso   1.000  C
  C66      1.0000 0.13130  0.61560  0.13880  Biso   1.000  C
  C67      1.0000 0.36870  0.11560  0.36120  Biso   1.000  C
  C68      1.0000 0.86870  0.61560  0.36120  Biso   1.000  C
  C69      1.0000 0.36870  0.88440  0.86120  Biso   1.000  C
  C70      1.0000 0.86870  0.38440  0.86120  Biso   1.000  C
  C71      1.0000 0.63130  0.88440  0.63880  Biso   1.000  C
  C72      1.0000 0.13130  0.38440  0.63880  Biso   1.000  C
  C73      1.0000 0.61830  0.11660  0.06190  Biso   1.000  C
  C74      1.0000 0.11830  0.61660  0.06190  Biso   1.000  C
  C75      1.0000 0.38170  0.11660  0.43810  Biso   1.000  C
  C76      1.0000 0.88170  0.61660  0.43810  Biso   1.000  C
  C77      1.0000 0.38170  0.88340  0.93810  Biso   1.000  C
  C78      1.0000 0.88170  0.38340  0.93810  Biso   1.000  C
  C79      1.0000 0.61830  0.88340  0.56190  Biso   1.000  C
  C80      1.0000 0.11830  0.38340  0.56190  Biso   1.000  C
