data_image0
_cell_length_a       9.056
_cell_length_b       17.253
_cell_length_c       11.107
_cell_angle_alpha    90
_cell_angle_beta     101.5
_cell_angle_gamma    90

_symmetry_space_group_name_H-M    "P 1"
_symmetry_int_tables_number       1

loop_
  _symmetry_equiv_pos_as_xyz
  'x, y, z'

loop_
  _atom_site_label
  _atom_site_occupancy
  _atom_site_fract_x
  _atom_site_fract_y
  _atom_site_fract_z
  _atom_site_thermal_displace_type
  _atom_site_B_iso_or_equiv
  _atom_site_type_symbol
  Cu1      1.0000 0.39616  0.32975  0.98131  Biso   1.000  Cu
  Cu2      1.0000 0.60384  0.82975  0.51869  Biso   1.000  Cu
  Cu3      1.0000 0.60384  0.67025  0.01869  Biso   1.000  Cu
  Cu4      1.0000 0.39616  0.17025  0.48131  Biso   1.000  Cu
  S1       1.0000 0.31893  0.26924  0.57298  Biso   1.000  S
  S2       1.0000 0.68107  0.76924  0.92702  Biso   1.000  S
  S3       1.0000 0.68107  0.73076  0.42702  Biso   1.000  S
  S4       1.0000 0.31893  0.23076  0.07298  Biso   1.000  S
  N1       1.0000 0.53380  0.42512  0.82189  Biso   1.000  N
  N2       1.0000 0.46620  0.92512  0.67811  Biso   1.000  N
  N3       1.0000 0.46620  0.57488  0.17811  Biso   1.000  N
  N4       1.0000 0.53380  0.07488  0.32189  Biso   1.000  N
  N5       1.0000 0.55100  0.39795  0.93897  Biso   1.000  N
  N6       1.0000 0.44900  0.89795  0.56103  Biso   1.000  N
  N7       1.0000 0.44900  0.60205  0.06103  Biso   1.000  N
  N8       1.0000 0.55100  0.10205  0.43897  Biso   1.000  N
  C1       1.0000 0.17660  0.22788  0.64410  Biso   1.000  C
  C2       1.0000 0.82340  0.72788  0.85590  Biso   1.000  C
  C3       1.0000 0.82340  0.77212  0.35590  Biso   1.000  C
  C4       1.0000 0.17660  0.27212  0.14410  Biso   1.000  C
  N9       1.0000 0.27000  0.40456  0.74662  Biso   1.000  N
  N10      1.0000 0.73000  0.90456  0.75338  Biso   1.000  N
  N11      1.0000 0.73000  0.59544  0.25338  Biso   1.000  N
  N12      1.0000 0.27000  0.09544  0.24662  Biso   1.000  N
  C5       1.0000 0.45500  0.30840  0.70050  Biso   1.000  C
  C6       1.0000 0.54500  0.80840  0.79950  Biso   1.000  C
  C7       1.0000 0.54500  0.69160  0.29950  Biso   1.000  C
  C8       1.0000 0.45500  0.19160  0.20050  Biso   1.000  C
  H1       1.0000 0.55540  0.30430  0.68290  Biso   1.000  H
  H2       1.0000 0.44460  0.80430  0.81710  Biso   1.000  H
  H3       1.0000 0.44460  0.69570  0.31710  Biso   1.000  H
  H4       1.0000 0.55540  0.19570  0.18290  Biso   1.000  H
  H5       1.0000 0.45260  0.27850  0.77400  Biso   1.000  H
  H6       1.0000 0.54740  0.77850  0.72600  Biso   1.000  H
  H7       1.0000 0.54740  0.72150  0.22600  Biso   1.000  H
  H8       1.0000 0.45260  0.22150  0.27400  Biso   1.000  H
  N13      1.0000 0.22720  0.36844  0.84280  Biso   1.000  N
  N14      1.0000 0.77280  0.86844  0.65720  Biso   1.000  N
  N15      1.0000 0.77280  0.63156  0.15720  Biso   1.000  N
  N16      1.0000 0.22720  0.13156  0.34280  Biso   1.000  N
  C9       1.0000 0.42050  0.39359  0.72298  Biso   1.000  C
  C10      1.0000 0.57950  0.89359  0.77702  Biso   1.000  C
  C11      1.0000 0.57950  0.60641  0.27702  Biso   1.000  C
  C12      1.0000 0.42050  0.10641  0.22298  Biso   1.000  C
  H9       1.0000 0.42650  0.42250  0.64810  Biso   1.000  H
  H10      1.0000 0.57350  0.92250  0.85190  Biso   1.000  H
  H11      1.0000 0.57350  0.57750  0.35190  Biso   1.000  H
  H12      1.0000 0.42650  0.07750  0.14810  Biso   1.000  H
  C13      1.0000 0.21220  0.17420  0.73770  Biso   1.000  C
  C14      1.0000 0.78780  0.67420  0.76230  Biso   1.000  C
  C15      1.0000 0.78780  0.82580  0.26230  Biso   1.000  C
  C16      1.0000 0.21220  0.32580  0.23770  Biso   1.000  C
  H13      1.0000 0.31180  0.15940  0.76620  Biso   1.000  H
  H14      1.0000 0.68820  0.65940  0.73380  Biso   1.000  H
  H15      1.0000 0.68820  0.84060  0.23380  Biso   1.000  H
  H16      1.0000 0.31180  0.34060  0.26620  Biso   1.000  H
  C17      1.0000 0.63950  0.47816  0.81240  Biso   1.000  C
  C18      1.0000 0.36050  0.97816  0.68760  Biso   1.000  C
  C19      1.0000 0.36050  0.52184  0.18760  Biso   1.000  C
  C20      1.0000 0.63950  0.02184  0.31240  Biso   1.000  C
  H17      1.0000 0.65030  0.50440  0.74150  Biso   1.000  H
  H18      1.0000 0.34970  0.00440  0.75850  Biso   1.000  H
  H19      1.0000 0.34970  0.49560  0.25850  Biso   1.000  H
  H20      1.0000 0.65030  0.99560  0.24150  Biso   1.000  H
  C21      1.0000 0.66890  0.43662  0.00160  Biso   1.000  C
  C22      1.0000 0.33110  0.93662  0.49840  Biso   1.000  C
  C23      1.0000 0.33110  0.56338  0.99840  Biso   1.000  C
  C24      1.0000 0.66890  0.06338  0.50160  Biso   1.000  C
  H21      1.0000 0.70650  0.43080  0.08530  Biso   1.000  H
  H22      1.0000 0.29350  0.93080  0.41470  Biso   1.000  H
  H23      1.0000 0.29350  0.56920  0.91470  Biso   1.000  H
  H24      1.0000 0.70650  0.06920  0.58530  Biso   1.000  H
  C25      1.0000 0.15320  0.44185  0.67700  Biso   1.000  C
  C26      1.0000 0.84680  0.94185  0.82300  Biso   1.000  C
  C27      1.0000 0.84680  0.55815  0.32300  Biso   1.000  C
  C28      1.0000 0.15320  0.05815  0.17700  Biso   1.000  C
  H25      1.0000 0.15550  0.47040  0.60630  Biso   1.000  H
  H26      1.0000 0.84450  0.97040  0.89370  Biso   1.000  H
  H27      1.0000 0.84450  0.52960  0.39370  Biso   1.000  H
  H28      1.0000 0.15550  0.02960  0.10630  Biso   1.000  H
  C29      1.0000 0.03110  0.43021  0.72880  Biso   1.000  C
  C30      1.0000 0.96890  0.93021  0.77120  Biso   1.000  C
  C31      1.0000 0.96890  0.56979  0.27120  Biso   1.000  C
  C32      1.0000 0.03110  0.06979  0.22880  Biso   1.000  C
  H29      1.0000 0.93390  0.44880  0.70120  Biso   1.000  H
  H30      1.0000 0.06610  0.94880  0.79880  Biso   1.000  H
  H31      1.0000 0.06610  0.55120  0.29880  Biso   1.000  H
  H32      1.0000 0.93390  0.05120  0.20120  Biso   1.000  H
  C33      1.0000 0.08200  0.38482  0.83130  Biso   1.000  C
  C34      1.0000 0.91800  0.88482  0.66870  Biso   1.000  C
  C35      1.0000 0.91800  0.61518  0.16870  Biso   1.000  C
  C36      1.0000 0.08200  0.11518  0.33130  Biso   1.000  C
  H33      1.0000 0.02220  0.36800  0.88520  Biso   1.000  H
  H34      1.0000 0.97780  0.86800  0.61480  Biso   1.000  H
  H35      1.0000 0.97780  0.63200  0.11480  Biso   1.000  H
  H36      1.0000 0.02220  0.13200  0.38520  Biso   1.000  H
  C37      1.0000 0.02990  0.24869  0.59910  Biso   1.000  C
  C38      1.0000 0.97010  0.74869  0.90090  Biso   1.000  C
  C39      1.0000 0.97010  0.75131  0.40090  Biso   1.000  C
  C40      1.0000 0.02990  0.25131  0.09910  Biso   1.000  C
  H37      1.0000 0.00670  0.28450  0.53550  Biso   1.000  H
  H38      1.0000 0.99330  0.78450  0.96450  Biso   1.000  H
  H39      1.0000 0.99330  0.71550  0.46450  Biso   1.000  H
  H40      1.0000 0.00670  0.21550  0.03550  Biso   1.000  H
  C41      1.0000 0.09910  0.14290  0.78830  Biso   1.000  C
  C42      1.0000 0.90090  0.64290  0.71170  Biso   1.000  C
  C43      1.0000 0.90090  0.85710  0.21170  Biso   1.000  C
  C44      1.0000 0.09910  0.35710  0.28830  Biso   1.000  C
  H41      1.0000 0.12200  0.10750  0.85240  Biso   1.000  H
  H42      1.0000 0.87800  0.60750  0.64760  Biso   1.000  H
  H43      1.0000 0.87800  0.89250  0.14760  Biso   1.000  H
  H44      1.0000 0.12200  0.39250  0.35240  Biso   1.000  H
  C45      1.0000 0.72810  0.48630  0.92640  Biso   1.000  C
  C46      1.0000 0.27190  0.98630  0.57360  Biso   1.000  C
  C47      1.0000 0.27190  0.51370  0.07360  Biso   1.000  C
  C48      1.0000 0.72810  0.01370  0.42640  Biso   1.000  C
  H45      1.0000 0.81120  0.51870  0.94880  Biso   1.000  H
  H46      1.0000 0.18880  0.01870  0.55120  Biso   1.000  H
  H47      1.0000 0.18880  0.48130  0.05120  Biso   1.000  H
  H48      1.0000 0.81120  0.98130  0.44880  Biso   1.000  H
  C49      1.0000 0.95110  0.16420  0.74390  Biso   1.000  C
  C50      1.0000 0.04890  0.66420  0.75610  Biso   1.000  C
  C51      1.0000 0.04890  0.83580  0.25610  Biso   1.000  C
  C52      1.0000 0.95110  0.33580  0.24390  Biso   1.000  C
  H49      1.0000 0.87470  0.14310  0.77850  Biso   1.000  H
  H50      1.0000 0.12530  0.64310  0.72150  Biso   1.000  H
  H51      1.0000 0.12530  0.85690  0.22150  Biso   1.000  H
  H52      1.0000 0.87470  0.35690  0.27850  Biso   1.000  H
  C53      1.0000 0.91650  0.21580  0.64960  Biso   1.000  C
  C54      1.0000 0.08350  0.71580  0.85040  Biso   1.000  C
  C55      1.0000 0.08350  0.78420  0.35040  Biso   1.000  C
  C56      1.0000 0.91650  0.28420  0.14960  Biso   1.000  C
  H53      1.0000 0.81640  0.22900  0.61900  Biso   1.000  H
  H54      1.0000 0.18360  0.72900  0.88100  Biso   1.000  H
  H55      1.0000 0.18360  0.77100  0.38100  Biso   1.000  H
  H56      1.0000 0.81640  0.27100  0.11900  Biso   1.000  H
  B1       1.0000 0.60930  0.38510  0.43150  Biso   1.000  B
  B2       1.0000 0.39070  0.88510  0.06850  Biso   1.000  B
  B3       1.0000 0.39070  0.61490  0.56850  Biso   1.000  B
  B4       1.0000 0.60930  0.11490  0.93150  Biso   1.000  B
  F1       1.0000 0.64210  0.31360  0.45400  Biso   1.000  F
  F2       1.0000 0.35790  0.81360  0.04600  Biso   1.000  F
  F3       1.0000 0.35790  0.68640  0.54600  Biso   1.000  F
  F4       1.0000 0.64210  0.18640  0.95400  Biso   1.000  F
  F5       1.0000 0.62540  0.40160  0.30800  Biso   1.000  F
  F6       1.0000 0.37460  0.90160  0.19200  Biso   1.000  F
  F7       1.0000 0.37460  0.59840  0.69200  Biso   1.000  F
  F8       1.0000 0.62540  0.09840  0.80800  Biso   1.000  F
  F9       1.0000 0.48470  0.41390  0.44810  Biso   1.000  F
  F10      1.0000 0.51530  0.91390  0.05190  Biso   1.000  F
  F11      1.0000 0.51530  0.58610  0.55190  Biso   1.000  F
  F12      1.0000 0.48470  0.08610  0.94810  Biso   1.000  F
  F13      1.0000 0.73570  0.42450  0.49790  Biso   1.000  F
  F14      1.0000 0.26430  0.92450  0.00210  Biso   1.000  F
  F15      1.0000 0.26430  0.57550  0.50210  Biso   1.000  F
  F16      1.0000 0.73570  0.07550  0.99790  Biso   1.000  F
  B5       1.0000 0.64500  0.38720  0.42770  Biso   1.000  B
  B6       1.0000 0.35500  0.88720  0.07230  Biso   1.000  B
  B7       1.0000 0.35500  0.61280  0.57230  Biso   1.000  B
  B8       1.0000 0.64500  0.11280  0.92770  Biso   1.000  B
  F17      1.0000 0.60100  0.31080  0.44500  Biso   1.000  F
  F18      1.0000 0.39900  0.81080  0.05500  Biso   1.000  F
  F19      1.0000 0.39900  0.68920  0.55500  Biso   1.000  F
  F20      1.0000 0.60100  0.18920  0.94500  Biso   1.000  F
  F21      1.0000 0.79850  0.40070  0.46000  Biso   1.000  F
  F22      1.0000 0.20150  0.90070  0.04000  Biso   1.000  F
  F23      1.0000 0.20150  0.59930  0.54000  Biso   1.000  F
  F24      1.0000 0.79850  0.09930  0.96000  Biso   1.000  F
  F25      1.0000 0.58800  0.40800  0.31200  Biso   1.000  F
  F26      1.0000 0.41200  0.90800  0.18800  Biso   1.000  F
  F27      1.0000 0.41200  0.59200  0.68800  Biso   1.000  F
  F28      1.0000 0.58800  0.09200  0.81200  Biso   1.000  F
  F29      1.0000 0.59200  0.42940  0.51100  Biso   1.000  F
  F30      1.0000 0.40800  0.92940  0.98900  Biso   1.000  F
  F31      1.0000 0.40800  0.57060  0.48900  Biso   1.000  F
  F32      1.0000 0.59200  0.07060  0.01100  Biso   1.000  F
  F33      1.0000 0.62600  0.30520  0.41900  Biso   1.000  F
  F34      1.0000 0.37400  0.80520  0.08100  Biso   1.000  F
  F35      1.0000 0.37400  0.69480  0.58100  Biso   1.000  F
  F36      1.0000 0.62600  0.19480  0.91900  Biso   1.000  F
  F37      1.0000 0.47100  0.39310  0.45200  Biso   1.000  F
  F38      1.0000 0.52900  0.89310  0.04800  Biso   1.000  F
  F39      1.0000 0.52900  0.60690  0.54800  Biso   1.000  F
  F40      1.0000 0.47100  0.10690  0.95200  Biso   1.000  F
  F41      1.0000 0.69800  0.40800  0.54290  Biso   1.000  F
  F42      1.0000 0.30200  0.90800  0.95710  Biso   1.000  F
  F43      1.0000 0.30200  0.59200  0.45710  Biso   1.000  F
  F44      1.0000 0.69800  0.09200  0.04290  Biso   1.000  F
  F45      1.0000 0.64300  0.42460  0.34200  Biso   1.000  F
  F46      1.0000 0.35700  0.92460  0.15800  Biso   1.000  F
  F47      1.0000 0.35700  0.57540  0.65800  Biso   1.000  F
  F48      1.0000 0.64300  0.07540  0.84200  Biso   1.000  F
