data_image0
_cell_length_a       10.46
_cell_length_b       17.394
_cell_length_c       11.542
_cell_angle_alpha    90
_cell_angle_beta     96.521
_cell_angle_gamma    90

_symmetry_space_group_name_H-M    "P 1"
_symmetry_int_tables_number       1

loop_
  _symmetry_equiv_pos_as_xyz
  'x, y, z'

loop_
  _atom_site_label
  _atom_site_occupancy
  _atom_site_fract_x
  _atom_site_fract_y
  _atom_site_fract_z
  _atom_site_thermal_displace_type
  _atom_site_B_iso_or_equiv
  _atom_site_type_symbol
  Cu1      1.0000 0.38961  0.17235  0.53615  Biso   1.000  Cu
  Cu2      1.0000 0.61039  0.67235  0.96385  Biso   1.000  Cu
  Cu3      1.0000 0.61039  0.82765  0.46385  Biso   1.000  Cu
  Cu4      1.0000 0.38961  0.32765  0.03615  Biso   1.000  Cu
  S1       1.0000 0.45447  0.23791  0.16074  Biso   1.000  S
  S2       1.0000 0.54553  0.73791  0.33926  Biso   1.000  S
  S3       1.0000 0.54553  0.76209  0.83926  Biso   1.000  S
  S4       1.0000 0.45447  0.26209  0.66074  Biso   1.000  S
  N1       1.0000 0.44460  0.09413  0.32353  Biso   1.000  N
  N2       1.0000 0.55540  0.59413  0.17647  Biso   1.000  N
  N3       1.0000 0.55540  0.90587  0.67647  Biso   1.000  N
  N4       1.0000 0.44460  0.40587  0.82353  Biso   1.000  N
  N5       1.0000 0.21976  0.11022  0.34183  Biso   1.000  N
  N6       1.0000 0.78024  0.61022  0.15817  Biso   1.000  N
  N7       1.0000 0.78024  0.88978  0.65817  Biso   1.000  N
  N8       1.0000 0.21976  0.38978  0.84183  Biso   1.000  N
  N9       1.0000 0.49589  0.11306  0.43486  Biso   1.000  N
  N10      1.0000 0.50411  0.61306  0.06514  Biso   1.000  N
  N11      1.0000 0.50411  0.88694  0.56514  Biso   1.000  N
  N12      1.0000 0.49589  0.38694  0.93486  Biso   1.000  N
  N13      1.0000 0.22015  0.14100  0.45173  Biso   1.000  N
  N14      1.0000 0.77985  0.64100  0.04827  Biso   1.000  N
  N15      1.0000 0.77985  0.85900  0.54827  Biso   1.000  N
  N16      1.0000 0.22015  0.35900  0.95173  Biso   1.000  N
  C1       1.0000 0.62830  0.03433  0.35150  Biso   1.000  C
  C2       1.0000 0.37170  0.53433  0.14850  Biso   1.000  C
  C3       1.0000 0.37170  0.96567  0.64850  Biso   1.000  C
  C4       1.0000 0.62830  0.46567  0.85150  Biso   1.000  C
  H1       1.0000 0.69880  0.00340  0.34170  Biso   1.000  H
  H2       1.0000 0.30120  0.50340  0.15830  Biso   1.000  H
  H3       1.0000 0.30120  0.99660  0.65830  Biso   1.000  H
  H4       1.0000 0.69880  0.49660  0.84170  Biso   1.000  H
  C5       1.0000 0.52440  0.04753  0.27090  Biso   1.000  C
  C6       1.0000 0.47560  0.54753  0.22910  Biso   1.000  C
  C7       1.0000 0.47560  0.95247  0.72910  Biso   1.000  C
  C8       1.0000 0.52440  0.45247  0.77090  Biso   1.000  C
  C9       1.0000 0.70770  0.23134  0.24400  Biso   1.000  C
  C10      1.0000 0.29230  0.73134  0.25600  Biso   1.000  C
  C11      1.0000 0.29230  0.76866  0.75600  Biso   1.000  C
  C12      1.0000 0.70770  0.26866  0.74400  Biso   1.000  C
  H5       1.0000 0.71270  0.19390  0.18720  Biso   1.000  H
  H6       1.0000 0.28730  0.69390  0.31280  Biso   1.000  H
  H7       1.0000 0.28730  0.80610  0.81280  Biso   1.000  H
  H8       1.0000 0.71270  0.30610  0.68720  Biso   1.000  H
  C13      1.0000 0.60840  0.07598  0.45117  Biso   1.000  C
  C14      1.0000 0.39160  0.57598  0.04883  Biso   1.000  C
  C15      1.0000 0.39160  0.92402  0.54883  Biso   1.000  C
  C16      1.0000 0.60840  0.42402  0.95117  Biso   1.000  C
  C17      1.0000 0.33330  0.21432  0.25591  Biso   1.000  C
  C18      1.0000 0.66670  0.71432  0.24409  Biso   1.000  C
  C19      1.0000 0.66670  0.78568  0.74409  Biso   1.000  C
  C20      1.0000 0.33330  0.28568  0.75591  Biso   1.000  C
  H9       1.0000 0.35480  0.23910  0.33090  Biso   1.000  H
  H10      1.0000 0.64520  0.73910  0.16910  Biso   1.000  H
  H11      1.0000 0.64520  0.76090  0.66910  Biso   1.000  H
  H12      1.0000 0.35480  0.26090  0.83090  Biso   1.000  H
  H13      1.0000 0.25040  0.23380  0.22220  Biso   1.000  H
  H14      1.0000 0.74960  0.73380  0.27780  Biso   1.000  H
  H15      1.0000 0.74960  0.76620  0.77780  Biso   1.000  H
  H16      1.0000 0.25040  0.26620  0.72220  Biso   1.000  H
  C21      1.0000 0.59090  0.26484  0.26040  Biso   1.000  C
  C22      1.0000 0.40910  0.76484  0.23960  Biso   1.000  C
  C23      1.0000 0.40910  0.73516  0.73960  Biso   1.000  C
  C24      1.0000 0.59090  0.23516  0.76040  Biso   1.000  C
  C25      1.0000 0.10440  0.07712  0.30440  Biso   1.000  C
  C26      1.0000 0.89560  0.57712  0.19560  Biso   1.000  C
  C27      1.0000 0.89560  0.92288  0.69560  Biso   1.000  C
  C28      1.0000 0.10440  0.42288  0.80440  Biso   1.000  C
  C29      1.0000 0.10350  0.12516  0.48230  Biso   1.000  C
  C30      1.0000 0.89650  0.62516  0.01770  Biso   1.000  C
  C31      1.0000 0.89650  0.87484  0.51770  Biso   1.000  C
  C32      1.0000 0.10350  0.37484  0.98230  Biso   1.000  C
  C33      1.0000 0.32430  0.12777  0.27337  Biso   1.000  C
  C34      1.0000 0.67570  0.62777  0.22663  Biso   1.000  C
  C35      1.0000 0.67570  0.87223  0.72663  Biso   1.000  C
  C36      1.0000 0.32430  0.37223  0.77337  Biso   1.000  C
  H17      1.0000 0.30270  0.10460  0.19620  Biso   1.000  H
  H18      1.0000 0.69730  0.60460  0.30380  Biso   1.000  H
  H19      1.0000 0.69730  0.89540  0.80380  Biso   1.000  H
  H20      1.0000 0.30270  0.39540  0.69620  Biso   1.000  H
  C37      1.0000 0.03070  0.08562  0.39350  Biso   1.000  C
  C38      1.0000 0.96930  0.58562  0.10650  Biso   1.000  C
  C39      1.0000 0.96930  0.91438  0.60650  Biso   1.000  C
  C40      1.0000 0.03070  0.41438  0.89350  Biso   1.000  C
  H21      1.0000 0.94680  0.06810  0.39460  Biso   1.000  H
  H22      1.0000 0.05320  0.56810  0.10540  Biso   1.000  H
  H23      1.0000 0.05320  0.93190  0.60540  Biso   1.000  H
  H24      1.0000 0.94680  0.43190  0.89460  Biso   1.000  H
  C41      1.0000 0.69220  0.08309  0.56390  Biso   1.000  C
  C42      1.0000 0.30780  0.58309  0.93610  Biso   1.000  C
  C43      1.0000 0.30780  0.91691  0.43610  Biso   1.000  C
  C44      1.0000 0.69220  0.41691  0.06390  Biso   1.000  C
  H25      1.0000 0.72860  0.13380  0.57040  Biso   1.000  H
  H26      1.0000 0.27140  0.63380  0.92960  Biso   1.000  H
  H27      1.0000 0.27140  0.86620  0.42960  Biso   1.000  H
  H28      1.0000 0.72860  0.36620  0.07040  Biso   1.000  H
  H29      1.0000 0.76000  0.04570  0.56680  Biso   1.000  H
  H30      1.0000 0.24000  0.54570  0.93320  Biso   1.000  H
  H31      1.0000 0.24000  0.95430  0.43320  Biso   1.000  H
  H32      1.0000 0.76000  0.45430  0.06680  Biso   1.000  H
  H33      1.0000 0.64190  0.07430  0.62730  Biso   1.000  H
  H34      1.0000 0.35810  0.57430  0.87270  Biso   1.000  H
  H35      1.0000 0.35810  0.92570  0.37270  Biso   1.000  H
  H36      1.0000 0.64190  0.42570  0.12730  Biso   1.000  H
  C45      1.0000 0.81760  0.25510  0.31460  Biso   1.000  C
  C46      1.0000 0.18240  0.75510  0.18540  Biso   1.000  C
  C47      1.0000 0.18240  0.74490  0.68540  Biso   1.000  C
  C48      1.0000 0.81760  0.24490  0.81460  Biso   1.000  C
  H37      1.0000 0.89690  0.23370  0.30370  Biso   1.000  H
  H38      1.0000 0.10310  0.73370  0.19630  Biso   1.000  H
  H39      1.0000 0.10310  0.76630  0.69630  Biso   1.000  H
  H40      1.0000 0.89690  0.26630  0.80370  Biso   1.000  H
  C49      1.0000 0.58460  0.31913  0.34590  Biso   1.000  C
  C50      1.0000 0.41540  0.81913  0.15410  Biso   1.000  C
  C51      1.0000 0.41540  0.68087  0.65410  Biso   1.000  C
  C52      1.0000 0.58460  0.18087  0.84590  Biso   1.000  C
  H41      1.0000 0.50610  0.34140  0.35700  Biso   1.000  H
  H42      1.0000 0.49390  0.84140  0.14300  Biso   1.000  H
  H43      1.0000 0.49390  0.65860  0.64300  Biso   1.000  H
  H44      1.0000 0.50610  0.15860  0.85700  Biso   1.000  H
  C53      1.0000 0.81130  0.30900  0.39910  Biso   1.000  C
  C54      1.0000 0.18870  0.80900  0.10090  Biso   1.000  C
  C55      1.0000 0.18870  0.69100  0.60090  Biso   1.000  C
  C56      1.0000 0.81130  0.19100  0.89910  Biso   1.000  C
  H45      1.0000 0.88560  0.32420  0.44540  Biso   1.000  H
  H46      1.0000 0.11440  0.82420  0.05460  Biso   1.000  H
  H47      1.0000 0.11440  0.67580  0.55460  Biso   1.000  H
  H48      1.0000 0.88560  0.17580  0.94540  Biso   1.000  H
  C57      1.0000 0.49510  0.02189  0.14790  Biso   1.000  C
  C58      1.0000 0.50490  0.52189  0.35210  Biso   1.000  C
  C59      1.0000 0.50490  0.97811  0.85210  Biso   1.000  C
  C60      1.0000 0.49510  0.47811  0.64790  Biso   1.000  C
  H49      1.0000 0.41510  0.99430  0.13910  Biso   1.000  H
  H50      1.0000 0.58490  0.49430  0.36090  Biso   1.000  H
  H51      1.0000 0.58490  0.00570  0.86090  Biso   1.000  H
  H52      1.0000 0.41510  0.50570  0.63910  Biso   1.000  H
  H53      1.0000 0.56280  0.98890  0.12780  Biso   1.000  H
  H54      1.0000 0.43720  0.48890  0.37220  Biso   1.000  H
  H55      1.0000 0.43720  0.01110  0.87220  Biso   1.000  H
  H56      1.0000 0.56280  0.51110  0.62780  Biso   1.000  H
  H57      1.0000 0.48860  0.06590  0.09740  Biso   1.000  H
  H58      1.0000 0.51140  0.56590  0.40260  Biso   1.000  H
  H59      1.0000 0.51140  0.93410  0.90260  Biso   1.000  H
  H60      1.0000 0.48860  0.43410  0.59740  Biso   1.000  H
  C61      1.0000 0.07600  0.04026  0.18750  Biso   1.000  C
  C62      1.0000 0.92400  0.54026  0.31250  Biso   1.000  C
  C63      1.0000 0.92400  0.95974  0.81250  Biso   1.000  C
  C64      1.0000 0.07600  0.45974  0.68750  Biso   1.000  C
  H61      1.0000 0.99310  0.01600  0.18200  Biso   1.000  H
  H62      1.0000 0.00690  0.51600  0.31800  Biso   1.000  H
  H63      1.0000 0.00690  0.98400  0.81800  Biso   1.000  H
  H64      1.0000 0.99310  0.48400  0.68200  Biso   1.000  H
  H65      1.0000 0.14060  0.00240  0.17740  Biso   1.000  H
  H66      1.0000 0.85940  0.50240  0.32260  Biso   1.000  H
  H67      1.0000 0.85940  0.99760  0.82260  Biso   1.000  H
  H68      1.0000 0.14060  0.49760  0.67740  Biso   1.000  H
  H69      1.0000 0.07610  0.07870  0.12780  Biso   1.000  H
  H70      1.0000 0.92390  0.57870  0.37220  Biso   1.000  H
  H71      1.0000 0.92390  0.92130  0.87220  Biso   1.000  H
  H72      1.0000 0.07610  0.42130  0.62780  Biso   1.000  H
  C65      1.0000 0.69530  0.34075  0.41590  Biso   1.000  C
  C66      1.0000 0.30470  0.84075  0.08410  Biso   1.000  C
  C67      1.0000 0.30470  0.65925  0.58410  Biso   1.000  C
  C68      1.0000 0.69530  0.15925  0.91590  Biso   1.000  C
  H73      1.0000 0.69070  0.37700  0.47440  Biso   1.000  H
  H74      1.0000 0.30930  0.87700  0.02560  Biso   1.000  H
  H75      1.0000 0.30930  0.62300  0.52560  Biso   1.000  H
  H76      1.0000 0.69070  0.12300  0.97440  Biso   1.000  H
  C69      1.0000 0.06670  0.15100  0.59650  Biso   1.000  C
  C70      1.0000 0.93330  0.65100  0.90350  Biso   1.000  C
  C71      1.0000 0.93330  0.84900  0.40350  Biso   1.000  C
  C72      1.0000 0.06670  0.34900  0.09650  Biso   1.000  C
  H77      1.0000 0.14020  0.14810  0.65430  Biso   1.000  H
  H78      1.0000 0.85980  0.64810  0.84570  Biso   1.000  H
  H79      1.0000 0.85980  0.85190  0.34570  Biso   1.000  H
  H80      1.0000 0.14020  0.35190  0.15430  Biso   1.000  H
  H81      1.0000 0.99960  0.11840  0.61910  Biso   1.000  H
  H82      1.0000 0.00040  0.61840  0.88090  Biso   1.000  H
  H83      1.0000 0.00040  0.88160  0.38090  Biso   1.000  H
  H84      1.0000 0.99960  0.38160  0.11910  Biso   1.000  H
  H85      1.0000 0.03650  0.20310  0.59010  Biso   1.000  H
  H86      1.0000 0.96350  0.70310  0.90990  Biso   1.000  H
  H87      1.0000 0.96350  0.79690  0.40990  Biso   1.000  H
  H88      1.0000 0.03650  0.29690  0.09010  Biso   1.000  H
  B1       1.0000 0.21150  0.10560  0.91380  Biso   1.000  B
  B2       1.0000 0.78850  0.60560  0.58620  Biso   1.000  B
  B3       1.0000 0.78850  0.89440  0.08620  Biso   1.000  B
  B4       1.0000 0.21150  0.39440  0.41380  Biso   1.000  B
  F1       1.0000 0.28241  0.11555  0.81890  Biso   1.000  F
  F2       1.0000 0.71759  0.61555  0.68110  Biso   1.000  F
  F3       1.0000 0.71759  0.88445  0.18110  Biso   1.000  F
  F4       1.0000 0.28241  0.38445  0.31890  Biso   1.000  F
  F5       1.0000 0.21830  0.02972  0.94909  Biso   1.000  F
  F6       1.0000 0.78170  0.52972  0.55091  Biso   1.000  F
  F7       1.0000 0.78170  0.97028  0.05091  Biso   1.000  F
  F8       1.0000 0.21830  0.47028  0.44909  Biso   1.000  F
  F9       1.0000 0.08811  0.12436  0.88015  Biso   1.000  F
  F10      1.0000 0.91189  0.62436  0.61985  Biso   1.000  F
  F11      1.0000 0.91189  0.87564  0.11985  Biso   1.000  F
  F12      1.0000 0.08811  0.37564  0.38015  Biso   1.000  F
  F13      1.0000 0.26630  0.14992  0.00260  Biso   1.000  F
  F14      1.0000 0.73370  0.64992  0.49740  Biso   1.000  F
  F15      1.0000 0.73370  0.85008  0.99740  Biso   1.000  F
  F16      1.0000 0.26630  0.35008  0.50260  Biso   1.000  F
  B5       1.0000 0.17700  0.13930  0.93070  Biso   1.000  B
  B6       1.0000 0.82300  0.63930  0.56930  Biso   1.000  B
  B7       1.0000 0.82300  0.86070  0.06930  Biso   1.000  B
  B8       1.0000 0.17700  0.36070  0.43070  Biso   1.000  B
  F17      1.0000 0.16060  0.16080  0.03430  Biso   1.000  F
  F18      1.0000 0.83940  0.66080  0.46570  Biso   1.000  F
  F19      1.0000 0.83940  0.83920  0.96570  Biso   1.000  F
  F20      1.0000 0.16060  0.33920  0.53430  Biso   1.000  F
  F21      1.0000 0.30330  0.14130  0.90670  Biso   1.000  F
  F22      1.0000 0.69670  0.64130  0.59330  Biso   1.000  F
  F23      1.0000 0.69670  0.85870  0.09330  Biso   1.000  F
  F24      1.0000 0.30330  0.35870  0.40670  Biso   1.000  F
  F25      1.0000 0.11490  0.19090  0.86070  Biso   1.000  F
  F26      1.0000 0.88510  0.69090  0.63930  Biso   1.000  F
  F27      1.0000 0.88510  0.80910  0.13930  Biso   1.000  F
  F28      1.0000 0.11490  0.30910  0.36070  Biso   1.000  F
  F29      1.0000 0.13900  0.06560  0.91940  Biso   1.000  F
  F30      1.0000 0.86100  0.56560  0.58060  Biso   1.000  F
  F31      1.0000 0.86100  0.93440  0.08060  Biso   1.000  F
  F32      1.0000 0.13900  0.43440  0.41940  Biso   1.000  F
