data_image0
_cell_length_a       10.282
_cell_length_b       9.793
_cell_length_c       12.188
_cell_angle_alpha    90
_cell_angle_beta     105.482
_cell_angle_gamma    90

_symmetry_space_group_name_H-M    "P 1"
_symmetry_int_tables_number       1

loop_
  _symmetry_equiv_pos_as_xyz
  'x, y, z'

loop_
  _atom_site_label
  _atom_site_occupancy
  _atom_site_fract_x
  _atom_site_fract_y
  _atom_site_fract_z
  _atom_site_thermal_displace_type
  _atom_site_B_iso_or_equiv
  _atom_site_type_symbol
  I1       1.0000 0.53661  0.36098  0.36059  Biso   1.000  I
  I2       1.0000 0.03661  0.13902  0.86059  Biso   1.000  I
  I3       1.0000 0.46339  0.63902  0.63941  Biso   1.000  I
  I4       1.0000 0.96339  0.86098  0.13941  Biso   1.000  I
  Cu1      1.0000 0.45620  0.39725  0.54204  Biso   1.000  Cu
  Cu2      1.0000 0.95620  0.10275  0.04204  Biso   1.000  Cu
  Cu3      1.0000 0.54380  0.60275  0.45796  Biso   1.000  Cu
  Cu4      1.0000 0.04380  0.89725  0.95796  Biso   1.000  Cu
  S1       1.0000 0.23106  0.33504  0.53523  Biso   1.000  S
  S2       1.0000 0.73106  0.16496  0.03523  Biso   1.000  S
  S3       1.0000 0.76894  0.66496  0.46477  Biso   1.000  S
  S4       1.0000 0.26894  0.83504  0.96477  Biso   1.000  S
  N1       1.0000 0.51100  0.23120  0.65010  Biso   1.000  N
  N2       1.0000 0.01100  0.26880  0.15010  Biso   1.000  N
  N3       1.0000 0.48900  0.76880  0.34990  Biso   1.000  N
  N4       1.0000 0.98900  0.73120  0.84990  Biso   1.000  N
  C1       1.0000 0.96630  0.13210  0.46390  Biso   1.000  C
  C2       1.0000 0.46630  0.36790  0.96390  Biso   1.000  C
  C3       1.0000 0.03370  0.86790  0.53610  Biso   1.000  C
  C4       1.0000 0.53370  0.63210  0.03610  Biso   1.000  C
  H1       1.0000 0.94340  0.22120  0.44010  Biso   1.000  H
  H2       1.0000 0.44340  0.27880  0.94010  Biso   1.000  H
  H3       1.0000 0.05660  0.77880  0.55990  Biso   1.000  H
  H4       1.0000 0.55660  0.72120  0.05990  Biso   1.000  H
  C5       1.0000 0.09850  0.08640  0.47810  Biso   1.000  C
  C6       1.0000 0.59850  0.41360  0.97810  Biso   1.000  C
  C7       1.0000 0.90150  0.91360  0.52190  Biso   1.000  C
  C8       1.0000 0.40150  0.58640  0.02190  Biso   1.000  C
  C9       1.0000 0.20370  0.17870  0.45230  Biso   1.000  C
  C10      1.0000 0.70370  0.32130  0.95230  Biso   1.000  C
  C11      1.0000 0.79630  0.82130  0.54770  Biso   1.000  C
  C12      1.0000 0.29630  0.67870  0.04770  Biso   1.000  C
  H5       1.0000 0.17640  0.20210  0.37200  Biso   1.000  H
  H6       1.0000 0.67640  0.29790  0.87200  Biso   1.000  H
  H7       1.0000 0.82360  0.79790  0.62800  Biso   1.000  H
  H8       1.0000 0.32360  0.70210  0.12800  Biso   1.000  H
  H9       1.0000 0.28830  0.12920  0.46660  Biso   1.000  H
  H10      1.0000 0.78830  0.37080  0.96660  Biso   1.000  H
  H11      1.0000 0.71170  0.87080  0.53340  Biso   1.000  H
  H12      1.0000 0.21170  0.62920  0.03340  Biso   1.000  H
  C13      1.0000 0.28800  0.26470  0.67710  Biso   1.000  C
  C14      1.0000 0.78800  0.23530  0.17710  Biso   1.000  C
  C15      1.0000 0.71200  0.73530  0.32290  Biso   1.000  C
  C16      1.0000 0.21200  0.76470  0.82290  Biso   1.000  C
  H13      1.0000 0.30230  0.33900  0.73170  Biso   1.000  H
  H14      1.0000 0.80230  0.16100  0.23170  Biso   1.000  H
  H15      1.0000 0.69770  0.66100  0.26830  Biso   1.000  H
  H16      1.0000 0.19770  0.83900  0.76830  Biso   1.000  H
  H17      1.0000 0.21740  0.20680  0.69090  Biso   1.000  H
  H18      1.0000 0.71740  0.29320  0.19090  Biso   1.000  H
  H19      1.0000 0.78260  0.79320  0.30910  Biso   1.000  H
  H20      1.0000 0.28260  0.70680  0.80910  Biso   1.000  H
  C17      1.0000 0.13100  0.95460  0.51490  Biso   1.000  C
  C18      1.0000 0.63100  0.54540  0.01490  Biso   1.000  C
  C19      1.0000 0.86900  0.04540  0.48510  Biso   1.000  C
  C20      1.0000 0.36900  0.45460  0.98510  Biso   1.000  C
  H21      1.0000 0.21900  0.92350  0.52570  Biso   1.000  H
  H22      1.0000 0.71900  0.57650  0.02570  Biso   1.000  H
  H23      1.0000 0.78100  0.07650  0.47430  Biso   1.000  H
  H24      1.0000 0.28100  0.42350  0.97430  Biso   1.000  H
  C21      1.0000 0.41530  0.18300  0.69750  Biso   1.000  C
  C22      1.0000 0.91530  0.31700  0.19750  Biso   1.000  C
  C23      1.0000 0.58470  0.81700  0.30250  Biso   1.000  C
  C24      1.0000 0.08470  0.68300  0.80250  Biso   1.000  C
  C25      1.0000 0.62750  0.16060  0.66940  Biso   1.000  C
  C26      1.0000 0.12750  0.33940  0.16940  Biso   1.000  C
  C27      1.0000 0.37250  0.83940  0.33060  Biso   1.000  C
  C28      1.0000 0.87250  0.66060  0.83060  Biso   1.000  C
  H25      1.0000 0.69470  0.19130  0.63730  Biso   1.000  H
  H26      1.0000 0.19470  0.30870  0.13730  Biso   1.000  H
  H27      1.0000 0.30530  0.80870  0.36270  Biso   1.000  H
  H28      1.0000 0.80530  0.69130  0.86270  Biso   1.000  H
  C29      1.0000 0.43350  0.06600  0.76430  Biso   1.000  C
  C30      1.0000 0.93350  0.43400  0.26430  Biso   1.000  C
  C31      1.0000 0.56650  0.93400  0.23570  Biso   1.000  C
  C32      1.0000 0.06650  0.56600  0.73570  Biso   1.000  C
  H29      1.0000 0.36520  0.03580  0.79540  Biso   1.000  H
  H30      1.0000 0.86520  0.46420  0.29540  Biso   1.000  H
  H31      1.0000 0.63480  0.96420  0.20460  Biso   1.000  H
  H32      1.0000 0.13480  0.53580  0.70460  Biso   1.000  H
  C33      1.0000 0.65010  0.04250  0.73630  Biso   1.000  C
  C34      1.0000 0.15010  0.45750  0.23630  Biso   1.000  C
  C35      1.0000 0.34990  0.95750  0.26370  Biso   1.000  C
  C36      1.0000 0.84990  0.54250  0.76370  Biso   1.000  C
  H33      1.0000 0.73160  0.99610  0.74830  Biso   1.000  H
  H34      1.0000 0.23160  0.50390  0.24830  Biso   1.000  H
  H35      1.0000 0.26840  0.00390  0.25170  Biso   1.000  H
  H36      1.0000 0.76840  0.49610  0.75170  Biso   1.000  H
  C37      1.0000 0.55310  0.99490  0.78430  Biso   1.000  C
  C38      1.0000 0.05310  0.50510  0.28430  Biso   1.000  C
  C39      1.0000 0.44690  0.00510  0.21570  Biso   1.000  C
  C40      1.0000 0.94690  0.49490  0.71570  Biso   1.000  C
  H37      1.0000 0.56740  0.91670  0.82920  Biso   1.000  H
  H38      1.0000 0.06740  0.58330  0.32920  Biso   1.000  H
  H39      1.0000 0.43260  0.08330  0.17080  Biso   1.000  H
  H40      1.0000 0.93260  0.41670  0.67080  Biso   1.000  H
