data_image0
_cell_length_a       12.395
_cell_length_b       10.466
_cell_length_c       7.194
_cell_angle_alpha    90
_cell_angle_beta     90
_cell_angle_gamma    90.48

_symmetry_space_group_name_H-M    "P 1"
_symmetry_int_tables_number       1

loop_
  _symmetry_equiv_pos_as_xyz
  'x, y, z'

loop_
  _atom_site_label
  _atom_site_occupancy
  _atom_site_fract_x
  _atom_site_fract_y
  _atom_site_fract_z
  _atom_site_thermal_displace_type
  _atom_site_B_iso_or_equiv
  _atom_site_type_symbol
  N1       1.0000 0.83650  0.36540  0.80300  Biso   1.000  N
  N2       1.0000 0.66350  0.13460  0.30300  Biso   1.000  N
  N3       1.0000 0.16350  0.63460  0.19700  Biso   1.000  N
  N4       1.0000 0.33650  0.86540  0.69700  Biso   1.000  N
  N5       1.0000 0.85610  0.24100  0.78260  Biso   1.000  N
  N6       1.0000 0.64390  0.25900  0.28260  Biso   1.000  N
  N7       1.0000 0.14390  0.75900  0.21740  Biso   1.000  N
  N8       1.0000 0.35610  0.74100  0.71740  Biso   1.000  N
  N9       1.0000 0.95830  0.22860  0.73800  Biso   1.000  N
  N10      1.0000 0.54170  0.27140  0.23800  Biso   1.000  N
  N11      1.0000 0.04170  0.77140  0.26200  Biso   1.000  N
  N12      1.0000 0.45830  0.72860  0.76200  Biso   1.000  N
  C1       1.0000 0.92650  0.43540  0.77800  Biso   1.000  C
  C2       1.0000 0.57350  0.06460  0.27800  Biso   1.000  C
  C3       1.0000 0.07350  0.56460  0.22200  Biso   1.000  C
  C4       1.0000 0.42650  0.93540  0.72200  Biso   1.000  C
  C5       1.0000 0.94660  0.56890  0.78800  Biso   1.000  C
  C6       1.0000 0.55340  0.93110  0.28800  Biso   1.000  C
  C7       1.0000 0.05340  0.43110  0.21200  Biso   1.000  C
  C8       1.0000 0.44660  0.06890  0.71200  Biso   1.000  C
  C9       1.0000 0.05040  0.60290  0.75200  Biso   1.000  C
  C10      1.0000 0.44960  0.89710  0.25200  Biso   1.000  C
  C11      1.0000 0.94960  0.39710  0.24800  Biso   1.000  C
  C12      1.0000 0.55040  0.10290  0.74800  Biso   1.000  C
  C13      1.0000 0.13250  0.51720  0.70800  Biso   1.000  C
  C14      1.0000 0.36750  0.98280  0.20800  Biso   1.000  C
  C15      1.0000 0.86750  0.48280  0.29200  Biso   1.000  C
  C16      1.0000 0.63250  0.01720  0.79200  Biso   1.000  C
  C17      1.0000 0.11000  0.38940  0.69400  Biso   1.000  C
  C18      1.0000 0.39000  0.11060  0.19400  Biso   1.000  C
  C19      1.0000 0.89000  0.61060  0.30600  Biso   1.000  C
  C20      1.0000 0.61000  0.88940  0.80600  Biso   1.000  C
  C21      1.0000 0.00480  0.34740  0.72900  Biso   1.000  C
  C22      1.0000 0.49520  0.15260  0.22900  Biso   1.000  C
  C23      1.0000 0.99520  0.65260  0.27100  Biso   1.000  C
  C24      1.0000 0.50480  0.84740  0.77100  Biso   1.000  C
  C25      1.0000 0.72790  0.40910  0.85700  Biso   1.000  C
  C26      1.0000 0.77210  0.09090  0.35700  Biso   1.000  C
  C27      1.0000 0.27210  0.59090  0.14300  Biso   1.000  C
  C28      1.0000 0.22790  0.90910  0.64300  Biso   1.000  C
  C29      1.0000 0.66790  0.46130  0.69800  Biso   1.000  C
  C30      1.0000 0.83210  0.03870  0.19800  Biso   1.000  C
  C31      1.0000 0.33210  0.53870  0.30200  Biso   1.000  C
  C32      1.0000 0.16790  0.96130  0.80200  Biso   1.000  C
  C33      1.0000 0.67290  0.58560  0.64200  Biso   1.000  C
  C34      1.0000 0.82710  0.91440  0.14200  Biso   1.000  C
  C35      1.0000 0.32710  0.41440  0.35800  Biso   1.000  C
  C36      1.0000 0.17290  0.08560  0.85800  Biso   1.000  C
  H1       1.0000 0.88700  0.64100  0.82300  Biso   1.000  H
  H2       1.0000 0.61300  0.85900  0.32300  Biso   1.000  H
  H3       1.0000 0.11300  0.35900  0.17700  Biso   1.000  H
  H4       1.0000 0.38700  0.14100  0.67700  Biso   1.000  H
  H5       1.0000 0.06600  0.68100  0.74700  Biso   1.000  H
  H6       1.0000 0.43400  0.81900  0.24700  Biso   1.000  H
  H7       1.0000 0.93400  0.31900  0.25300  Biso   1.000  H
  H8       1.0000 0.56600  0.18100  0.75300  Biso   1.000  H
  H9       1.0000 0.20600  0.54700  0.69300  Biso   1.000  H
  H10      1.0000 0.29400  0.95300  0.19300  Biso   1.000  H
  H11      1.0000 0.79400  0.45300  0.30700  Biso   1.000  H
  H12      1.0000 0.70600  0.04700  0.80700  Biso   1.000  H
  H13      1.0000 0.15800  0.32700  0.65900  Biso   1.000  H
  H14      1.0000 0.34200  0.17300  0.15900  Biso   1.000  H
  H15      1.0000 0.84200  0.67300  0.34100  Biso   1.000  H
  H16      1.0000 0.65800  0.82700  0.84100  Biso   1.000  H
  H17      1.0000 0.69400  0.33200  0.92600  Biso   1.000  H
  H18      1.0000 0.80600  0.16800  0.42600  Biso   1.000  H
  H19      1.0000 0.30600  0.66800  0.07400  Biso   1.000  H
  H20      1.0000 0.19400  0.83200  0.57400  Biso   1.000  H
  H21      1.0000 0.73500  0.47600  0.95800  Biso   1.000  H
  H22      1.0000 0.76500  0.02400  0.45800  Biso   1.000  H
  H23      1.0000 0.26500  0.52400  0.04200  Biso   1.000  H
  H24      1.0000 0.23500  0.97600  0.54200  Biso   1.000  H
  H25      1.0000 0.64600  0.41400  0.62500  Biso   1.000  H
  H26      1.0000 0.85400  0.08600  0.12500  Biso   1.000  H
  H27      1.0000 0.35400  0.58600  0.37500  Biso   1.000  H
  H28      1.0000 0.14600  0.91400  0.87500  Biso   1.000  H
  H29      1.0000 0.73100  0.64400  0.74700  Biso   1.000  H
  H30      1.0000 0.76900  0.85600  0.24700  Biso   1.000  H
  H31      1.0000 0.26900  0.35600  0.25300  Biso   1.000  H
  H32      1.0000 0.23100  0.14400  0.75300  Biso   1.000  H
  H33      1.0000 0.65100  0.60600  0.55500  Biso   1.000  H
  H34      1.0000 0.84900  0.89400  0.05500  Biso   1.000  H
  H35      1.0000 0.34900  0.39400  0.44500  Biso   1.000  H
  H36      1.0000 0.15100  0.10600  0.94500  Biso   1.000  H
  Cu1      1.0000 0.53210  0.55965  0.79190  Biso   1.000  Cu
  Cu2      1.0000 0.96790  0.94035  0.29190  Biso   1.000  Cu
  Cu3      1.0000 0.46790  0.44035  0.20810  Biso   1.000  Cu
  Cu4      1.0000 0.03210  0.05965  0.70810  Biso   1.000  Cu
  Cl1      1.0000 0.41170  0.39900  0.85430  Biso   1.000  Cl
  Cl2      1.0000 0.08830  0.10100  0.35430  Biso   1.000  Cl
  Cl3      1.0000 0.58830  0.60100  0.14570  Biso   1.000  Cl
  Cl4      1.0000 0.91170  0.89900  0.64570  Biso   1.000  Cl
