data_image0
_cell_length_a       10.8299
_cell_length_b       16.8538
_cell_length_c       11.5157
_cell_angle_alpha    90
_cell_angle_beta     116.493
_cell_angle_gamma    90

_symmetry_space_group_name_H-M    "P 1"
_symmetry_int_tables_number       1

loop_
  _symmetry_equiv_pos_as_xyz
  'x, y, z'

loop_
  _atom_site_label
  _atom_site_occupancy
  _atom_site_fract_x
  _atom_site_fract_y
  _atom_site_fract_z
  _atom_site_thermal_displace_type
  _atom_site_B_iso_or_equiv
  _atom_site_type_symbol
  Cu1      1.0000 0.49964  0.18479  0.70886  Biso   1.000  Cu
  Cu2      1.0000 0.99964  0.31521  0.20886  Biso   1.000  Cu
  Cu3      1.0000 0.50036  0.81521  0.29114  Biso   1.000  Cu
  Cu4      1.0000 0.00036  0.68479  0.79114  Biso   1.000  Cu
  S1       1.0000 0.40465  0.10270  0.52821  Biso   1.000  S
  S2       1.0000 0.90465  0.39730  0.02821  Biso   1.000  S
  S3       1.0000 0.59535  0.89730  0.47179  Biso   1.000  S
  S4       1.0000 0.09535  0.60270  0.97179  Biso   1.000  S
  S5       1.0000 0.60946  0.25978  0.61617  Biso   1.000  S
  S6       1.0000 0.10946  0.24022  0.11617  Biso   1.000  S
  S7       1.0000 0.39054  0.74022  0.38383  Biso   1.000  S
  S8       1.0000 0.89054  0.75978  0.88383  Biso   1.000  S
  S9       1.0000 0.10619  0.40821  0.37833  Biso   1.000  S
  S10      1.0000 0.60619  0.09179  0.87833  Biso   1.000  S
  S11      1.0000 0.89381  0.59179  0.62167  Biso   1.000  S
  S12      1.0000 0.39381  0.90821  0.12167  Biso   1.000  S
  S13      1.0000 0.89286  0.25244  0.31741  Biso   1.000  S
  S14      1.0000 0.39286  0.24756  0.81741  Biso   1.000  S
  S15      1.0000 0.10714  0.74756  0.68259  Biso   1.000  S
  S16      1.0000 0.60714  0.75244  0.18259  Biso   1.000  S
  C1       1.0000 0.42970  0.16010  0.40480  Biso   1.000  C
  C2       1.0000 0.92970  0.33990  0.90480  Biso   1.000  C
  C3       1.0000 0.57030  0.83990  0.59520  Biso   1.000  C
  C4       1.0000 0.07030  0.66010  0.09520  Biso   1.000  C
  H1       1.0000 0.35160  0.19620  0.36020  Biso   1.000  H
  H2       1.0000 0.85160  0.30380  0.86020  Biso   1.000  H
  H3       1.0000 0.64840  0.80380  0.63980  Biso   1.000  H
  H4       1.0000 0.14840  0.69620  0.13980  Biso   1.000  H
  C5       1.0000 0.44710  0.10610  0.30550  Biso   1.000  C
  C6       1.0000 0.94710  0.39390  0.80550  Biso   1.000  C
  C7       1.0000 0.55290  0.89390  0.69450  Biso   1.000  C
  C8       1.0000 0.05290  0.60610  0.19450  Biso   1.000  C
  H5       1.0000 0.41030  0.05370  0.30560  Biso   1.000  H
  H6       1.0000 0.91030  0.44630  0.80560  Biso   1.000  H
  H7       1.0000 0.58970  0.94630  0.69440  Biso   1.000  H
  H8       1.0000 0.08970  0.55370  0.19440  Biso   1.000  H
  H9       1.0000 0.39950  0.12820  0.21890  Biso   1.000  H
  H10      1.0000 0.89950  0.37180  0.71890  Biso   1.000  H
  H11      1.0000 0.60050  0.87180  0.78110  Biso   1.000  H
  H12      1.0000 0.10050  0.62820  0.28110  Biso   1.000  H
  C9       1.0000 0.60290  0.10210  0.34840  Biso   1.000  C
  C10      1.0000 0.10290  0.39790  0.84840  Biso   1.000  C
  C11      1.0000 0.39710  0.89790  0.65160  Biso   1.000  C
  C12      1.0000 0.89710  0.60210  0.15160  Biso   1.000  C
  H13      1.0000 0.63330  0.04730  0.35810  Biso   1.000  H
  H14      1.0000 0.13330  0.45270  0.85810  Biso   1.000  H
  H15      1.0000 0.36670  0.95270  0.64190  Biso   1.000  H
  H16      1.0000 0.86670  0.54730  0.14190  Biso   1.000  H
  H17      1.0000 0.62530  0.12730  0.28450  Biso   1.000  H
  H18      1.0000 0.12530  0.37270  0.78450  Biso   1.000  H
  H19      1.0000 0.37470  0.87270  0.71550  Biso   1.000  H
  H20      1.0000 0.87470  0.62730  0.21550  Biso   1.000  H
  C13      1.0000 0.67270  0.14520  0.47720  Biso   1.000  C
  C14      1.0000 0.17270  0.35480  0.97720  Biso   1.000  C
  C15      1.0000 0.32730  0.85480  0.52280  Biso   1.000  C
  C16      1.0000 0.82730  0.64520  0.02280  Biso   1.000  C
  H21      1.0000 0.75810  0.16990  0.48820  Biso   1.000  H
  H22      1.0000 0.25810  0.33010  0.98820  Biso   1.000  H
  H23      1.0000 0.24190  0.83010  0.51180  Biso   1.000  H
  H24      1.0000 0.74190  0.66990  0.01180  Biso   1.000  H
  H25      1.0000 0.69170  0.10950  0.54940  Biso   1.000  H
  H26      1.0000 0.19170  0.39050  0.04940  Biso   1.000  H
  H27      1.0000 0.30830  0.89050  0.45060  Biso   1.000  H
  H28      1.0000 0.80830  0.60950  0.95060  Biso   1.000  H
  C17      1.0000 0.56440  0.20730  0.46490  Biso   1.000  C
  C18      1.0000 0.06440  0.29270  0.96490  Biso   1.000  C
  C19      1.0000 0.43560  0.79270  0.53510  Biso   1.000  C
  C20      1.0000 0.93560  0.70730  0.03510  Biso   1.000  C
  H29      1.0000 0.56090  0.24640  0.40050  Biso   1.000  H
  H30      1.0000 0.06090  0.25360  0.90050  Biso   1.000  H
  H31      1.0000 0.43910  0.75360  0.59950  Biso   1.000  H
  H32      1.0000 0.93910  0.74640  0.09950  Biso   1.000  H
  C21      1.0000 0.52490  0.35520  0.56060  Biso   1.000  C
  C22      1.0000 0.02490  0.14480  0.06060  Biso   1.000  C
  C23      1.0000 0.47510  0.64480  0.43940  Biso   1.000  C
  C24      1.0000 0.97510  0.85520  0.93940  Biso   1.000  C
  H33      1.0000 0.54370  0.38830  0.63560  Biso   1.000  H
  H34      1.0000 0.04370  0.11170  0.13560  Biso   1.000  H
  H35      1.0000 0.45630  0.61170  0.36440  Biso   1.000  H
  H36      1.0000 0.95630  0.88830  0.86440  Biso   1.000  H
  H37      1.0000 0.56440  0.38120  0.50980  Biso   1.000  H
  H38      1.0000 0.06440  0.11880  0.00980  Biso   1.000  H
  H39      1.0000 0.43560  0.61880  0.49020  Biso   1.000  H
  H40      1.0000 0.93560  0.88120  0.99020  Biso   1.000  H
  C25      1.0000 0.36830  0.34930  0.47840  Biso   1.000  C
  C26      1.0000 0.86830  0.15070  0.97840  Biso   1.000  C
  C27      1.0000 0.63170  0.65070  0.52160  Biso   1.000  C
  C28      1.0000 0.13170  0.84930  0.02160  Biso   1.000  C
  H41      1.0000 0.35180  0.33280  0.39200  Biso   1.000  H
  H42      1.0000 0.85180  0.16720  0.89200  Biso   1.000  H
  H43      1.0000 0.64820  0.66720  0.60800  Biso   1.000  H
  H44      1.0000 0.14820  0.83280  0.10800  Biso   1.000  H
  H45      1.0000 0.33560  0.30680  0.51440  Biso   1.000  H
  H46      1.0000 0.83560  0.19320  0.01440  Biso   1.000  H
  H47      1.0000 0.66440  0.69320  0.48560  Biso   1.000  H
  H48      1.0000 0.16440  0.80680  0.98560  Biso   1.000  H
  C29      1.0000 0.28680  0.41430  0.46500  Biso   1.000  C
  C30      1.0000 0.78680  0.08570  0.96500  Biso   1.000  C
  C31      1.0000 0.71320  0.58570  0.53500  Biso   1.000  C
  C32      1.0000 0.21320  0.91430  0.03500  Biso   1.000  C
  H49      1.0000 0.31660  0.45570  0.42470  Biso   1.000  H
  H50      1.0000 0.81660  0.04430  0.92470  Biso   1.000  H
  H51      1.0000 0.68340  0.54430  0.57530  Biso   1.000  H
  H52      1.0000 0.18340  0.95570  0.07530  Biso   1.000  H
  H53      1.0000 0.30780  0.43260  0.55170  Biso   1.000  H
  H54      1.0000 0.80780  0.06740  0.05170  Biso   1.000  H
  H55      1.0000 0.69220  0.56740  0.44830  Biso   1.000  H
  H56      1.0000 0.19220  0.93260  0.94830  Biso   1.000  H
  C33      1.0000 0.07460  0.35750  0.50650  Biso   1.000  C
  C34      1.0000 0.57460  0.14250  0.00650  Biso   1.000  C
  C35      1.0000 0.92540  0.64250  0.49350  Biso   1.000  C
  C36      1.0000 0.42540  0.85750  0.99350  Biso   1.000  C
  H57      1.0000 0.14980  0.32080  0.55210  Biso   1.000  H
  H58      1.0000 0.64980  0.17920  0.05210  Biso   1.000  H
  H59      1.0000 0.85020  0.67920  0.44790  Biso   1.000  H
  H60      1.0000 0.35020  0.82080  0.94790  Biso   1.000  H
  H61      1.0000 0.07710  0.39710  0.56860  Biso   1.000  H
  H62      1.0000 0.57710  0.10290  0.06860  Biso   1.000  H
  H63      1.0000 0.92290  0.60290  0.43140  Biso   1.000  H
  H64      1.0000 0.42290  0.89710  0.93140  Biso   1.000  H
  C37      1.0000 0.01180  0.39230  0.45990  Biso   1.000  C
  C38      1.0000 0.51180  0.10770  0.95990  Biso   1.000  C
  C39      1.0000 0.98820  0.60770  0.54010  Biso   1.000  C
  C40      1.0000 0.48820  0.89230  0.04010  Biso   1.000  C
  H65      1.0000 0.07070  0.40580  0.54970  Biso   1.000  H
  H66      1.0000 0.57070  0.09420  0.04970  Biso   1.000  H
  H67      1.0000 0.92930  0.59420  0.45030  Biso   1.000  H
  H68      1.0000 0.42930  0.90580  0.95030  Biso   1.000  H
  H69      1.0000 0.93810  0.43120  0.42800  Biso   1.000  H
  H70      1.0000 0.43810  0.06880  0.92800  Biso   1.000  H
  H71      1.0000 0.06190  0.56880  0.57200  Biso   1.000  H
  H72      1.0000 0.56190  0.93120  0.07200  Biso   1.000  H
  C41      1.0000 0.94610  0.31440  0.46160  Biso   1.000  C
  C42      1.0000 0.44610  0.18560  0.96160  Biso   1.000  C
  C43      1.0000 0.05390  0.68560  0.53840  Biso   1.000  C
  C44      1.0000 0.55390  0.81440  0.03840  Biso   1.000  C
  H73      1.0000 0.87330  0.35270  0.44520  Biso   1.000  H
  H74      1.0000 0.37330  0.14730  0.94520  Biso   1.000  H
  H75      1.0000 0.12670  0.64730  0.55480  Biso   1.000  H
  H76      1.0000 0.62670  0.85270  0.05480  Biso   1.000  H
  H77      1.0000 0.95160  0.28070  0.53210  Biso   1.000  H
  H78      1.0000 0.45160  0.21930  0.03210  Biso   1.000  H
  H79      1.0000 0.04840  0.71930  0.46790  Biso   1.000  H
  H80      1.0000 0.54840  0.78070  0.96790  Biso   1.000  H
  C45      1.0000 0.98800  0.16020  0.38040  Biso   1.000  C
  C46      1.0000 0.48800  0.33980  0.88040  Biso   1.000  C
  C47      1.0000 0.01200  0.83980  0.61960  Biso   1.000  C
  C48      1.0000 0.51200  0.66020  0.11960  Biso   1.000  C
  H81      1.0000 0.96000  0.13770  0.44250  Biso   1.000  H
  H82      1.0000 0.46000  0.36230  0.94250  Biso   1.000  H
  H83      1.0000 0.04000  0.86230  0.55750  Biso   1.000  H
  H84      1.0000 0.54000  0.63770  0.05750  Biso   1.000  H
  H85      1.0000 0.96230  0.12280  0.30930  Biso   1.000  H
  H86      1.0000 0.46230  0.37720  0.80930  Biso   1.000  H
  H87      1.0000 0.03770  0.87720  0.69070  Biso   1.000  H
  H88      1.0000 0.53770  0.62280  0.19070  Biso   1.000  H
  C49      1.0000 0.14290  0.16920  0.44510  Biso   1.000  C
  C50      1.0000 0.64290  0.33080  0.94510  Biso   1.000  C
  C51      1.0000 0.85710  0.83080  0.55490  Biso   1.000  C
  C52      1.0000 0.35710  0.66920  0.05490  Biso   1.000  C
  H89      1.0000 0.17210  0.19000  0.53190  Biso   1.000  H
  H90      1.0000 0.67210  0.31000  0.03190  Biso   1.000  H
  H91      1.0000 0.82790  0.81000  0.46810  Biso   1.000  H
  H92      1.0000 0.32790  0.69000  0.96810  Biso   1.000  H
  H93      1.0000 0.16870  0.20760  0.39690  Biso   1.000  H
  H94      1.0000 0.66870  0.29240  0.89690  Biso   1.000  H
  H95      1.0000 0.83130  0.79240  0.60310  Biso   1.000  H
  H96      1.0000 0.33130  0.70760  0.10310  Biso   1.000  H
  C53      1.0000 0.21840  0.09210  0.45360  Biso   1.000  C
  C54      1.0000 0.71840  0.40790  0.95360  Biso   1.000  C
  C55      1.0000 0.78160  0.90790  0.54640  Biso   1.000  C
  C56      1.0000 0.28160  0.59210  0.04640  Biso   1.000  C
  H97      1.0000 0.18750  0.07080  0.36680  Biso   1.000  H
  H98      1.0000 0.68750  0.42920  0.86680  Biso   1.000  H
  H99      1.0000 0.81250  0.92920  0.63320  Biso   1.000  H
  H100     1.0000 0.31250  0.57080  0.13320  Biso   1.000  H
  H101     1.0000 0.19400  0.05420  0.50330  Biso   1.000  H
  H102     1.0000 0.69400  0.44580  0.00330  Biso   1.000  H
  H103     1.0000 0.80600  0.94580  0.49670  Biso   1.000  H
  H104     1.0000 0.30600  0.55420  0.99670  Biso   1.000  H
  Cl1      1.0000 0.57220  0.42207  0.24788  Biso   1.000  Cl
  Cl2      1.0000 0.07220  0.07793  0.74788  Biso   1.000  Cl
  Cl3      1.0000 0.42780  0.57793  0.75212  Biso   1.000  Cl
  Cl4      1.0000 0.92780  0.92207  0.25212  Biso   1.000  Cl
  O1       1.0000 0.54640  0.34310  0.21730  Biso   1.000  O
  O2       1.0000 0.04640  0.15690  0.71730  Biso   1.000  O
  O3       1.0000 0.45360  0.65690  0.78270  Biso   1.000  O
  O4       1.0000 0.95360  0.84310  0.28270  Biso   1.000  O
  O5       1.0000 0.47600  0.46130  0.27800  Biso   1.000  O
  O6       1.0000 0.97600  0.03870  0.77800  Biso   1.000  O
  O7       1.0000 0.52400  0.53870  0.72200  Biso   1.000  O
  O8       1.0000 0.02400  0.96130  0.22200  Biso   1.000  O
  O9       1.0000 0.51350  0.45430  0.11060  Biso   1.000  O
  O10      1.0000 0.01350  0.04570  0.61060  Biso   1.000  O
  O11      1.0000 0.48650  0.54570  0.88940  Biso   1.000  O
  O12      1.0000 0.98650  0.95430  0.38940  Biso   1.000  O
  O13      1.0000 0.69950  0.45940  0.30100  Biso   1.000  O
  O14      1.0000 0.19950  0.04060  0.80100  Biso   1.000  O
  O15      1.0000 0.30050  0.54060  0.69900  Biso   1.000  O
  O16      1.0000 0.80050  0.95940  0.19900  Biso   1.000  O
  O17      1.0000 0.65320  0.45460  0.20230  Biso   1.000  O
  O18      1.0000 0.15320  0.04540  0.70230  Biso   1.000  O
  O19      1.0000 0.34680  0.54540  0.79770  Biso   1.000  O
  O20      1.0000 0.84680  0.95460  0.29770  Biso   1.000  O
  O21      1.0000 0.67360  0.40080  0.38810  Biso   1.000  O
  O22      1.0000 0.17360  0.09920  0.88810  Biso   1.000  O
  O23      1.0000 0.32640  0.59920  0.61190  Biso   1.000  O
  O24      1.0000 0.82640  0.90080  0.11190  Biso   1.000  O
