data_image0
_cell_length_a       24.954
_cell_length_b       14.712
_cell_length_c       14.377
_cell_angle_alpha    90
_cell_angle_beta     112.475
_cell_angle_gamma    90

_symmetry_space_group_name_H-M    "P 1"
_symmetry_int_tables_number       1

loop_
  _symmetry_equiv_pos_as_xyz
  'x, y, z'

loop_
  _atom_site_label
  _atom_site_occupancy
  _atom_site_fract_x
  _atom_site_fract_y
  _atom_site_fract_z
  _atom_site_thermal_displace_type
  _atom_site_B_iso_or_equiv
  _atom_site_type_symbol
  I1       1.0000 0.75822  0.50000  0.55842  Biso   1.000  I
  I2       1.0000 0.25822  0.00000  0.55842  Biso   1.000  I
  I3       1.0000 0.24178  0.50000  0.44158  Biso   1.000  I
  I4       1.0000 0.74178  0.00000  0.44158  Biso   1.000  I
  Cu1      1.0000 0.79693  0.62899  0.68344  Biso   1.000  Cu
  Cu2      1.0000 0.29693  0.12899  0.68344  Biso   1.000  Cu
  Cu3      1.0000 0.20307  0.62899  0.31656  Biso   1.000  Cu
  Cu4      1.0000 0.70307  0.12899  0.31656  Biso   1.000  Cu
  Cu5      1.0000 0.20307  0.37101  0.31656  Biso   1.000  Cu
  Cu6      1.0000 0.70307  0.87101  0.31656  Biso   1.000  Cu
  Cu7      1.0000 0.79693  0.37101  0.68344  Biso   1.000  Cu
  Cu8      1.0000 0.29693  0.87101  0.68344  Biso   1.000  Cu
  N1       1.0000 0.88000  0.65230  0.72170  Biso   1.000  N
  N2       1.0000 0.38000  0.15230  0.72170  Biso   1.000  N
  N3       1.0000 0.12000  0.65230  0.27830  Biso   1.000  N
  N4       1.0000 0.62000  0.15230  0.27830  Biso   1.000  N
  N5       1.0000 0.12000  0.34770  0.27830  Biso   1.000  N
  N6       1.0000 0.62000  0.84770  0.27830  Biso   1.000  N
  N7       1.0000 0.88000  0.34770  0.72170  Biso   1.000  N
  N8       1.0000 0.38000  0.84770  0.72170  Biso   1.000  N
  N9       1.0000 0.86860  0.74190  0.57470  Biso   1.000  N
  N10      1.0000 0.36860  0.24190  0.57470  Biso   1.000  N
  N11      1.0000 0.13140  0.74190  0.42530  Biso   1.000  N
  N12      1.0000 0.63140  0.24190  0.42530  Biso   1.000  N
  N13      1.0000 0.13140  0.25810  0.42530  Biso   1.000  N
  N14      1.0000 0.63140  0.75810  0.42530  Biso   1.000  N
  N15      1.0000 0.86860  0.25810  0.57470  Biso   1.000  N
  N16      1.0000 0.36860  0.75810  0.57470  Biso   1.000  N
  N17      1.0000 0.75280  0.82430  0.24640  Biso   1.000  N
  N18      1.0000 0.25280  0.32430  0.24640  Biso   1.000  N
  N19      1.0000 0.24720  0.82430  0.75360  Biso   1.000  N
  N20      1.0000 0.74720  0.32430  0.75360  Biso   1.000  N
  N21      1.0000 0.24720  0.17570  0.75360  Biso   1.000  N
  N22      1.0000 0.74720  0.67570  0.75360  Biso   1.000  N
  N23      1.0000 0.75280  0.17570  0.24640  Biso   1.000  N
  N24      1.0000 0.25280  0.67570  0.24640  Biso   1.000  N
  N25      1.0000 0.79930  0.70610  0.36080  Biso   1.000  N
  N26      1.0000 0.29930  0.20610  0.36080  Biso   1.000  N
  N27      1.0000 0.20070  0.70610  0.63920  Biso   1.000  N
  N28      1.0000 0.70070  0.20610  0.63920  Biso   1.000  N
  N29      1.0000 0.20070  0.29390  0.63920  Biso   1.000  N
  N30      1.0000 0.70070  0.79390  0.63920  Biso   1.000  N
  N31      1.0000 0.79930  0.29390  0.36080  Biso   1.000  N
  N32      1.0000 0.29930  0.79390  0.36080  Biso   1.000  N
  B1       1.0000 0.13380  0.50000  0.94800  Biso   1.000  B
  B2       1.0000 0.63380  0.00000  0.94800  Biso   1.000  B
  B3       1.0000 0.86620  0.50000  0.05200  Biso   1.000  B
  B4       1.0000 0.36620  0.00000  0.05200  Biso   1.000  B
  F1       1.0000 0.18830  0.50000  0.96980  Biso   1.000  F
  F2       1.0000 0.68830  0.00000  0.96980  Biso   1.000  F
  F3       1.0000 0.81170  0.50000  0.03020  Biso   1.000  F
  F4       1.0000 0.31170  0.00000  0.03020  Biso   1.000  F
  F5       1.0000 0.09700  0.50000  0.85100  Biso   1.000  F
  F6       1.0000 0.59700  0.00000  0.85100  Biso   1.000  F
  F7       1.0000 0.90300  0.50000  0.14900  Biso   1.000  F
  F8       1.0000 0.40300  0.00000  0.14900  Biso   1.000  F
  F9       1.0000 0.12160  0.39710  0.95000  Biso   1.000  F
  F10      1.0000 0.62160  0.89710  0.95000  Biso   1.000  F
  F11      1.0000 0.87840  0.39710  0.05000  Biso   1.000  F
  F12      1.0000 0.37840  0.89710  0.05000  Biso   1.000  F
  F13      1.0000 0.87840  0.60290  0.05000  Biso   1.000  F
  F14      1.0000 0.37840  0.10290  0.05000  Biso   1.000  F
  F15      1.0000 0.12160  0.60290  0.95000  Biso   1.000  F
  F16      1.0000 0.62160  0.10290  0.95000  Biso   1.000  F
  F17      1.0000 0.12000  0.50000  0.03300  Biso   1.000  F
  F18      1.0000 0.62000  0.00000  0.03300  Biso   1.000  F
  F19      1.0000 0.88000  0.50000  0.96700  Biso   1.000  F
  F20      1.0000 0.38000  0.00000  0.96700  Biso   1.000  F
  F21      1.0000 0.11900  0.45900  0.99800  Biso   1.000  F
  F22      1.0000 0.61900  0.95900  0.99800  Biso   1.000  F
  F23      1.0000 0.88100  0.45900  0.00200  Biso   1.000  F
  F24      1.0000 0.38100  0.95900  0.00200  Biso   1.000  F
  F25      1.0000 0.88100  0.54100  0.00200  Biso   1.000  F
  F26      1.0000 0.38100  0.04100  0.00200  Biso   1.000  F
  F27      1.0000 0.11900  0.54100  0.99800  Biso   1.000  F
  F28      1.0000 0.61900  0.04100  0.99800  Biso   1.000  F
  C1       1.0000 0.92130  0.61910  0.80700  Biso   1.000  C
  C2       1.0000 0.42130  0.11910  0.80700  Biso   1.000  C
  C3       1.0000 0.07870  0.61910  0.19300  Biso   1.000  C
  C4       1.0000 0.57870  0.11910  0.19300  Biso   1.000  C
  C5       1.0000 0.07870  0.38090  0.19300  Biso   1.000  C
  C6       1.0000 0.57870  0.88090  0.19300  Biso   1.000  C
  C7       1.0000 0.92130  0.38090  0.80700  Biso   1.000  C
  C8       1.0000 0.42130  0.88090  0.80700  Biso   1.000  C
  H1       1.0000 0.90820  0.58730  0.85190  Biso   1.000  H
  H2       1.0000 0.40820  0.08730  0.85190  Biso   1.000  H
  H3       1.0000 0.09180  0.58730  0.14810  Biso   1.000  H
  H4       1.0000 0.59180  0.08730  0.14810  Biso   1.000  H
  H5       1.0000 0.09180  0.41270  0.14810  Biso   1.000  H
  H6       1.0000 0.59180  0.91270  0.14810  Biso   1.000  H
  H7       1.0000 0.90820  0.41270  0.85190  Biso   1.000  H
  H8       1.0000 0.40820  0.91270  0.85190  Biso   1.000  H
  C9       1.0000 0.97950  0.62660  0.83450  Biso   1.000  C
  C10      1.0000 0.47950  0.12660  0.83450  Biso   1.000  C
  C11      1.0000 0.02050  0.62660  0.16550  Biso   1.000  C
  C12      1.0000 0.52050  0.12660  0.16550  Biso   1.000  C
  C13      1.0000 0.02050  0.37340  0.16550  Biso   1.000  C
  C14      1.0000 0.52050  0.87340  0.16550  Biso   1.000  C
  C15      1.0000 0.97950  0.37340  0.83450  Biso   1.000  C
  C16      1.0000 0.47950  0.87340  0.83450  Biso   1.000  C
  H9       1.0000 0.00530  0.59950  0.89500  Biso   1.000  H
  H10      1.0000 0.50530  0.09950  0.89500  Biso   1.000  H
  H11      1.0000 0.99470  0.59950  0.10500  Biso   1.000  H
  H12      1.0000 0.49470  0.09950  0.10500  Biso   1.000  H
  H13      1.0000 0.99470  0.40050  0.10500  Biso   1.000  H
  H14      1.0000 0.49470  0.90050  0.10500  Biso   1.000  H
  H15      1.0000 0.00530  0.40050  0.89500  Biso   1.000  H
  H16      1.0000 0.50530  0.90050  0.89500  Biso   1.000  H
  C17      1.0000 0.00050  0.67460  0.77280  Biso   1.000  C
  C18      1.0000 0.50050  0.17460  0.77280  Biso   1.000  C
  C19      1.0000 0.99950  0.67460  0.22720  Biso   1.000  C
  C20      1.0000 0.49950  0.17460  0.22720  Biso   1.000  C
  C21      1.0000 0.99950  0.32540  0.22720  Biso   1.000  C
  C22      1.0000 0.49950  0.82540  0.22720  Biso   1.000  C
  C23      1.0000 0.00050  0.32540  0.77280  Biso   1.000  C
  C24      1.0000 0.50050  0.82540  0.77280  Biso   1.000  C
  H17      1.0000 0.04110  0.68170  0.79080  Biso   1.000  H
  H18      1.0000 0.54110  0.18170  0.79080  Biso   1.000  H
  H19      1.0000 0.95890  0.68170  0.20920  Biso   1.000  H
  H20      1.0000 0.45890  0.18170  0.20920  Biso   1.000  H
  H21      1.0000 0.95890  0.31830  0.20920  Biso   1.000  H
  H22      1.0000 0.45890  0.81830  0.20920  Biso   1.000  H
  H23      1.0000 0.04110  0.31830  0.79080  Biso   1.000  H
  H24      1.0000 0.54110  0.81830  0.79080  Biso   1.000  H
  C25      1.0000 0.96190  0.71190  0.68480  Biso   1.000  C
  C26      1.0000 0.46190  0.21190  0.68480  Biso   1.000  C
  C27      1.0000 0.03810  0.71190  0.31520  Biso   1.000  C
  C28      1.0000 0.53810  0.21190  0.31520  Biso   1.000  C
  C29      1.0000 0.03810  0.28810  0.31520  Biso   1.000  C
  C30      1.0000 0.53810  0.78810  0.31520  Biso   1.000  C
  C31      1.0000 0.96190  0.28810  0.68480  Biso   1.000  C
  C32      1.0000 0.46190  0.78810  0.68480  Biso   1.000  C
  C33      1.0000 0.96300  0.76740  0.60470  Biso   1.000  C
  C34      1.0000 0.46300  0.26740  0.60470  Biso   1.000  C
  C35      1.0000 0.03700  0.76740  0.39530  Biso   1.000  C
  C36      1.0000 0.53700  0.26740  0.39530  Biso   1.000  C
  C37      1.0000 0.03700  0.23260  0.39530  Biso   1.000  C
  C38      1.0000 0.53700  0.73260  0.39530  Biso   1.000  C
  C39      1.0000 0.96300  0.23260  0.60470  Biso   1.000  C
  C40      1.0000 0.46300  0.73260  0.60470  Biso   1.000  C
  H25      1.0000 0.99640  0.79100  0.59670  Biso   1.000  H
  H26      1.0000 0.49640  0.29100  0.59670  Biso   1.000  H
  H27      1.0000 0.00360  0.79100  0.40330  Biso   1.000  H
  H28      1.0000 0.50360  0.29100  0.40330  Biso   1.000  H
  H29      1.0000 0.00360  0.20900  0.40330  Biso   1.000  H
  H30      1.0000 0.50360  0.70900  0.40330  Biso   1.000  H
  H31      1.0000 0.99640  0.20900  0.59670  Biso   1.000  H
  H32      1.0000 0.49640  0.70900  0.59670  Biso   1.000  H
  C41      1.0000 0.90660  0.77990  0.54180  Biso   1.000  C
  C42      1.0000 0.40660  0.27990  0.54180  Biso   1.000  C
  C43      1.0000 0.09340  0.77990  0.45820  Biso   1.000  C
  C44      1.0000 0.59340  0.27990  0.45820  Biso   1.000  C
  C45      1.0000 0.09340  0.22010  0.45820  Biso   1.000  C
  C46      1.0000 0.59340  0.72010  0.45820  Biso   1.000  C
  C47      1.0000 0.90660  0.22010  0.54180  Biso   1.000  C
  C48      1.0000 0.40660  0.72010  0.54180  Biso   1.000  C
  H33      1.0000 0.89550  0.81260  0.48020  Biso   1.000  H
  H34      1.0000 0.39550  0.31260  0.48020  Biso   1.000  H
  H35      1.0000 0.10450  0.81260  0.51980  Biso   1.000  H
  H36      1.0000 0.60450  0.31260  0.51980  Biso   1.000  H
  H37      1.0000 0.10450  0.18740  0.51980  Biso   1.000  H
  H38      1.0000 0.60450  0.68740  0.51980  Biso   1.000  H
  H39      1.0000 0.89550  0.18740  0.48020  Biso   1.000  H
  H40      1.0000 0.39550  0.68740  0.48020  Biso   1.000  H
  C49      1.0000 0.90310  0.69540  0.66540  Biso   1.000  C
  C50      1.0000 0.40310  0.19540  0.66540  Biso   1.000  C
  C51      1.0000 0.09690  0.69540  0.33460  Biso   1.000  C
  C52      1.0000 0.59690  0.19540  0.33460  Biso   1.000  C
  C53      1.0000 0.09690  0.30460  0.33460  Biso   1.000  C
  C54      1.0000 0.59690  0.80460  0.33460  Biso   1.000  C
  C55      1.0000 0.90310  0.30460  0.66540  Biso   1.000  C
  C56      1.0000 0.40310  0.80460  0.66540  Biso   1.000  C
  C57      1.0000 0.75030  0.86080  0.15670  Biso   1.000  C
  C58      1.0000 0.25030  0.36080  0.15670  Biso   1.000  C
  C59      1.0000 0.24970  0.86080  0.84330  Biso   1.000  C
  C60      1.0000 0.74970  0.36080  0.84330  Biso   1.000  C
  C61      1.0000 0.24970  0.13920  0.84330  Biso   1.000  C
  C62      1.0000 0.74970  0.63920  0.84330  Biso   1.000  C
  C63      1.0000 0.75030  0.13920  0.15670  Biso   1.000  C
  C64      1.0000 0.25030  0.63920  0.15670  Biso   1.000  C
  H41      1.0000 0.72730  0.91340  0.13120  Biso   1.000  H
  H42      1.0000 0.22730  0.41340  0.13120  Biso   1.000  H
  H43      1.0000 0.27270  0.91340  0.86880  Biso   1.000  H
  H44      1.0000 0.77270  0.41340  0.86880  Biso   1.000  H
  H45      1.0000 0.27270  0.08660  0.86880  Biso   1.000  H
  H46      1.0000 0.77270  0.58660  0.86880  Biso   1.000  H
  H47      1.0000 0.72730  0.08660  0.13120  Biso   1.000  H
  H48      1.0000 0.22730  0.58660  0.13120  Biso   1.000  H
  C65      1.0000 0.77970  0.82400  0.10310  Biso   1.000  C
  C66      1.0000 0.27970  0.32400  0.10310  Biso   1.000  C
  C67      1.0000 0.22030  0.82400  0.89690  Biso   1.000  C
  C68      1.0000 0.72030  0.32400  0.89690  Biso   1.000  C
  C69      1.0000 0.22030  0.17600  0.89690  Biso   1.000  C
  C70      1.0000 0.72030  0.67600  0.89690  Biso   1.000  C
  C71      1.0000 0.77970  0.17600  0.10310  Biso   1.000  C
  C72      1.0000 0.27970  0.67600  0.10310  Biso   1.000  C
  H49      1.0000 0.77480  0.85010  0.03990  Biso   1.000  H
  H50      1.0000 0.27480  0.35010  0.03990  Biso   1.000  H
  H51      1.0000 0.22520  0.85010  0.96010  Biso   1.000  H
  H52      1.0000 0.72520  0.35010  0.96010  Biso   1.000  H
  H53      1.0000 0.22520  0.14990  0.96010  Biso   1.000  H
  H54      1.0000 0.72520  0.64990  0.96010  Biso   1.000  H
  H55      1.0000 0.77480  0.14990  0.03990  Biso   1.000  H
  H56      1.0000 0.27480  0.64990  0.03990  Biso   1.000  H
  C73      1.0000 0.81580  0.75150  0.13650  Biso   1.000  C
  C74      1.0000 0.31580  0.25150  0.13650  Biso   1.000  C
  C75      1.0000 0.18420  0.75150  0.86350  Biso   1.000  C
  C76      1.0000 0.68420  0.25150  0.86350  Biso   1.000  C
  C77      1.0000 0.18420  0.24850  0.86350  Biso   1.000  C
  C78      1.0000 0.68420  0.74850  0.86350  Biso   1.000  C
  C79      1.0000 0.81580  0.24850  0.13650  Biso   1.000  C
  C80      1.0000 0.31580  0.74850  0.13650  Biso   1.000  C
  H57      1.0000 0.83670  0.72760  0.09890  Biso   1.000  H
  H58      1.0000 0.33670  0.22760  0.09890  Biso   1.000  H
  H59      1.0000 0.16330  0.72760  0.90110  Biso   1.000  H
  H60      1.0000 0.66330  0.22760  0.90110  Biso   1.000  H
  H61      1.0000 0.16330  0.27240  0.90110  Biso   1.000  H
  H62      1.0000 0.66330  0.77240  0.90110  Biso   1.000  H
  H63      1.0000 0.83670  0.27240  0.09890  Biso   1.000  H
  H64      1.0000 0.33670  0.77240  0.09890  Biso   1.000  H
  C81      1.0000 0.82040  0.71630  0.22260  Biso   1.000  C
  C82      1.0000 0.32040  0.21630  0.22260  Biso   1.000  C
  C83      1.0000 0.17960  0.71630  0.77740  Biso   1.000  C
  C84      1.0000 0.67960  0.21630  0.77740  Biso   1.000  C
  C85      1.0000 0.17960  0.28370  0.77740  Biso   1.000  C
  C86      1.0000 0.67960  0.78370  0.77740  Biso   1.000  C
  C87      1.0000 0.82040  0.28370  0.22260  Biso   1.000  C
  C88      1.0000 0.32040  0.78370  0.22260  Biso   1.000  C
  C89      1.0000 0.85260  0.63850  0.28310  Biso   1.000  C
  C90      1.0000 0.35260  0.13850  0.28310  Biso   1.000  C
  C91      1.0000 0.14740  0.63850  0.71690  Biso   1.000  C
  C92      1.0000 0.64740  0.13850  0.71690  Biso   1.000  C
  C93      1.0000 0.14740  0.36150  0.71690  Biso   1.000  C
  C94      1.0000 0.64740  0.86150  0.71690  Biso   1.000  C
  C95      1.0000 0.85260  0.36150  0.28310  Biso   1.000  C
  C96      1.0000 0.35260  0.86150  0.28310  Biso   1.000  C
  H65      1.0000 0.87770  0.59830  0.26750  Biso   1.000  H
  H66      1.0000 0.37770  0.09830  0.26750  Biso   1.000  H
  H67      1.0000 0.12230  0.59830  0.73250  Biso   1.000  H
  H68      1.0000 0.62230  0.09830  0.73250  Biso   1.000  H
  H69      1.0000 0.12230  0.40170  0.73250  Biso   1.000  H
  H70      1.0000 0.62230  0.90170  0.73250  Biso   1.000  H
  H71      1.0000 0.87770  0.40170  0.26750  Biso   1.000  H
  H72      1.0000 0.37770  0.90170  0.26750  Biso   1.000  H
  C97      1.0000 0.83890  0.63610  0.36440  Biso   1.000  C
  C98      1.0000 0.33890  0.13610  0.36440  Biso   1.000  C
  C99      1.0000 0.16110  0.63610  0.63560  Biso   1.000  C
  C100     1.0000 0.66110  0.13610  0.63560  Biso   1.000  C
  C101     1.0000 0.16110  0.36390  0.63560  Biso   1.000  C
  C102     1.0000 0.66110  0.86390  0.63560  Biso   1.000  C
  C103     1.0000 0.83890  0.36390  0.36440  Biso   1.000  C
  C104     1.0000 0.33890  0.86390  0.36440  Biso   1.000  C
  H73      1.0000 0.85390  0.59310  0.41740  Biso   1.000  H
  H74      1.0000 0.35390  0.09310  0.41740  Biso   1.000  H
  H75      1.0000 0.14610  0.59310  0.58260  Biso   1.000  H
  H76      1.0000 0.64610  0.09310  0.58260  Biso   1.000  H
  H77      1.0000 0.14610  0.40690  0.58260  Biso   1.000  H
  H78      1.0000 0.64610  0.90690  0.58260  Biso   1.000  H
  H79      1.0000 0.85390  0.40690  0.41740  Biso   1.000  H
  H80      1.0000 0.35390  0.90690  0.41740  Biso   1.000  H
  C105     1.0000 0.78720  0.75540  0.27500  Biso   1.000  C
  C106     1.0000 0.28720  0.25540  0.27500  Biso   1.000  C
  C107     1.0000 0.21280  0.75540  0.72500  Biso   1.000  C
  C108     1.0000 0.71280  0.25540  0.72500  Biso   1.000  C
  C109     1.0000 0.21280  0.24460  0.72500  Biso   1.000  C
  C110     1.0000 0.71280  0.74460  0.72500  Biso   1.000  C
  C111     1.0000 0.78720  0.24460  0.27500  Biso   1.000  C
  C112     1.0000 0.28720  0.74460  0.27500  Biso   1.000  C
  C113     1.0000 0.77430  0.72390  0.43250  Biso   1.000  C
  C114     1.0000 0.27430  0.22390  0.43250  Biso   1.000  C
  C115     1.0000 0.22570  0.72390  0.56750  Biso   1.000  C
  C116     1.0000 0.72570  0.22390  0.56750  Biso   1.000  C
  C117     1.0000 0.22570  0.27610  0.56750  Biso   1.000  C
  C118     1.0000 0.72570  0.77610  0.56750  Biso   1.000  C
  C119     1.0000 0.77430  0.27610  0.43250  Biso   1.000  C
  C120     1.0000 0.27430  0.77610  0.43250  Biso   1.000  C
  C121     1.0000 0.78330  0.77270  0.60200  Biso   1.000  C
  C122     1.0000 0.28330  0.27270  0.60200  Biso   1.000  C
  C123     1.0000 0.21670  0.77270  0.39800  Biso   1.000  C
  C124     1.0000 0.71670  0.27270  0.39800  Biso   1.000  C
  C125     1.0000 0.21670  0.22730  0.39800  Biso   1.000  C
  C126     1.0000 0.71670  0.72730  0.39800  Biso   1.000  C
  C127     1.0000 0.78330  0.22730  0.60200  Biso   1.000  C
  C128     1.0000 0.28330  0.72730  0.60200  Biso   1.000  C
  H81      1.0000 0.80720  0.78890  0.66910  Biso   1.000  H
  H82      1.0000 0.30720  0.28890  0.66910  Biso   1.000  H
  H83      1.0000 0.19280  0.78890  0.33090  Biso   1.000  H
  H84      1.0000 0.69280  0.28890  0.33090  Biso   1.000  H
  H85      1.0000 0.19280  0.21110  0.33090  Biso   1.000  H
  H86      1.0000 0.69280  0.71110  0.33090  Biso   1.000  H
  H87      1.0000 0.80720  0.21110  0.66910  Biso   1.000  H
  H88      1.0000 0.30720  0.71110  0.66910  Biso   1.000  H
  C129     1.0000 0.80630  0.74320  0.53190  Biso   1.000  C
  C130     1.0000 0.30630  0.24320  0.53190  Biso   1.000  C
  C131     1.0000 0.19370  0.74320  0.46810  Biso   1.000  C
  C132     1.0000 0.69370  0.24320  0.46810  Biso   1.000  C
  C133     1.0000 0.19370  0.25680  0.46810  Biso   1.000  C
  C134     1.0000 0.69370  0.75680  0.46810  Biso   1.000  C
  C135     1.0000 0.80630  0.25680  0.53190  Biso   1.000  C
  C136     1.0000 0.30630  0.75680  0.53190  Biso   1.000  C
  C137     1.0000 0.88700  0.00000  0.68200  Biso   1.000  C
  C138     1.0000 0.38700  0.50000  0.68200  Biso   1.000  C
  C139     1.0000 0.11300  0.00000  0.31800  Biso   1.000  C
  C140     1.0000 0.61300  0.50000  0.31800  Biso   1.000  C
  C141     1.0000 0.87360  0.92780  0.75910  Biso   1.000  C
  C142     1.0000 0.37360  0.42780  0.75910  Biso   1.000  C
  C143     1.0000 0.12640  0.92780  0.24090  Biso   1.000  C
  C144     1.0000 0.62640  0.42780  0.24090  Biso   1.000  C
  C145     1.0000 0.12640  0.07220  0.24090  Biso   1.000  C
  C146     1.0000 0.62640  0.57220  0.24090  Biso   1.000  C
  C147     1.0000 0.87360  0.07220  0.75910  Biso   1.000  C
  C148     1.0000 0.37360  0.57220  0.75910  Biso   1.000  C
  C149     1.0000 0.82000  0.96480  0.74610  Biso   1.000  C
  C150     1.0000 0.32000  0.46480  0.74610  Biso   1.000  C
  C151     1.0000 0.18000  0.96480  0.25390  Biso   1.000  C
  C152     1.0000 0.68000  0.46480  0.25390  Biso   1.000  C
  C153     1.0000 0.18000  0.03520  0.25390  Biso   1.000  C
  C154     1.0000 0.68000  0.53520  0.25390  Biso   1.000  C
  C155     1.0000 0.82000  0.03520  0.74610  Biso   1.000  C
  C156     1.0000 0.32000  0.53520  0.74610  Biso   1.000  C
  C157     1.0000 0.79050  0.93460  0.80500  Biso   1.000  C
  C158     1.0000 0.29050  0.43460  0.80500  Biso   1.000  C
  C159     1.0000 0.20950  0.93460  0.19500  Biso   1.000  C
  C160     1.0000 0.70950  0.43460  0.19500  Biso   1.000  C
  C161     1.0000 0.20950  0.06540  0.19500  Biso   1.000  C
  C162     1.0000 0.70950  0.56540  0.19500  Biso   1.000  C
  C163     1.0000 0.79050  0.06540  0.80500  Biso   1.000  C
  C164     1.0000 0.29050  0.56540  0.80500  Biso   1.000  C
  C165     1.0000 0.81470  0.86730  0.87680  Biso   1.000  C
  C166     1.0000 0.31470  0.36730  0.87680  Biso   1.000  C
  C167     1.0000 0.18530  0.86730  0.12320  Biso   1.000  C
  C168     1.0000 0.68530  0.36730  0.12320  Biso   1.000  C
  C169     1.0000 0.18530  0.13270  0.12320  Biso   1.000  C
  C170     1.0000 0.68530  0.63270  0.12320  Biso   1.000  C
  C171     1.0000 0.81470  0.13270  0.87680  Biso   1.000  C
  C172     1.0000 0.31470  0.63270  0.87680  Biso   1.000  C
  H89      1.0000 0.79450  0.84660  0.91700  Biso   1.000  H
  H90      1.0000 0.29450  0.34660  0.91700  Biso   1.000  H
  H91      1.0000 0.20550  0.84660  0.08300  Biso   1.000  H
  H92      1.0000 0.70550  0.34660  0.08300  Biso   1.000  H
  H93      1.0000 0.20550  0.15340  0.08300  Biso   1.000  H
  H94      1.0000 0.70550  0.65340  0.08300  Biso   1.000  H
  H95      1.0000 0.79450  0.15340  0.91700  Biso   1.000  H
  H96      1.0000 0.29450  0.65340  0.91700  Biso   1.000  H
  C173     1.0000 0.86830  0.83030  0.88970  Biso   1.000  C
  C174     1.0000 0.36830  0.33030  0.88970  Biso   1.000  C
  C175     1.0000 0.13170  0.83030  0.11030  Biso   1.000  C
  C176     1.0000 0.63170  0.33030  0.11030  Biso   1.000  C
  C177     1.0000 0.13170  0.16970  0.11030  Biso   1.000  C
  C178     1.0000 0.63170  0.66970  0.11030  Biso   1.000  C
  C179     1.0000 0.86830  0.16970  0.88970  Biso   1.000  C
  C180     1.0000 0.36830  0.66970  0.88970  Biso   1.000  C
  H97      1.0000 0.88480  0.78430  0.93880  Biso   1.000  H
  H98      1.0000 0.38480  0.28430  0.93880  Biso   1.000  H
  H99      1.0000 0.11520  0.78430  0.06120  Biso   1.000  H
  H100     1.0000 0.61520  0.28430  0.06120  Biso   1.000  H
  H101     1.0000 0.11520  0.21570  0.06120  Biso   1.000  H
  H102     1.0000 0.61520  0.71570  0.06120  Biso   1.000  H
  H103     1.0000 0.88480  0.21570  0.93880  Biso   1.000  H
  H104     1.0000 0.38480  0.71570  0.93880  Biso   1.000  H
  C181     1.0000 0.89780  0.86060  0.83080  Biso   1.000  C
  C182     1.0000 0.39780  0.36060  0.83080  Biso   1.000  C
  C183     1.0000 0.10220  0.86060  0.16920  Biso   1.000  C
  C184     1.0000 0.60220  0.36060  0.16920  Biso   1.000  C
  C185     1.0000 0.10220  0.13940  0.16920  Biso   1.000  C
  C186     1.0000 0.60220  0.63940  0.16920  Biso   1.000  C
  C187     1.0000 0.89780  0.13940  0.83080  Biso   1.000  C
  C188     1.0000 0.39780  0.63940  0.83080  Biso   1.000  C
  H105     1.0000 0.93440  0.83530  0.83970  Biso   1.000  H
  H106     1.0000 0.43440  0.33530  0.83970  Biso   1.000  H
  H107     1.0000 0.06560  0.83530  0.16030  Biso   1.000  H
  H108     1.0000 0.56560  0.33530  0.16030  Biso   1.000  H
  H109     1.0000 0.06560  0.16470  0.16030  Biso   1.000  H
  H110     1.0000 0.56560  0.66470  0.16030  Biso   1.000  H
  H111     1.0000 0.93440  0.16470  0.83970  Biso   1.000  H
  H112     1.0000 0.43440  0.66470  0.83970  Biso   1.000  H
  C189     1.0000 0.13410  0.00000  0.65300  Biso   1.000  C
  C190     1.0000 0.63410  0.50000  0.65300  Biso   1.000  C
  C191     1.0000 0.86590  0.00000  0.34700  Biso   1.000  C
  C192     1.0000 0.36590  0.50000  0.34700  Biso   1.000  C
  O1       1.0000 0.08250  0.08000  0.66000  Biso   1.000  O
  O2       1.0000 0.58250  0.58000  0.66000  Biso   1.000  O
  O3       1.0000 0.91750  0.08000  0.34000  Biso   1.000  O
  O4       1.0000 0.41750  0.58000  0.34000  Biso   1.000  O
  O5       1.0000 0.91750  0.92000  0.34000  Biso   1.000  O
  O6       1.0000 0.41750  0.42000  0.34000  Biso   1.000  O
  O7       1.0000 0.08250  0.92000  0.66000  Biso   1.000  O
  O8       1.0000 0.58250  0.42000  0.66000  Biso   1.000  O
  C193     1.0000 0.10000  0.00000  0.75700  Biso   1.000  C
  C194     1.0000 0.60000  0.50000  0.75700  Biso   1.000  C
  C195     1.0000 0.90000  0.00000  0.24300  Biso   1.000  C
  C196     1.0000 0.40000  0.50000  0.24300  Biso   1.000  C
  C197     1.0000 0.06440  0.04200  0.73500  Biso   1.000  C
  C198     1.0000 0.56440  0.54200  0.73500  Biso   1.000  C
  C199     1.0000 0.93560  0.04200  0.26500  Biso   1.000  C
  C200     1.0000 0.43560  0.54200  0.26500  Biso   1.000  C
  C201     1.0000 0.93560  0.95800  0.26500  Biso   1.000  C
  C202     1.0000 0.43560  0.45800  0.26500  Biso   1.000  C
  C203     1.0000 0.06440  0.95800  0.73500  Biso   1.000  C
  C204     1.0000 0.56440  0.45800  0.73500  Biso   1.000  C
  C205     1.0000 0.94500  0.50000  0.57400  Biso   1.000  C
  C206     1.0000 0.44500  0.00000  0.57400  Biso   1.000  C
  C207     1.0000 0.05500  0.50000  0.42600  Biso   1.000  C
  C208     1.0000 0.55500  0.00000  0.42600  Biso   1.000  C
  C209     1.0000 0.01000  0.50000  0.57500  Biso   1.000  C
  C210     1.0000 0.51000  0.00000  0.57500  Biso   1.000  C
  C211     1.0000 0.99000  0.50000  0.42500  Biso   1.000  C
  C212     1.0000 0.49000  0.00000  0.42500  Biso   1.000  C
  C213     1.0000 0.94900  0.50000  0.48200  Biso   1.000  C
  C214     1.0000 0.44900  0.00000  0.48200  Biso   1.000  C
  C215     1.0000 0.05100  0.50000  0.51800  Biso   1.000  C
  C216     1.0000 0.55100  0.00000  0.51800  Biso   1.000  C
  C217     1.0000 0.09000  0.00000  0.58200  Biso   1.000  C
  C218     1.0000 0.59000  0.50000  0.58200  Biso   1.000  C
  C219     1.0000 0.91000  0.00000  0.41800  Biso   1.000  C
  C220     1.0000 0.41000  0.50000  0.41800  Biso   1.000  C
  C221     1.0000 0.04700  0.00000  0.61500  Biso   1.000  C
  C222     1.0000 0.54700  0.50000  0.61500  Biso   1.000  C
  C223     1.0000 0.95300  0.00000  0.38500  Biso   1.000  C
  C224     1.0000 0.45300  0.50000  0.38500  Biso   1.000  C
