data_image0
_cell_length_a       6.8863
_cell_length_b       5.7065
_cell_length_c       33.961
_cell_angle_alpha    90
_cell_angle_beta     90
_cell_angle_gamma    90

_symmetry_space_group_name_H-M    "P 1"
_symmetry_int_tables_number       1

loop_
  _symmetry_equiv_pos_as_xyz
  'x, y, z'

loop_
  _atom_site_label
  _atom_site_occupancy
  _atom_site_fract_x
  _atom_site_fract_y
  _atom_site_fract_z
  _atom_site_thermal_displace_type
  _atom_site_B_iso_or_equiv
  _atom_site_type_symbol
  Cu1      1.0000 0.18442  0.82915  0.26176  Biso   1.000  Cu
  Cu2      1.0000 0.81558  0.32915  0.23824  Biso   1.000  Cu
  Cu3      1.0000 0.31558  0.17085  0.76176  Biso   1.000  Cu
  Cu4      1.0000 0.68442  0.67085  0.73824  Biso   1.000  Cu
  Cu5      1.0000 0.81558  0.17085  0.73824  Biso   1.000  Cu
  Cu6      1.0000 0.18442  0.67085  0.76176  Biso   1.000  Cu
  Cu7      1.0000 0.68442  0.82915  0.23824  Biso   1.000  Cu
  Cu8      1.0000 0.31558  0.32915  0.26176  Biso   1.000  Cu
  S1       1.0000 0.46640  0.98990  0.28188  Biso   1.000  S
  S2       1.0000 0.53360  0.48990  0.21812  Biso   1.000  S
  S3       1.0000 0.03360  0.01010  0.78188  Biso   1.000  S
  S4       1.0000 0.96640  0.51010  0.71812  Biso   1.000  S
  S5       1.0000 0.53360  0.01010  0.71812  Biso   1.000  S
  S6       1.0000 0.46640  0.51010  0.78188  Biso   1.000  S
  S7       1.0000 0.96640  0.98990  0.21812  Biso   1.000  S
  S8       1.0000 0.03360  0.48990  0.28188  Biso   1.000  S
  C1       1.0000 0.48640  0.88910  0.33124  Biso   1.000  C
  C2       1.0000 0.51360  0.38910  0.16876  Biso   1.000  C
  C3       1.0000 0.01360  0.11090  0.83124  Biso   1.000  C
  C4       1.0000 0.98640  0.61090  0.66876  Biso   1.000  C
  C5       1.0000 0.51360  0.11090  0.66876  Biso   1.000  C
  C6       1.0000 0.48640  0.61090  0.83124  Biso   1.000  C
  C7       1.0000 0.98640  0.88910  0.16876  Biso   1.000  C
  C8       1.0000 0.01360  0.38910  0.33124  Biso   1.000  C
  C9       1.0000 0.42250  0.02960  0.36194  Biso   1.000  C
  C10      1.0000 0.57750  0.52960  0.13806  Biso   1.000  C
  C11      1.0000 0.07750  0.97040  0.86194  Biso   1.000  C
  C12      1.0000 0.92250  0.47040  0.63806  Biso   1.000  C
  C13      1.0000 0.57750  0.97040  0.63806  Biso   1.000  C
  C14      1.0000 0.42250  0.47040  0.86194  Biso   1.000  C
  C15      1.0000 0.92250  0.02960  0.13806  Biso   1.000  C
  C16      1.0000 0.07750  0.52960  0.36194  Biso   1.000  C
  C17      1.0000 0.43480  0.95140  0.40093  Biso   1.000  C
  C18      1.0000 0.56520  0.45140  0.09907  Biso   1.000  C
  C19      1.0000 0.06520  0.04860  0.90093  Biso   1.000  C
  C20      1.0000 0.93480  0.54860  0.59907  Biso   1.000  C
  C21      1.0000 0.56520  0.04860  0.59907  Biso   1.000  C
  C22      1.0000 0.43480  0.54860  0.90093  Biso   1.000  C
  C23      1.0000 0.93480  0.95140  0.09907  Biso   1.000  C
  C24      1.0000 0.06520  0.45140  0.40093  Biso   1.000  C
  C25      1.0000 0.50970  0.73230  0.40833  Biso   1.000  C
  C26      1.0000 0.49030  0.23230  0.09167  Biso   1.000  C
  C27      1.0000 0.99030  0.26770  0.90833  Biso   1.000  C
  C28      1.0000 0.00970  0.76770  0.59167  Biso   1.000  C
  C29      1.0000 0.49030  0.26770  0.59167  Biso   1.000  C
  C30      1.0000 0.50970  0.76770  0.90833  Biso   1.000  C
  C31      1.0000 0.00970  0.73230  0.09167  Biso   1.000  C
  C32      1.0000 0.99030  0.23230  0.40833  Biso   1.000  C
  C33      1.0000 0.58170  0.59310  0.37799  Biso   1.000  C
  C34      1.0000 0.41830  0.09310  0.12201  Biso   1.000  C
  C35      1.0000 0.91830  0.40690  0.87799  Biso   1.000  C
  C36      1.0000 0.08170  0.90690  0.62201  Biso   1.000  C
  C37      1.0000 0.41830  0.40690  0.62201  Biso   1.000  C
  C38      1.0000 0.58170  0.90690  0.87799  Biso   1.000  C
  C39      1.0000 0.08170  0.59310  0.12201  Biso   1.000  C
  C40      1.0000 0.91830  0.09310  0.37799  Biso   1.000  C
  C41      1.0000 0.56970  0.67130  0.33900  Biso   1.000  C
  C42      1.0000 0.43030  0.17130  0.16100  Biso   1.000  C
  C43      1.0000 0.93030  0.32870  0.83900  Biso   1.000  C
  C44      1.0000 0.06970  0.82870  0.66100  Biso   1.000  C
  C45      1.0000 0.43030  0.32870  0.66100  Biso   1.000  C
  C46      1.0000 0.56970  0.82870  0.83900  Biso   1.000  C
  C47      1.0000 0.06970  0.67130  0.16100  Biso   1.000  C
  C48      1.0000 0.93030  0.17130  0.33900  Biso   1.000  C
  C49      1.0000 0.51390  0.63340  0.44894  Biso   1.000  C
  C50      1.0000 0.48610  0.13340  0.05106  Biso   1.000  C
  C51      1.0000 0.98610  0.36660  0.94894  Biso   1.000  C
  C52      1.0000 0.01390  0.86660  0.55106  Biso   1.000  C
  C53      1.0000 0.48610  0.36660  0.55106  Biso   1.000  C
  C54      1.0000 0.51390  0.86660  0.94894  Biso   1.000  C
  C55      1.0000 0.01390  0.63340  0.05106  Biso   1.000  C
  C56      1.0000 0.98610  0.13340  0.44894  Biso   1.000  C
  O1       1.0000 0.58490  0.43990  0.45583  Biso   1.000  O
  O2       1.0000 0.41510  0.93990  0.04417  Biso   1.000  O
  O3       1.0000 0.91510  0.56010  0.95583  Biso   1.000  O
  O4       1.0000 0.08490  0.06010  0.54417  Biso   1.000  O
  O5       1.0000 0.41510  0.56010  0.54417  Biso   1.000  O
  O6       1.0000 0.58490  0.06010  0.95583  Biso   1.000  O
  O7       1.0000 0.08490  0.43990  0.04417  Biso   1.000  O
  O8       1.0000 0.91510  0.93990  0.45583  Biso   1.000  O
  O9       1.0000 0.42940  0.76860  0.47497  Biso   1.000  O
  O10      1.0000 0.57060  0.26860  0.02503  Biso   1.000  O
  O11      1.0000 0.07060  0.23140  0.97497  Biso   1.000  O
  O12      1.0000 0.92940  0.73140  0.52503  Biso   1.000  O
  O13      1.0000 0.57060  0.23140  0.52503  Biso   1.000  O
  O14      1.0000 0.42940  0.73140  0.97497  Biso   1.000  O
  O15      1.0000 0.92940  0.76860  0.02503  Biso   1.000  O
  O16      1.0000 0.07060  0.26860  0.47497  Biso   1.000  O
  H1       1.0000 0.36950  0.17790  0.35640  Biso   1.000  H
  H2       1.0000 0.63050  0.67790  0.14360  Biso   1.000  H
  H3       1.0000 0.13050  0.82210  0.85640  Biso   1.000  H
  H4       1.0000 0.86950  0.32210  0.64360  Biso   1.000  H
  H5       1.0000 0.63050  0.82210  0.64360  Biso   1.000  H
  H6       1.0000 0.36950  0.32210  0.85640  Biso   1.000  H
  H7       1.0000 0.86950  0.17790  0.14360  Biso   1.000  H
  H8       1.0000 0.13050  0.67790  0.35640  Biso   1.000  H
  H9       1.0000 0.39320  0.04410  0.42180  Biso   1.000  H
  H10      1.0000 0.60680  0.54410  0.07820  Biso   1.000  H
  H11      1.0000 0.10680  0.95590  0.92180  Biso   1.000  H
  H12      1.0000 0.89320  0.45590  0.57820  Biso   1.000  H
  H13      1.0000 0.60680  0.95590  0.57820  Biso   1.000  H
  H14      1.0000 0.39320  0.45590  0.92180  Biso   1.000  H
  H15      1.0000 0.89320  0.04410  0.07820  Biso   1.000  H
  H16      1.0000 0.10680  0.54410  0.42180  Biso   1.000  H
  H17      1.0000 0.63940  0.44730  0.38370  Biso   1.000  H
  H18      1.0000 0.36060  0.94730  0.11630  Biso   1.000  H
  H19      1.0000 0.86060  0.55270  0.88370  Biso   1.000  H
  H20      1.0000 0.13940  0.05270  0.61630  Biso   1.000  H
  H21      1.0000 0.36060  0.55270  0.61630  Biso   1.000  H
  H22      1.0000 0.63940  0.05270  0.88370  Biso   1.000  H
  H23      1.0000 0.13940  0.44730  0.11630  Biso   1.000  H
  H24      1.0000 0.86060  0.94730  0.38370  Biso   1.000  H
  H25      1.0000 0.61760  0.57790  0.31870  Biso   1.000  H
  H26      1.0000 0.38240  0.07790  0.18130  Biso   1.000  H
  H27      1.0000 0.88240  0.42210  0.81870  Biso   1.000  H
  H28      1.0000 0.11760  0.92210  0.68130  Biso   1.000  H
  H29      1.0000 0.38240  0.42210  0.68130  Biso   1.000  H
  H30      1.0000 0.61760  0.92210  0.81870  Biso   1.000  H
  H31      1.0000 0.11760  0.57790  0.18130  Biso   1.000  H
  H32      1.0000 0.88240  0.07790  0.31870  Biso   1.000  H
  H33      1.0000 0.42460  0.70090  0.49730  Biso   1.000  H
  H34      1.0000 0.57540  0.20090  0.00270  Biso   1.000  H
  H35      1.0000 0.07540  0.29910  0.99730  Biso   1.000  H
  H36      1.0000 0.92460  0.79910  0.50270  Biso   1.000  H
  H37      1.0000 0.57540  0.29910  0.50270  Biso   1.000  H
  H38      1.0000 0.42460  0.79910  0.99730  Biso   1.000  H
  H39      1.0000 0.92460  0.70090  0.00270  Biso   1.000  H
  H40      1.0000 0.07540  0.20090  0.49730  Biso   1.000  H
