data_image0
_cell_length_a       6.8485
_cell_length_b       5.7083
_cell_length_c       33.959
_cell_angle_alpha    90
_cell_angle_beta     90
_cell_angle_gamma    90

_symmetry_space_group_name_H-M    "P 1"
_symmetry_int_tables_number       1

loop_
  _symmetry_equiv_pos_as_xyz
  'x, y, z'

loop_
  _atom_site_label
  _atom_site_occupancy
  _atom_site_fract_x
  _atom_site_fract_y
  _atom_site_fract_z
  _atom_site_thermal_displace_type
  _atom_site_B_iso_or_equiv
  _atom_site_type_symbol
  Cu1      1.0000 0.31556  0.16833  0.73825  Biso   1.000  Cu
  Cu2      1.0000 0.81556  0.33167  0.26175  Biso   1.000  Cu
  Cu3      1.0000 0.68444  0.66833  0.76175  Biso   1.000  Cu
  Cu4      1.0000 0.18444  0.83167  0.23825  Biso   1.000  Cu
  Cu5      1.0000 0.68444  0.83167  0.26175  Biso   1.000  Cu
  Cu6      1.0000 0.18444  0.66833  0.73825  Biso   1.000  Cu
  Cu7      1.0000 0.31556  0.33167  0.23825  Biso   1.000  Cu
  Cu8      1.0000 0.81556  0.16833  0.76175  Biso   1.000  Cu
  S1       1.0000 0.46630  0.50740  0.71824  Biso   1.000  S
  S2       1.0000 0.96630  0.99260  0.28176  Biso   1.000  S
  S3       1.0000 0.53370  0.00740  0.78176  Biso   1.000  S
  S4       1.0000 0.03370  0.49260  0.21824  Biso   1.000  S
  S5       1.0000 0.53370  0.49260  0.28176  Biso   1.000  S
  S6       1.0000 0.03370  0.00740  0.71824  Biso   1.000  S
  S7       1.0000 0.46630  0.99260  0.21824  Biso   1.000  S
  S8       1.0000 0.96630  0.50740  0.78176  Biso   1.000  S
  O1       1.0000 0.42940  0.73250  0.52512  Biso   1.000  O
  O2       1.0000 0.92940  0.76750  0.47488  Biso   1.000  O
  O3       1.0000 0.57060  0.23250  0.97488  Biso   1.000  O
  O4       1.0000 0.07060  0.26750  0.02512  Biso   1.000  O
  O5       1.0000 0.57060  0.26750  0.47488  Biso   1.000  O
  O6       1.0000 0.07060  0.23250  0.52512  Biso   1.000  O
  O7       1.0000 0.42940  0.76750  0.02512  Biso   1.000  O
  O8       1.0000 0.92940  0.73250  0.97488  Biso   1.000  O
  H1       1.0000 0.42060  0.80370  0.50422  Biso   1.000  H
  H2       1.0000 0.92060  0.69630  0.49578  Biso   1.000  H
  H3       1.0000 0.57940  0.30370  0.99578  Biso   1.000  H
  H4       1.0000 0.07940  0.19630  0.00422  Biso   1.000  H
  H5       1.0000 0.57940  0.19630  0.49578  Biso   1.000  H
  H6       1.0000 0.07940  0.30370  0.50422  Biso   1.000  H
  H7       1.0000 0.42060  0.69630  0.00422  Biso   1.000  H
  H8       1.0000 0.92060  0.80370  0.99578  Biso   1.000  H
  O9       1.0000 0.58680  0.05750  0.54390  Biso   1.000  O
  O10      1.0000 0.08680  0.44250  0.45610  Biso   1.000  O
  O11      1.0000 0.41320  0.55750  0.95610  Biso   1.000  O
  O12      1.0000 0.91320  0.94250  0.04390  Biso   1.000  O
  O13      1.0000 0.41320  0.94250  0.45610  Biso   1.000  O
  O14      1.0000 0.91320  0.55750  0.54390  Biso   1.000  O
  O15      1.0000 0.58680  0.44250  0.04390  Biso   1.000  O
  O16      1.0000 0.08680  0.05750  0.95610  Biso   1.000  O
  C1       1.0000 0.51410  0.86610  0.55136  Biso   1.000  C
  C2       1.0000 0.01410  0.63390  0.44864  Biso   1.000  C
  C3       1.0000 0.48590  0.36610  0.94864  Biso   1.000  C
  C4       1.0000 0.98590  0.13390  0.05136  Biso   1.000  C
  C5       1.0000 0.48590  0.13390  0.44864  Biso   1.000  C
  C6       1.0000 0.98590  0.36610  0.55136  Biso   1.000  C
  C7       1.0000 0.51410  0.63390  0.05136  Biso   1.000  C
  C8       1.0000 0.01410  0.86610  0.94864  Biso   1.000  C
  C9       1.0000 0.51190  0.76720  0.59171  Biso   1.000  C
  C10      1.0000 0.01190  0.73280  0.40829  Biso   1.000  C
  C11      1.0000 0.48810  0.26720  0.90829  Biso   1.000  C
  C12      1.0000 0.98810  0.23280  0.09171  Biso   1.000  C
  C13      1.0000 0.48810  0.23280  0.40829  Biso   1.000  C
  C14      1.0000 0.98810  0.26720  0.59171  Biso   1.000  C
  C15      1.0000 0.51190  0.73280  0.09171  Biso   1.000  C
  C16      1.0000 0.01190  0.76720  0.90829  Biso   1.000  C
  C17      1.0000 0.43370  0.54750  0.59961  Biso   1.000  C
  C18      1.0000 0.93370  0.95250  0.40039  Biso   1.000  C
  C19      1.0000 0.56630  0.04750  0.90039  Biso   1.000  C
  C20      1.0000 0.06630  0.45250  0.09961  Biso   1.000  C
  C21      1.0000 0.56630  0.45250  0.40039  Biso   1.000  C
  C22      1.0000 0.06630  0.04750  0.59961  Biso   1.000  C
  C23      1.0000 0.43370  0.95250  0.09961  Biso   1.000  C
  C24      1.0000 0.93370  0.54750  0.90039  Biso   1.000  C
  H9       1.0000 0.39067  0.45343  0.57901  Biso   1.000  H
  H10      1.0000 0.89067  0.04657  0.42099  Biso   1.000  H
  H11      1.0000 0.60933  0.95343  0.92099  Biso   1.000  H
  H12      1.0000 0.10933  0.54657  0.07901  Biso   1.000  H
  H13      1.0000 0.60933  0.54657  0.42099  Biso   1.000  H
  H14      1.0000 0.10933  0.95343  0.57901  Biso   1.000  H
  H15      1.0000 0.39067  0.04657  0.07901  Biso   1.000  H
  H16      1.0000 0.89067  0.45343  0.92099  Biso   1.000  H
  C25      1.0000 0.41980  0.46880  0.63775  Biso   1.000  C
  C26      1.0000 0.91980  0.03120  0.36225  Biso   1.000  C
  C27      1.0000 0.58020  0.96880  0.86225  Biso   1.000  C
  C28      1.0000 0.08020  0.53120  0.13775  Biso   1.000  C
  C29      1.0000 0.58020  0.53120  0.36225  Biso   1.000  C
  C30      1.0000 0.08020  0.96880  0.63775  Biso   1.000  C
  C31      1.0000 0.41980  0.03120  0.13775  Biso   1.000  C
  C32      1.0000 0.91980  0.46880  0.86225  Biso   1.000  C
  H17      1.0000 0.36644  0.32216  0.64286  Biso   1.000  H
  H18      1.0000 0.86644  0.17784  0.35714  Biso   1.000  H
  H19      1.0000 0.63356  0.82216  0.85714  Biso   1.000  H
  H20      1.0000 0.13356  0.67784  0.14286  Biso   1.000  H
  H21      1.0000 0.63356  0.67784  0.35714  Biso   1.000  H
  H22      1.0000 0.13356  0.82216  0.64286  Biso   1.000  H
  H23      1.0000 0.36644  0.17784  0.14286  Biso   1.000  H
  H24      1.0000 0.86644  0.32216  0.85714  Biso   1.000  H
  C33      1.0000 0.48540  0.60800  0.66883  Biso   1.000  C
  C34      1.0000 0.98540  0.89200  0.33117  Biso   1.000  C
  C35      1.0000 0.51460  0.10800  0.83117  Biso   1.000  C
  C36      1.0000 0.01460  0.39200  0.16883  Biso   1.000  C
  C37      1.0000 0.51460  0.39200  0.33117  Biso   1.000  C
  C38      1.0000 0.01460  0.10800  0.66883  Biso   1.000  C
  C39      1.0000 0.48540  0.89200  0.16883  Biso   1.000  C
  C40      1.0000 0.98540  0.60800  0.83117  Biso   1.000  C
  C41      1.0000 0.56810  0.82640  0.66096  Biso   1.000  C
  C42      1.0000 0.06810  0.67360  0.33904  Biso   1.000  C
  C43      1.0000 0.43190  0.32640  0.83904  Biso   1.000  C
  C44      1.0000 0.93190  0.17360  0.16096  Biso   1.000  C
  C45      1.0000 0.43190  0.17360  0.33904  Biso   1.000  C
  C46      1.0000 0.93190  0.32640  0.66096  Biso   1.000  C
  C47      1.0000 0.56810  0.67360  0.16096  Biso   1.000  C
  C48      1.0000 0.06810  0.82640  0.83904  Biso   1.000  C
  H25      1.0000 0.61454  0.91887  0.68147  Biso   1.000  H
  H26      1.0000 0.11454  0.58113  0.31853  Biso   1.000  H
  H27      1.0000 0.38546  0.41887  0.81853  Biso   1.000  H
  H28      1.0000 0.88546  0.08113  0.18147  Biso   1.000  H
  H29      1.0000 0.38546  0.08113  0.31853  Biso   1.000  H
  H30      1.0000 0.88546  0.41887  0.68147  Biso   1.000  H
  H31      1.0000 0.61454  0.58113  0.18147  Biso   1.000  H
  H32      1.0000 0.11454  0.91887  0.81853  Biso   1.000  H
  C49      1.0000 0.58050  0.90460  0.62258  Biso   1.000  C
  C50      1.0000 0.08050  0.59540  0.37742  Biso   1.000  C
  C51      1.0000 0.41950  0.40460  0.87742  Biso   1.000  C
  C52      1.0000 0.91950  0.09540  0.12258  Biso   1.000  C
  C53      1.0000 0.41950  0.09540  0.37742  Biso   1.000  C
  C54      1.0000 0.91950  0.40460  0.62258  Biso   1.000  C
  C55      1.0000 0.58050  0.59540  0.12258  Biso   1.000  C
  C56      1.0000 0.08050  0.90460  0.87742  Biso   1.000  C
  H33      1.0000 0.63514  0.05040  0.61732  Biso   1.000  H
  H34      1.0000 0.13514  0.44960  0.38268  Biso   1.000  H
  H35      1.0000 0.36486  0.55040  0.88268  Biso   1.000  H
  H36      1.0000 0.86486  0.94960  0.11732  Biso   1.000  H
  H37      1.0000 0.36486  0.94960  0.38268  Biso   1.000  H
  H38      1.0000 0.86486  0.55040  0.61732  Biso   1.000  H
  H39      1.0000 0.63514  0.44960  0.11732  Biso   1.000  H
  H40      1.0000 0.13514  0.05040  0.88268  Biso   1.000  H
