data_image0
_cell_length_a       6.8577
_cell_length_b       5.771
_cell_length_c       33.909
_cell_angle_alpha    90
_cell_angle_beta     90
_cell_angle_gamma    90

_symmetry_space_group_name_H-M    "P 1"
_symmetry_int_tables_number       1

loop_
  _symmetry_equiv_pos_as_xyz
  'x, y, z'

loop_
  _atom_site_label
  _atom_site_occupancy
  _atom_site_fract_x
  _atom_site_fract_y
  _atom_site_fract_z
  _atom_site_thermal_displace_type
  _atom_site_B_iso_or_equiv
  _atom_site_type_symbol
  Cu1      1.0000 0.18268  0.81360  0.26169  Biso   1.000  Cu
  Cu2      1.0000 0.68268  0.68640  0.73831  Biso   1.000  Cu
  Cu3      1.0000 0.81732  0.31360  0.23831  Biso   1.000  Cu
  Cu4      1.0000 0.31732  0.18640  0.76169  Biso   1.000  Cu
  Cu5      1.0000 0.81732  0.18640  0.73831  Biso   1.000  Cu
  Cu6      1.0000 0.31732  0.31360  0.26169  Biso   1.000  Cu
  Cu7      1.0000 0.18268  0.68640  0.76169  Biso   1.000  Cu
  Cu8      1.0000 0.68268  0.81360  0.23831  Biso   1.000  Cu
  S1       1.0000 0.46410  0.97400  0.28146  Biso   1.000  S
  S2       1.0000 0.96410  0.52600  0.71854  Biso   1.000  S
  S3       1.0000 0.53590  0.47400  0.21854  Biso   1.000  S
  S4       1.0000 0.03590  0.02600  0.78146  Biso   1.000  S
  S5       1.0000 0.53590  0.02600  0.71854  Biso   1.000  S
  S6       1.0000 0.03590  0.47400  0.28146  Biso   1.000  S
  S7       1.0000 0.46410  0.52600  0.78146  Biso   1.000  S
  S8       1.0000 0.96410  0.97400  0.21854  Biso   1.000  S
  C1       1.0000 0.48560  0.87620  0.33070  Biso   1.000  C
  C2       1.0000 0.98560  0.62380  0.66930  Biso   1.000  C
  C3       1.0000 0.51440  0.37620  0.16930  Biso   1.000  C
  C4       1.0000 0.01440  0.12380  0.83070  Biso   1.000  C
  C5       1.0000 0.51440  0.12380  0.66930  Biso   1.000  C
  C6       1.0000 0.01440  0.37620  0.33070  Biso   1.000  C
  C7       1.0000 0.48560  0.62380  0.83070  Biso   1.000  C
  C8       1.0000 0.98560  0.87620  0.16930  Biso   1.000  C
  C9       1.0000 0.42300  0.01570  0.36140  Biso   1.000  C
  C10      1.0000 0.92300  0.48430  0.63860  Biso   1.000  C
  C11      1.0000 0.57700  0.51570  0.13860  Biso   1.000  C
  C12      1.0000 0.07700  0.98430  0.86140  Biso   1.000  C
  C13      1.0000 0.57700  0.98430  0.63860  Biso   1.000  C
  C14      1.0000 0.07700  0.51570  0.36140  Biso   1.000  C
  C15      1.0000 0.42300  0.48430  0.86140  Biso   1.000  C
  C16      1.0000 0.92300  0.01570  0.13860  Biso   1.000  C
  C17      1.0000 0.43450  0.93930  0.40010  Biso   1.000  C
  C18      1.0000 0.93450  0.56070  0.59990  Biso   1.000  C
  C19      1.0000 0.56550  0.43930  0.09990  Biso   1.000  C
  C20      1.0000 0.06550  0.06070  0.90010  Biso   1.000  C
  C21      1.0000 0.56550  0.06070  0.59990  Biso   1.000  C
  C22      1.0000 0.06550  0.43930  0.40010  Biso   1.000  C
  C23      1.0000 0.43450  0.56070  0.90010  Biso   1.000  C
  C24      1.0000 0.93450  0.93930  0.09990  Biso   1.000  C
  C25      1.0000 0.50930  0.72320  0.40770  Biso   1.000  C
  C26      1.0000 0.00930  0.77680  0.59230  Biso   1.000  C
  C27      1.0000 0.49070  0.22320  0.09230  Biso   1.000  C
  C28      1.0000 0.99070  0.27680  0.90770  Biso   1.000  C
  C29      1.0000 0.49070  0.27680  0.59230  Biso   1.000  C
  C30      1.0000 0.99070  0.22320  0.40770  Biso   1.000  C
  C31      1.0000 0.50930  0.77680  0.90770  Biso   1.000  C
  C32      1.0000 0.00930  0.72320  0.09230  Biso   1.000  C
  C33      1.0000 0.57860  0.58360  0.37740  Biso   1.000  C
  C34      1.0000 0.07860  0.91640  0.62260  Biso   1.000  C
  C35      1.0000 0.42140  0.08360  0.12260  Biso   1.000  C
  C36      1.0000 0.92140  0.41640  0.87740  Biso   1.000  C
  C37      1.0000 0.42140  0.41640  0.62260  Biso   1.000  C
  C38      1.0000 0.92140  0.08360  0.37740  Biso   1.000  C
  C39      1.0000 0.57860  0.91640  0.87740  Biso   1.000  C
  C40      1.0000 0.07860  0.58360  0.12260  Biso   1.000  C
  C41      1.0000 0.56390  0.66130  0.33870  Biso   1.000  C
  C42      1.0000 0.06390  0.83870  0.66130  Biso   1.000  C
  C43      1.0000 0.43610  0.16130  0.16130  Biso   1.000  C
  C44      1.0000 0.93610  0.33870  0.83870  Biso   1.000  C
  C45      1.0000 0.43610  0.33870  0.66130  Biso   1.000  C
  C46      1.0000 0.93610  0.16130  0.33870  Biso   1.000  C
  C47      1.0000 0.56390  0.83870  0.83870  Biso   1.000  C
  C48      1.0000 0.06390  0.66130  0.16130  Biso   1.000  C
  C49      1.0000 0.51320  0.62720  0.44840  Biso   1.000  C
  C50      1.0000 0.01320  0.87280  0.55160  Biso   1.000  C
  C51      1.0000 0.48680  0.12720  0.05160  Biso   1.000  C
  C52      1.0000 0.98680  0.37280  0.94840  Biso   1.000  C
  C53      1.0000 0.48680  0.37280  0.55160  Biso   1.000  C
  C54      1.0000 0.98680  0.12720  0.44840  Biso   1.000  C
  C55      1.0000 0.51320  0.87280  0.94840  Biso   1.000  C
  C56      1.0000 0.01320  0.62720  0.05160  Biso   1.000  C
  O1       1.0000 0.58350  0.43490  0.45532  Biso   1.000  O
  O2       1.0000 0.08350  0.06510  0.54468  Biso   1.000  O
  O3       1.0000 0.41650  0.93490  0.04468  Biso   1.000  O
  O4       1.0000 0.91650  0.56510  0.95532  Biso   1.000  O
  O5       1.0000 0.41650  0.56510  0.54468  Biso   1.000  O
  O6       1.0000 0.91650  0.93490  0.45532  Biso   1.000  O
  O7       1.0000 0.58350  0.06510  0.95532  Biso   1.000  O
  O8       1.0000 0.08350  0.43490  0.04468  Biso   1.000  O
  O9       1.0000 0.43380  0.76060  0.47448  Biso   1.000  O
  O10      1.0000 0.93380  0.73940  0.52552  Biso   1.000  O
  O11      1.0000 0.56620  0.26060  0.02552  Biso   1.000  O
  O12      1.0000 0.06620  0.23940  0.97448  Biso   1.000  O
  O13      1.0000 0.56620  0.23940  0.52552  Biso   1.000  O
  O14      1.0000 0.06620  0.26060  0.47448  Biso   1.000  O
  O15      1.0000 0.43380  0.73940  0.97448  Biso   1.000  O
  O16      1.0000 0.93380  0.76060  0.02552  Biso   1.000  O
  H1       1.0000 0.37010  0.16410  0.35590  Biso   1.000  H
  H2       1.0000 0.87010  0.33590  0.64410  Biso   1.000  H
  H3       1.0000 0.62990  0.66410  0.14410  Biso   1.000  H
  H4       1.0000 0.12990  0.83590  0.85590  Biso   1.000  H
  H5       1.0000 0.62990  0.83590  0.64410  Biso   1.000  H
  H6       1.0000 0.12990  0.66410  0.35590  Biso   1.000  H
  H7       1.0000 0.37010  0.33590  0.85590  Biso   1.000  H
  H8       1.0000 0.87010  0.16410  0.14410  Biso   1.000  H
  H9       1.0000 0.39300  0.03200  0.42100  Biso   1.000  H
  H10      1.0000 0.89300  0.46800  0.57900  Biso   1.000  H
  H11      1.0000 0.60700  0.53200  0.07900  Biso   1.000  H
  H12      1.0000 0.10700  0.96800  0.92100  Biso   1.000  H
  H13      1.0000 0.60700  0.96800  0.57900  Biso   1.000  H
  H14      1.0000 0.10700  0.53200  0.42100  Biso   1.000  H
  H15      1.0000 0.39300  0.46800  0.92100  Biso   1.000  H
  H16      1.0000 0.89300  0.03200  0.07900  Biso   1.000  H
  H17      1.0000 0.63630  0.43780  0.38310  Biso   1.000  H
  H18      1.0000 0.13630  0.06220  0.61690  Biso   1.000  H
  H19      1.0000 0.36370  0.93780  0.11690  Biso   1.000  H
  H20      1.0000 0.86370  0.56220  0.88310  Biso   1.000  H
  H21      1.0000 0.36370  0.56220  0.61690  Biso   1.000  H
  H22      1.0000 0.86370  0.93780  0.38310  Biso   1.000  H
  H23      1.0000 0.63630  0.06220  0.88310  Biso   1.000  H
  H24      1.0000 0.13630  0.43780  0.11690  Biso   1.000  H
  H25      1.0000 0.61180  0.56790  0.31840  Biso   1.000  H
  H26      1.0000 0.11180  0.93210  0.68160  Biso   1.000  H
  H27      1.0000 0.38820  0.06790  0.18160  Biso   1.000  H
  H28      1.0000 0.88820  0.43210  0.81840  Biso   1.000  H
  H29      1.0000 0.38820  0.43210  0.68160  Biso   1.000  H
  H30      1.0000 0.88820  0.06790  0.31840  Biso   1.000  H
  H31      1.0000 0.61180  0.93210  0.81840  Biso   1.000  H
  H32      1.0000 0.11180  0.56790  0.18160  Biso   1.000  H
  H33      1.0000 0.42910  0.69290  0.49680  Biso   1.000  H
  H34      1.0000 0.92910  0.80710  0.50320  Biso   1.000  H
  H35      1.0000 0.57090  0.19290  0.00320  Biso   1.000  H
  H36      1.0000 0.07090  0.30710  0.99680  Biso   1.000  H
  H37      1.0000 0.57090  0.30710  0.50320  Biso   1.000  H
  H38      1.0000 0.07090  0.19290  0.49680  Biso   1.000  H
  H39      1.0000 0.42910  0.80710  0.99680  Biso   1.000  H
  H40      1.0000 0.92910  0.69290  0.00320  Biso   1.000  H
