data_image0
_cell_length_a       6.8406
_cell_length_b       5.7192
_cell_length_c       34.028
_cell_angle_alpha    90
_cell_angle_beta     90
_cell_angle_gamma    90

_symmetry_space_group_name_H-M    "P 1"
_symmetry_int_tables_number       1

loop_
  _symmetry_equiv_pos_as_xyz
  'x, y, z'

loop_
  _atom_site_label
  _atom_site_occupancy
  _atom_site_fract_x
  _atom_site_fract_y
  _atom_site_fract_z
  _atom_site_thermal_displace_type
  _atom_site_B_iso_or_equiv
  _atom_site_type_symbol
  Cu1      1.0000 0.31545  0.16819  0.73827  Biso   1.000  Cu
  Cu2      1.0000 0.81545  0.33181  0.26173  Biso   1.000  Cu
  Cu3      1.0000 0.68455  0.66819  0.76173  Biso   1.000  Cu
  Cu4      1.0000 0.18455  0.83181  0.23827  Biso   1.000  Cu
  Cu5      1.0000 0.68455  0.83181  0.26173  Biso   1.000  Cu
  Cu6      1.0000 0.18455  0.66819  0.73827  Biso   1.000  Cu
  Cu7      1.0000 0.31545  0.33181  0.23827  Biso   1.000  Cu
  Cu8      1.0000 0.81545  0.16819  0.76173  Biso   1.000  Cu
  S1       1.0000 0.46640  0.50792  0.71821  Biso   1.000  S
  S2       1.0000 0.96640  0.99208  0.28179  Biso   1.000  S
  S3       1.0000 0.53360  0.00792  0.78179  Biso   1.000  S
  S4       1.0000 0.03360  0.49208  0.21821  Biso   1.000  S
  S5       1.0000 0.53360  0.49208  0.28179  Biso   1.000  S
  S6       1.0000 0.03360  0.00792  0.71821  Biso   1.000  S
  S7       1.0000 0.46640  0.99208  0.21821  Biso   1.000  S
  S8       1.0000 0.96640  0.50792  0.78179  Biso   1.000  S
  O1       1.0000 0.42920  0.73220  0.52505  Biso   1.000  O
  O2       1.0000 0.92920  0.76780  0.47495  Biso   1.000  O
  O3       1.0000 0.57080  0.23220  0.97495  Biso   1.000  O
  O4       1.0000 0.07080  0.26780  0.02505  Biso   1.000  O
  O5       1.0000 0.57080  0.26780  0.47495  Biso   1.000  O
  O6       1.0000 0.07080  0.23220  0.52505  Biso   1.000  O
  O7       1.0000 0.42920  0.76780  0.02505  Biso   1.000  O
  O8       1.0000 0.92920  0.73220  0.97495  Biso   1.000  O
  H1       1.0000 0.42406  0.80093  0.50393  Biso   1.000  H
  H2       1.0000 0.92406  0.69907  0.49607  Biso   1.000  H
  H3       1.0000 0.57594  0.30093  0.99607  Biso   1.000  H
  H4       1.0000 0.07594  0.19907  0.00393  Biso   1.000  H
  H5       1.0000 0.57594  0.19907  0.49607  Biso   1.000  H
  H6       1.0000 0.07594  0.30093  0.50393  Biso   1.000  H
  H7       1.0000 0.42406  0.69907  0.00393  Biso   1.000  H
  H8       1.0000 0.92406  0.80093  0.99607  Biso   1.000  H
  O9       1.0000 0.58620  0.05760  0.54387  Biso   1.000  O
  O10      1.0000 0.08620  0.44240  0.45613  Biso   1.000  O
  O11      1.0000 0.41380  0.55760  0.95613  Biso   1.000  O
  O12      1.0000 0.91380  0.94240  0.04387  Biso   1.000  O
  O13      1.0000 0.41380  0.94240  0.45613  Biso   1.000  O
  O14      1.0000 0.91380  0.55760  0.54387  Biso   1.000  O
  O15      1.0000 0.58620  0.44240  0.04387  Biso   1.000  O
  O16      1.0000 0.08620  0.05760  0.95613  Biso   1.000  O
  C1       1.0000 0.51570  0.86610  0.55122  Biso   1.000  C
  C2       1.0000 0.01570  0.63390  0.44878  Biso   1.000  C
  C3       1.0000 0.48430  0.36610  0.94878  Biso   1.000  C
  C4       1.0000 0.98430  0.13390  0.05122  Biso   1.000  C
  C5       1.0000 0.48430  0.13390  0.44878  Biso   1.000  C
  C6       1.0000 0.98430  0.36610  0.55122  Biso   1.000  C
  C7       1.0000 0.51570  0.63390  0.05122  Biso   1.000  C
  C8       1.0000 0.01570  0.86610  0.94878  Biso   1.000  C
  C9       1.0000 0.51130  0.76880  0.59176  Biso   1.000  C
  C10      1.0000 0.01130  0.73120  0.40824  Biso   1.000  C
  C11      1.0000 0.48870  0.26880  0.90824  Biso   1.000  C
  C12      1.0000 0.98870  0.23120  0.09176  Biso   1.000  C
  C13      1.0000 0.48870  0.23120  0.40824  Biso   1.000  C
  C14      1.0000 0.98870  0.26880  0.59176  Biso   1.000  C
  C15      1.0000 0.51130  0.73120  0.09176  Biso   1.000  C
  C16      1.0000 0.01130  0.76880  0.90824  Biso   1.000  C
  C17      1.0000 0.43420  0.54810  0.59951  Biso   1.000  C
  C18      1.0000 0.93420  0.95190  0.40049  Biso   1.000  C
  C19      1.0000 0.56580  0.04810  0.90049  Biso   1.000  C
  C20      1.0000 0.06580  0.45190  0.09951  Biso   1.000  C
  C21      1.0000 0.56580  0.45190  0.40049  Biso   1.000  C
  C22      1.0000 0.06580  0.04810  0.59951  Biso   1.000  C
  C23      1.0000 0.43420  0.95190  0.09951  Biso   1.000  C
  C24      1.0000 0.93420  0.54810  0.90049  Biso   1.000  C
  H9       1.0000 0.39163  0.45419  0.57890  Biso   1.000  H
  H10      1.0000 0.89163  0.04581  0.42110  Biso   1.000  H
  H11      1.0000 0.60837  0.95419  0.92110  Biso   1.000  H
  H12      1.0000 0.10837  0.54581  0.07890  Biso   1.000  H
  H13      1.0000 0.60837  0.54581  0.42110  Biso   1.000  H
  H14      1.0000 0.10837  0.95419  0.57890  Biso   1.000  H
  H15      1.0000 0.39163  0.04581  0.07890  Biso   1.000  H
  H16      1.0000 0.89163  0.45419  0.92110  Biso   1.000  H
  C25      1.0000 0.42060  0.46790  0.63798  Biso   1.000  C
  C26      1.0000 0.92060  0.03210  0.36202  Biso   1.000  C
  C27      1.0000 0.57940  0.96790  0.86202  Biso   1.000  C
  C28      1.0000 0.07940  0.53210  0.13798  Biso   1.000  C
  C29      1.0000 0.57940  0.53210  0.36202  Biso   1.000  C
  C30      1.0000 0.07940  0.96790  0.63798  Biso   1.000  C
  C31      1.0000 0.42060  0.03210  0.13798  Biso   1.000  C
  C32      1.0000 0.92060  0.46790  0.86202  Biso   1.000  C
  H17      1.0000 0.36808  0.32118  0.64321  Biso   1.000  H
  H18      1.0000 0.86808  0.17882  0.35679  Biso   1.000  H
  H19      1.0000 0.63192  0.82118  0.85679  Biso   1.000  H
  H20      1.0000 0.13192  0.67882  0.14321  Biso   1.000  H
  H21      1.0000 0.63192  0.67882  0.35679  Biso   1.000  H
  H22      1.0000 0.13192  0.82118  0.64321  Biso   1.000  H
  H23      1.0000 0.36808  0.17882  0.14321  Biso   1.000  H
  H24      1.0000 0.86808  0.32118  0.85679  Biso   1.000  H
  C33      1.0000 0.48620  0.60880  0.66859  Biso   1.000  C
  C34      1.0000 0.98620  0.89120  0.33141  Biso   1.000  C
  C35      1.0000 0.51380  0.10880  0.83141  Biso   1.000  C
  C36      1.0000 0.01380  0.39120  0.16859  Biso   1.000  C
  C37      1.0000 0.51380  0.39120  0.33141  Biso   1.000  C
  C38      1.0000 0.01380  0.10880  0.66859  Biso   1.000  C
  C39      1.0000 0.48620  0.89120  0.16859  Biso   1.000  C
  C40      1.0000 0.98620  0.60880  0.83141  Biso   1.000  C
  C41      1.0000 0.56810  0.82650  0.66096  Biso   1.000  C
  C42      1.0000 0.06810  0.67350  0.33904  Biso   1.000  C
  C43      1.0000 0.43190  0.32650  0.83904  Biso   1.000  C
  C44      1.0000 0.93190  0.17350  0.16096  Biso   1.000  C
  C45      1.0000 0.43190  0.17350  0.33904  Biso   1.000  C
  C46      1.0000 0.93190  0.32650  0.66096  Biso   1.000  C
  C47      1.0000 0.56810  0.67350  0.16096  Biso   1.000  C
  C48      1.0000 0.06810  0.82650  0.83904  Biso   1.000  C
  H25      1.0000 0.61427  0.91878  0.68147  Biso   1.000  H
  H26      1.0000 0.11427  0.58122  0.31853  Biso   1.000  H
  H27      1.0000 0.38573  0.41878  0.81853  Biso   1.000  H
  H28      1.0000 0.88573  0.08122  0.18147  Biso   1.000  H
  H29      1.0000 0.38573  0.08122  0.31853  Biso   1.000  H
  H30      1.0000 0.88573  0.41878  0.68147  Biso   1.000  H
  H31      1.0000 0.61427  0.58122  0.18147  Biso   1.000  H
  H32      1.0000 0.11427  0.91878  0.81853  Biso   1.000  H
  C49      1.0000 0.58040  0.90460  0.62258  Biso   1.000  C
  C50      1.0000 0.08040  0.59540  0.37742  Biso   1.000  C
  C51      1.0000 0.41960  0.40460  0.87742  Biso   1.000  C
  C52      1.0000 0.91960  0.09540  0.12258  Biso   1.000  C
  C53      1.0000 0.41960  0.09540  0.37742  Biso   1.000  C
  C54      1.0000 0.91960  0.40460  0.62258  Biso   1.000  C
  C55      1.0000 0.58040  0.59540  0.12258  Biso   1.000  C
  C56      1.0000 0.08040  0.90460  0.87742  Biso   1.000  C
  H33      1.0000 0.63555  0.04997  0.61736  Biso   1.000  H
  H34      1.0000 0.13555  0.45003  0.38264  Biso   1.000  H
  H35      1.0000 0.36445  0.54997  0.88264  Biso   1.000  H
  H36      1.0000 0.86445  0.95003  0.11736  Biso   1.000  H
  H37      1.0000 0.36445  0.95003  0.38264  Biso   1.000  H
  H38      1.0000 0.86445  0.54997  0.61736  Biso   1.000  H
  H39      1.0000 0.63555  0.45003  0.11736  Biso   1.000  H
  H40      1.0000 0.13555  0.04997  0.88264  Biso   1.000  H
