data_image0
_cell_length_a       7.864
_cell_length_b       14.328
_cell_length_c       6.737
_cell_angle_alpha    90
_cell_angle_beta     100.07
_cell_angle_gamma    90

_symmetry_space_group_name_H-M    "P 1"
_symmetry_int_tables_number       1

loop_
  _symmetry_equiv_pos_as_xyz
  'x, y, z'

loop_
  _atom_site_label
  _atom_site_occupancy
  _atom_site_fract_x
  _atom_site_fract_y
  _atom_site_fract_z
  _atom_site_thermal_displace_type
  _atom_site_B_iso_or_equiv
  _atom_site_type_symbol
  Cu1      1.0000 0.56579  0.91679  0.93504  Biso   1.000  Cu
  Cu2      1.0000 0.43421  0.41679  0.56496  Biso   1.000  Cu
  Cu3      1.0000 0.43421  0.08321  0.06496  Biso   1.000  Cu
  Cu4      1.0000 0.56579  0.58321  0.43504  Biso   1.000  Cu
  S1       1.0000 0.26751  0.95751  0.89166  Biso   1.000  S
  S2       1.0000 0.73249  0.45751  0.60834  Biso   1.000  S
  S3       1.0000 0.73249  0.04249  0.10834  Biso   1.000  S
  S4       1.0000 0.26751  0.54249  0.39166  Biso   1.000  S
  S5       1.0000 0.67109  0.89774  0.62859  Biso   1.000  S
  S6       1.0000 0.32891  0.39774  0.87141  Biso   1.000  S
  S7       1.0000 0.32891  0.10226  0.37141  Biso   1.000  S
  S8       1.0000 0.67109  0.60226  0.12859  Biso   1.000  S
  N1       1.0000 0.29740  0.88010  0.26350  Biso   1.000  N
  N2       1.0000 0.70260  0.38010  0.23650  Biso   1.000  N
  N3       1.0000 0.70260  0.11990  0.73650  Biso   1.000  N
  N4       1.0000 0.29740  0.61990  0.76350  Biso   1.000  N
  H1       1.0000 0.40370  0.89650  0.29730  Biso   1.000  H
  H2       1.0000 0.59630  0.39650  0.20270  Biso   1.000  H
  H3       1.0000 0.59630  0.10350  0.70270  Biso   1.000  H
  H4       1.0000 0.40370  0.60350  0.79730  Biso   1.000  H
  N5       1.0000 0.04070  0.87120  0.08620  Biso   1.000  N
  N6       1.0000 0.95930  0.37120  0.41380  Biso   1.000  N
  N7       1.0000 0.95930  0.12880  0.91380  Biso   1.000  N
  N8       1.0000 0.04070  0.62880  0.58620  Biso   1.000  N
  H5       1.0000 0.96000  0.87400  0.98220  Biso   1.000  H
  H6       1.0000 0.04000  0.37400  0.51780  Biso   1.000  H
  H7       1.0000 0.04000  0.12600  0.01780  Biso   1.000  H
  H8       1.0000 0.96000  0.62600  0.48220  Biso   1.000  H
  N9       1.0000 0.61010  0.70600  0.56890  Biso   1.000  N
  N10      1.0000 0.38990  0.20600  0.93110  Biso   1.000  N
  N11      1.0000 0.38990  0.29400  0.43110  Biso   1.000  N
  N12      1.0000 0.61010  0.79400  0.06890  Biso   1.000  N
  C1       1.0000 0.01880  0.83300  0.28090  Biso   1.000  C
  C2       1.0000 0.98120  0.33300  0.21910  Biso   1.000  C
  C3       1.0000 0.98120  0.16700  0.71910  Biso   1.000  C
  C4       1.0000 0.01880  0.66700  0.78090  Biso   1.000  C
  H9       1.0000 0.96370  0.77230  0.26580  Biso   1.000  H
  H10      1.0000 0.03630  0.27230  0.23420  Biso   1.000  H
  H11      1.0000 0.03630  0.22770  0.73420  Biso   1.000  H
  H12      1.0000 0.96370  0.72770  0.76580  Biso   1.000  H
  H13      1.0000 0.95120  0.87460  0.35010  Biso   1.000  H
  H14      1.0000 0.04880  0.37460  0.14990  Biso   1.000  H
  H15      1.0000 0.04880  0.12540  0.64990  Biso   1.000  H
  H16      1.0000 0.95120  0.62540  0.85010  Biso   1.000  H
  C5       1.0000 0.63600  0.78410  0.59600  Biso   1.000  C
  C6       1.0000 0.36400  0.28410  0.90400  Biso   1.000  C
  C7       1.0000 0.36400  0.21590  0.40400  Biso   1.000  C
  C8       1.0000 0.63600  0.71590  0.09600  Biso   1.000  C
  C9       1.0000 0.20050  0.90080  0.09000  Biso   1.000  C
  C10      1.0000 0.79950  0.40080  0.41000  Biso   1.000  C
  C11      1.0000 0.79950  0.09920  0.91000  Biso   1.000  C
  C12      1.0000 0.20050  0.59920  0.59000  Biso   1.000  C
  C13      1.0000 0.20350  0.82590  0.39190  Biso   1.000  C
  C14      1.0000 0.79650  0.32590  0.10810  Biso   1.000  C
  C15      1.0000 0.79650  0.17410  0.60810  Biso   1.000  C
  C16      1.0000 0.20350  0.67410  0.89190  Biso   1.000  C
  H17      1.0000 0.21580  0.85260  0.52590  Biso   1.000  H
  H18      1.0000 0.78420  0.35260  0.97410  Biso   1.000  H
  H19      1.0000 0.78420  0.14740  0.47410  Biso   1.000  H
  H20      1.0000 0.21580  0.64740  0.02590  Biso   1.000  H
  H21      1.0000 0.24250  0.76160  0.40240  Biso   1.000  H
  H22      1.0000 0.75750  0.26160  0.09760  Biso   1.000  H
  H23      1.0000 0.75750  0.23840  0.59760  Biso   1.000  H
  H24      1.0000 0.24250  0.73840  0.90240  Biso   1.000  H
