data_image0
_cell_length_a       10.0916
_cell_length_b       8.1061
_cell_length_c       8.4207
_cell_angle_alpha    90
_cell_angle_beta     116.581
_cell_angle_gamma    90

_symmetry_space_group_name_H-M    "P 1"
_symmetry_int_tables_number       1

loop_
  _symmetry_equiv_pos_as_xyz
  'x, y, z'

loop_
  _atom_site_label
  _atom_site_occupancy
  _atom_site_fract_x
  _atom_site_fract_y
  _atom_site_fract_z
  _atom_site_thermal_displace_type
  _atom_site_B_iso_or_equiv
  _atom_site_type_symbol
  Cu1      1.0000 0.97069  0.00000  0.63150  Biso   1.000  Cu
  Cu2      1.0000 0.47069  0.50000  0.63150  Biso   1.000  Cu
  N1       1.0000 0.75450  0.00000  0.50560  Biso   1.000  N
  N2       1.0000 0.25450  0.50000  0.50560  Biso   1.000  N
  N3       1.0000 0.34490  0.00000  0.91690  Biso   1.000  N
  N4       1.0000 0.84490  0.50000  0.91690  Biso   1.000  N
  C1       1.0000 0.63450  0.00000  0.40080  Biso   1.000  C
  C2       1.0000 0.13450  0.50000  0.40080  Biso   1.000  C
  C3       1.0000 0.48440  0.00000  0.25510  Biso   1.000  C
  C4       1.0000 0.98440  0.50000  0.25510  Biso   1.000  C
  H1       1.0000 0.43150  0.09690  0.26350  Biso   1.000  H
  H2       1.0000 0.43150  0.90310  0.26350  Biso   1.000  H
  H3       1.0000 0.93150  0.59690  0.26350  Biso   1.000  H
  H4       1.0000 0.93150  0.40310  0.26350  Biso   1.000  H
  C5       1.0000 0.49040  0.00000  0.07380  Biso   1.000  C
  C6       1.0000 0.99040  0.50000  0.07380  Biso   1.000  C
  H5       1.0000 0.54510  0.09650  0.06850  Biso   1.000  H
  H6       1.0000 0.54510  0.90350  0.06850  Biso   1.000  H
  H7       1.0000 0.04510  0.59650  0.06850  Biso   1.000  H
  H8       1.0000 0.04510  0.40350  0.06850  Biso   1.000  H
  C7       1.0000 0.26090  0.15140  0.90310  Biso   1.000  C
  C8       1.0000 0.26090  0.84860  0.90310  Biso   1.000  C
  C9       1.0000 0.76090  0.65140  0.90310  Biso   1.000  C
  C10      1.0000 0.76090  0.34860  0.90310  Biso   1.000  C
  H9       1.0000 0.32870  0.24410  0.94380  Biso   1.000  H
  H10      1.0000 0.32870  0.75590  0.94380  Biso   1.000  H
  H11      1.0000 0.82870  0.74410  0.94380  Biso   1.000  H
  H12      1.0000 0.82870  0.25590  0.94380  Biso   1.000  H
  H13      1.0000 0.21270  0.14250  0.97980  Biso   1.000  H
  H14      1.0000 0.21270  0.85750  0.97980  Biso   1.000  H
  H15      1.0000 0.71270  0.64250  0.97980  Biso   1.000  H
  H16      1.0000 0.71270  0.35750  0.97980  Biso   1.000  H
  C11      1.0000 0.14590  0.18330  0.71590  Biso   1.000  C
  C12      1.0000 0.14590  0.81670  0.71590  Biso   1.000  C
  C13      1.0000 0.64590  0.68330  0.71590  Biso   1.000  C
  C14      1.0000 0.64590  0.31670  0.71590  Biso   1.000  C
  H17      1.0000 0.16750  0.15040  0.62430  Biso   1.000  H
  H18      1.0000 0.16750  0.84960  0.62430  Biso   1.000  H
  H19      1.0000 0.66750  0.65040  0.62430  Biso   1.000  H
  H20      1.0000 0.66750  0.34960  0.62430  Biso   1.000  H
  C15      1.0000 0.01140  0.25730  0.67030  Biso   1.000  C
  C16      1.0000 0.01140  0.74270  0.67030  Biso   1.000  C
  C17      1.0000 0.51140  0.75730  0.67030  Biso   1.000  C
  C18      1.0000 0.51140  0.24270  0.67030  Biso   1.000  C
  H21      1.0000 0.98590  0.29190  0.75840  Biso   1.000  H
  H22      1.0000 0.98590  0.70810  0.75840  Biso   1.000  H
  H23      1.0000 0.48590  0.79190  0.75840  Biso   1.000  H
  H24      1.0000 0.48590  0.20810  0.75840  Biso   1.000  H
  H25      1.0000 0.94570  0.27300  0.55130  Biso   1.000  H
  H26      1.0000 0.94570  0.72700  0.55130  Biso   1.000  H
  H27      1.0000 0.44570  0.77300  0.55130  Biso   1.000  H
  H28      1.0000 0.44570  0.22700  0.55130  Biso   1.000  H
  Cl1      1.0000 0.06540  0.00000  0.23270  Biso   1.000  Cl
  Cl2      1.0000 0.56540  0.50000  0.23270  Biso   1.000  Cl
  O1       1.0000 0.99230  0.00000  0.04000  Biso   1.000  O
  O2       1.0000 0.49230  0.50000  0.04000  Biso   1.000  O
  O3       1.0000 0.15800  0.85790  0.29780  Biso   1.000  O
  O4       1.0000 0.15800  0.14210  0.29780  Biso   1.000  O
  O5       1.0000 0.65800  0.35790  0.29780  Biso   1.000  O
  O6       1.0000 0.65800  0.64210  0.29780  Biso   1.000  O
  O7       1.0000 0.95460  0.00000  0.29490  Biso   1.000  O
  O8       1.0000 0.45460  0.50000  0.29490  Biso   1.000  O
