data_image0
_cell_length_a       8.97
_cell_length_b       14.3951
_cell_length_c       10.0156
_cell_angle_alpha    90
_cell_angle_beta     94.056
_cell_angle_gamma    90

_symmetry_space_group_name_H-M    "P 1"
_symmetry_int_tables_number       1

loop_
  _symmetry_equiv_pos_as_xyz
  'x, y, z'

loop_
  _atom_site_label
  _atom_site_occupancy
  _atom_site_fract_x
  _atom_site_fract_y
  _atom_site_fract_z
  _atom_site_thermal_displace_type
  _atom_site_B_iso_or_equiv
  _atom_site_type_symbol
  Cu1      1.0000 0.61802  0.63760  0.69152  Biso   1.000  Cu
  Cu2      1.0000 0.88198  0.13760  0.80848  Biso   1.000  Cu
  Cu3      1.0000 0.38198  0.36240  0.30848  Biso   1.000  Cu
  Cu4      1.0000 0.11802  0.86240  0.19152  Biso   1.000  Cu
  Cu5      1.0000 0.56025  0.79713  0.51388  Biso   1.000  Cu
  Cu6      1.0000 0.93975  0.29713  0.98612  Biso   1.000  Cu
  Cu7      1.0000 0.43975  0.20287  0.48612  Biso   1.000  Cu
  Cu8      1.0000 0.06025  0.70287  0.01388  Biso   1.000  Cu
  Cu9      1.0000 0.42309  0.97880  0.36260  Biso   1.000  Cu
  Cu10     1.0000 0.07691  0.47880  0.13740  Biso   1.000  Cu
  Cu11     1.0000 0.57691  0.02120  0.63740  Biso   1.000  Cu
  Cu12     1.0000 0.92309  0.52120  0.86260  Biso   1.000  Cu
  Cl1      1.0000 0.83069  0.68517  0.84994  Biso   1.000  Cl
  Cl2      1.0000 0.66931  0.18517  0.65006  Biso   1.000  Cl
  Cl3      1.0000 0.16931  0.31483  0.15006  Biso   1.000  Cl
  Cl4      1.0000 0.33069  0.81483  0.34994  Biso   1.000  Cl
  Cl5      1.0000 0.69950  0.66141  0.48154  Biso   1.000  Cl
  Cl6      1.0000 0.80050  0.16141  0.01846  Biso   1.000  Cl
  Cl7      1.0000 0.30050  0.33859  0.51846  Biso   1.000  Cl
  Cl8      1.0000 0.19950  0.83859  0.98154  Biso   1.000  Cl
  Cl9      1.0000 0.33240  0.06218  0.54280  Biso   1.000  Cl
  Cl10     1.0000 0.16760  0.56218  0.95720  Biso   1.000  Cl
  Cl11     1.0000 0.66760  0.93782  0.45720  Biso   1.000  Cl
  Cl12     1.0000 0.83240  0.43782  0.04280  Biso   1.000  Cl
  Cl13     1.0000 0.44387  0.76541  0.70894  Biso   1.000  Cl
  Cl14     1.0000 0.05613  0.26541  0.79106  Biso   1.000  Cl
  Cl15     1.0000 0.55613  0.23459  0.29106  Biso   1.000  Cl
  Cl16     1.0000 0.94387  0.73459  0.20894  Biso   1.000  Cl
  N1       1.0000 0.53340  0.52470  0.76180  Biso   1.000  N
  N2       1.0000 0.96660  0.02470  0.73820  Biso   1.000  N
  N3       1.0000 0.46660  0.47530  0.23820  Biso   1.000  N
  N4       1.0000 0.03340  0.97530  0.26180  Biso   1.000  N
  N5       1.0000 0.42860  0.23790  0.98850  Biso   1.000  N
  N6       1.0000 0.07140  0.73790  0.51150  Biso   1.000  N
  N7       1.0000 0.57140  0.76210  0.01150  Biso   1.000  N
  N8       1.0000 0.92860  0.26210  0.48850  Biso   1.000  N
  H1       1.0000 0.34130  0.25860  0.01630  Biso   1.000  H
  H2       1.0000 0.15870  0.75860  0.48370  Biso   1.000  H
  H3       1.0000 0.65870  0.74140  0.98370  Biso   1.000  H
  H4       1.0000 0.84130  0.24140  0.51630  Biso   1.000  H
  H5       1.0000 0.48250  0.21540  0.06050  Biso   1.000  H
  H6       1.0000 0.01750  0.71540  0.43950  Biso   1.000  H
  H7       1.0000 0.51750  0.78460  0.93950  Biso   1.000  H
  H8       1.0000 0.98250  0.28460  0.56050  Biso   1.000  H
  N9       1.0000 0.38780  0.02770  0.18430  Biso   1.000  N
  N10      1.0000 0.11220  0.52770  0.31570  Biso   1.000  N
  N11      1.0000 0.61220  0.97230  0.81570  Biso   1.000  N
  N12      1.0000 0.88780  0.47230  0.68430  Biso   1.000  N
  C1       1.0000 0.47840  0.46180  0.80690  Biso   1.000  C
  C2       1.0000 0.02160  0.96180  0.69310  Biso   1.000  C
  C3       1.0000 0.52160  0.53820  0.19310  Biso   1.000  C
  C4       1.0000 0.97840  0.03820  0.30690  Biso   1.000  C
  C5       1.0000 0.40390  0.37990  0.85550  Biso   1.000  C
  C6       1.0000 0.09610  0.87990  0.64450  Biso   1.000  C
  C7       1.0000 0.59610  0.62010  0.14450  Biso   1.000  C
  C8       1.0000 0.90390  0.12010  0.35550  Biso   1.000  C
  H9       1.0000 0.35820  0.34570  0.77980  Biso   1.000  H
  H10      1.0000 0.14180  0.84570  0.72020  Biso   1.000  H
  H11      1.0000 0.64180  0.65430  0.22020  Biso   1.000  H
  H12      1.0000 0.85820  0.15430  0.27980  Biso   1.000  H
  H13      1.0000 0.32500  0.39930  0.91080  Biso   1.000  H
  H14      1.0000 0.17500  0.89930  0.58920  Biso   1.000  H
  H15      1.0000 0.67500  0.60070  0.08920  Biso   1.000  H
  H16      1.0000 0.82500  0.10070  0.41080  Biso   1.000  H
  C9       1.0000 0.51000  0.31770  0.93510  Biso   1.000  C
  C10      1.0000 0.99000  0.81770  0.56490  Biso   1.000  C
  C11      1.0000 0.49000  0.68230  0.06490  Biso   1.000  C
  C12      1.0000 0.01000  0.18230  0.43510  Biso   1.000  C
  H17      1.0000 0.58590  0.29520  0.87870  Biso   1.000  H
  H18      1.0000 0.91410  0.79520  0.62130  Biso   1.000  H
  H19      1.0000 0.41410  0.70480  0.12130  Biso   1.000  H
  H20      1.0000 0.08590  0.20480  0.37870  Biso   1.000  H
  H21      1.0000 0.55940  0.35230  0.00860  Biso   1.000  H
  H22      1.0000 0.94060  0.85230  0.49140  Biso   1.000  H
  H23      1.0000 0.44060  0.64770  0.99140  Biso   1.000  H
  H24      1.0000 0.05940  0.14770  0.50860  Biso   1.000  H
  C13      1.0000 0.39670  0.16050  0.89240  Biso   1.000  C
  C14      1.0000 0.10330  0.66050  0.60760  Biso   1.000  C
  C15      1.0000 0.60330  0.83950  0.10760  Biso   1.000  C
  C16      1.0000 0.89670  0.33950  0.39240  Biso   1.000  C
  H25      1.0000 0.48970  0.13040  0.87350  Biso   1.000  H
  H26      1.0000 0.01030  0.63040  0.62650  Biso   1.000  H
  H27      1.0000 0.51030  0.86960  0.12650  Biso   1.000  H
  H28      1.0000 0.98970  0.36960  0.37350  Biso   1.000  H
  H29      1.0000 0.35130  0.18510  0.80900  Biso   1.000  H
  H30      1.0000 0.14870  0.68510  0.69100  Biso   1.000  H
  H31      1.0000 0.64870  0.81490  0.19100  Biso   1.000  H
  H32      1.0000 0.85130  0.31490  0.30900  Biso   1.000  H
  C17      1.0000 0.29170  0.08900  0.94890  Biso   1.000  C
  C18      1.0000 0.20830  0.58900  0.55110  Biso   1.000  C
  C19      1.0000 0.70830  0.91100  0.05110  Biso   1.000  C
  C20      1.0000 0.79170  0.41100  0.44890  Biso   1.000  C
  H33      1.0000 0.19420  0.11730  0.95460  Biso   1.000  H
  H34      1.0000 0.30580  0.61730  0.54540  Biso   1.000  H
  H35      1.0000 0.80580  0.88270  0.04540  Biso   1.000  H
  H36      1.0000 0.69420  0.38270  0.45460  Biso   1.000  H
  H37      1.0000 0.28000  0.03730  0.88690  Biso   1.000  H
  H38      1.0000 0.22000  0.53730  0.61310  Biso   1.000  H
  H39      1.0000 0.72000  0.96270  0.11310  Biso   1.000  H
  H40      1.0000 0.78000  0.46270  0.38690  Biso   1.000  H
  C21      1.0000 0.34280  0.05310  0.08100  Biso   1.000  C
  C22      1.0000 0.15720  0.55310  0.41900  Biso   1.000  C
  C23      1.0000 0.65720  0.94690  0.91900  Biso   1.000  C
  C24      1.0000 0.84280  0.44690  0.58100  Biso   1.000  C
