data_image0
_cell_length_a       7.308
_cell_length_b       16.7452
_cell_length_c       13.0857
_cell_angle_alpha    90
_cell_angle_beta     91.875
_cell_angle_gamma    90

_symmetry_space_group_name_H-M    "P 1"
_symmetry_int_tables_number       1

loop_
  _symmetry_equiv_pos_as_xyz
  'x, y, z'

loop_
  _atom_site_label
  _atom_site_occupancy
  _atom_site_fract_x
  _atom_site_fract_y
  _atom_site_fract_z
  _atom_site_thermal_displace_type
  _atom_site_B_iso_or_equiv
  _atom_site_type_symbol
  I1       1.0000 0.22988  0.47899  0.42875  Biso   1.000  I
  I2       1.0000 0.77012  0.97899  0.07125  Biso   1.000  I
  I3       1.0000 0.77012  0.52101  0.57125  Biso   1.000  I
  I4       1.0000 0.22988  0.02101  0.92875  Biso   1.000  I
  Br1      1.0000 0.19070  0.07457  0.61710  Biso   1.000  Br
  Br2      1.0000 0.80930  0.57457  0.88290  Biso   1.000  Br
  Br3      1.0000 0.80930  0.92543  0.38290  Biso   1.000  Br
  Br4      1.0000 0.19070  0.42543  0.11710  Biso   1.000  Br
  Cu1      1.0000 0.41250  0.54447  0.58770  Biso   1.000  Cu
  Cu2      1.0000 0.58750  0.04447  0.91230  Biso   1.000  Cu
  Cu3      1.0000 0.58750  0.45553  0.41230  Biso   1.000  Cu
  Cu4      1.0000 0.41250  0.95553  0.08770  Biso   1.000  Cu
  N1       1.0000 0.37190  0.67090  0.57740  Biso   1.000  N
  N2       1.0000 0.62810  0.17090  0.92260  Biso   1.000  N
  N3       1.0000 0.62810  0.32910  0.42260  Biso   1.000  N
  N4       1.0000 0.37190  0.82910  0.07740  Biso   1.000  N
  C1       1.0000 0.49800  0.71340  0.64820  Biso   1.000  C
  C2       1.0000 0.50200  0.21340  0.85180  Biso   1.000  C
  C3       1.0000 0.50200  0.28660  0.35180  Biso   1.000  C
  C4       1.0000 0.49800  0.78660  0.14820  Biso   1.000  C
  H1       1.0000 0.62310  0.70290  0.62970  Biso   1.000  H
  H2       1.0000 0.37690  0.20290  0.87030  Biso   1.000  H
  H3       1.0000 0.37690  0.29710  0.37030  Biso   1.000  H
  H4       1.0000 0.62310  0.79710  0.12970  Biso   1.000  H
  H5       1.0000 0.48270  0.69350  0.71710  Biso   1.000  H
  H6       1.0000 0.51730  0.19350  0.78290  Biso   1.000  H
  H7       1.0000 0.51730  0.30650  0.28290  Biso   1.000  H
  H8       1.0000 0.48270  0.80650  0.21710  Biso   1.000  H
  I5       1.0000 0.29550  0.51103  0.76988  Biso   1.000  I
  I6       1.0000 0.70450  0.01103  0.73012  Biso   1.000  I
  I7       1.0000 0.70450  0.48897  0.23012  Biso   1.000  I
  I8       1.0000 0.29550  0.98897  0.26988  Biso   1.000  I
  Cu5      1.0000 0.16903  0.43093  0.61521  Biso   1.000  Cu
  Cu6      1.0000 0.83097  0.93093  0.88479  Biso   1.000  Cu
  Cu7      1.0000 0.83097  0.56907  0.38479  Biso   1.000  Cu
  Cu8      1.0000 0.16903  0.06907  0.11521  Biso   1.000  Cu
  N5       1.0000 0.32230  0.82270  0.56430  Biso   1.000  N
  N6       1.0000 0.67770  0.32270  0.93570  Biso   1.000  N
  N7       1.0000 0.67770  0.17730  0.43570  Biso   1.000  N
  N8       1.0000 0.32230  0.67730  0.06430  Biso   1.000  N
  C5       1.0000 0.46360  0.80350  0.64620  Biso   1.000  C
  C6       1.0000 0.53640  0.30350  0.85380  Biso   1.000  C
  C7       1.0000 0.53640  0.19650  0.35380  Biso   1.000  C
  C8       1.0000 0.46360  0.69650  0.14620  Biso   1.000  C
  H9       1.0000 0.42130  0.82100  0.71210  Biso   1.000  H
  H10      1.0000 0.57870  0.32100  0.78790  Biso   1.000  H
  H11      1.0000 0.57870  0.17900  0.28790  Biso   1.000  H
  H12      1.0000 0.42130  0.67900  0.21210  Biso   1.000  H
  H13      1.0000 0.57660  0.83150  0.63280  Biso   1.000  H
  H14      1.0000 0.42340  0.33150  0.86720  Biso   1.000  H
  H15      1.0000 0.42340  0.16850  0.36720  Biso   1.000  H
  H16      1.0000 0.57660  0.66850  0.13280  Biso   1.000  H
  I9       1.0000 0.11397  0.28609  0.65999  Biso   1.000  I
  I10      1.0000 0.88603  0.78609  0.84001  Biso   1.000  I
  I11      1.0000 0.88603  0.71391  0.34001  Biso   1.000  I
  I12      1.0000 0.11397  0.21391  0.15999  Biso   1.000  I
  C9       1.0000 0.40340  0.69920  0.47300  Biso   1.000  C
  C10      1.0000 0.59660  0.19920  0.02700  Biso   1.000  C
  C11      1.0000 0.59660  0.30080  0.52700  Biso   1.000  C
  C12      1.0000 0.40340  0.80080  0.97300  Biso   1.000  C
  H17      1.0000 0.31580  0.67410  0.42590  Biso   1.000  H
  H18      1.0000 0.68420  0.17410  0.07410  Biso   1.000  H
  H19      1.0000 0.68420  0.32590  0.57410  Biso   1.000  H
  H20      1.0000 0.31580  0.82590  0.92590  Biso   1.000  H
  H21      1.0000 0.52520  0.68350  0.45350  Biso   1.000  H
  H22      1.0000 0.47480  0.18350  0.04650  Biso   1.000  H
  H23      1.0000 0.47480  0.31650  0.54650  Biso   1.000  H
  H24      1.0000 0.52520  0.81650  0.95350  Biso   1.000  H
  C13      1.0000 0.38500  0.78950  0.46450  Biso   1.000  C
  C14      1.0000 0.61500  0.28950  0.03550  Biso   1.000  C
  C15      1.0000 0.61500  0.21050  0.53550  Biso   1.000  C
  C16      1.0000 0.38500  0.71050  0.96450  Biso   1.000  C
  H25      1.0000 0.50210  0.81280  0.44820  Biso   1.000  H
  H26      1.0000 0.49790  0.31280  0.05180  Biso   1.000  H
  H27      1.0000 0.49790  0.18720  0.55180  Biso   1.000  H
  H28      1.0000 0.50210  0.68720  0.94820  Biso   1.000  H
  H29      1.0000 0.29710  0.80290  0.41010  Biso   1.000  H
  H30      1.0000 0.70290  0.30290  0.08990  Biso   1.000  H
  H31      1.0000 0.70290  0.19710  0.58990  Biso   1.000  H
  H32      1.0000 0.29710  0.69710  0.91010  Biso   1.000  H
  C17      1.0000 0.18180  0.69150  0.60150  Biso   1.000  C
  C18      1.0000 0.81820  0.19150  0.89850  Biso   1.000  C
  C19      1.0000 0.81820  0.30850  0.39850  Biso   1.000  C
  C20      1.0000 0.18180  0.80850  0.10150  Biso   1.000  C
  H33      1.0000 0.15880  0.67600  0.67130  Biso   1.000  H
  H34      1.0000 0.84120  0.17600  0.82870  Biso   1.000  H
  H35      1.0000 0.84120  0.32400  0.32870  Biso   1.000  H
  H36      1.0000 0.15880  0.82400  0.17130  Biso   1.000  H
  H37      1.0000 0.09800  0.66200  0.55660  Biso   1.000  H
  H38      1.0000 0.90200  0.16200  0.94340  Biso   1.000  H
  H39      1.0000 0.90200  0.33800  0.44340  Biso   1.000  H
  H40      1.0000 0.09800  0.83800  0.05660  Biso   1.000  H
  C21      1.0000 0.14650  0.78080  0.58870  Biso   1.000  C
  C22      1.0000 0.85350  0.28080  0.91130  Biso   1.000  C
  C23      1.0000 0.85350  0.21920  0.41130  Biso   1.000  C
  C24      1.0000 0.14650  0.71920  0.08870  Biso   1.000  C
  H41      1.0000 0.05620  0.78950  0.53380  Biso   1.000  H
  H42      1.0000 0.94380  0.28950  0.96620  Biso   1.000  H
  H43      1.0000 0.94380  0.21050  0.46620  Biso   1.000  H
  H44      1.0000 0.05620  0.71050  0.03380  Biso   1.000  H
  H45      1.0000 0.09870  0.80240  0.65120  Biso   1.000  H
  H46      1.0000 0.90130  0.30240  0.84880  Biso   1.000  H
  H47      1.0000 0.90130  0.19760  0.34880  Biso   1.000  H
  H48      1.0000 0.09870  0.69760  0.15120  Biso   1.000  H
  C25      1.0000 0.29500  0.91170  0.55040  Biso   1.000  C
  C26      1.0000 0.70500  0.41170  0.94960  Biso   1.000  C
  C27      1.0000 0.70500  0.08830  0.44960  Biso   1.000  C
  C28      1.0000 0.29500  0.58830  0.05040  Biso   1.000  C
  H49      1.0000 0.21530  0.92060  0.49070  Biso   1.000  H
  H50      1.0000 0.78470  0.42060  0.00930  Biso   1.000  H
  H51      1.0000 0.78470  0.07940  0.50930  Biso   1.000  H
  H52      1.0000 0.21530  0.57940  0.99070  Biso   1.000  H
  H53      1.0000 0.41230  0.93600  0.53730  Biso   1.000  H
  H54      1.0000 0.58770  0.43600  0.96270  Biso   1.000  H
  H55      1.0000 0.58770  0.06400  0.46270  Biso   1.000  H
  H56      1.0000 0.41230  0.56400  0.03730  Biso   1.000  H
  C29      1.0000 0.21290  0.95310  0.64180  Biso   1.000  C
  C30      1.0000 0.78710  0.45310  0.85820  Biso   1.000  C
  C31      1.0000 0.78710  0.04690  0.35820  Biso   1.000  C
  C32      1.0000 0.21290  0.54690  0.14180  Biso   1.000  C
  H57      1.0000 0.28970  0.94340  0.70240  Biso   1.000  H
  H58      1.0000 0.71030  0.44340  0.79760  Biso   1.000  H
  H59      1.0000 0.71030  0.05660  0.29760  Biso   1.000  H
  H60      1.0000 0.28970  0.55660  0.20240  Biso   1.000  H
  H61      1.0000 0.09260  0.93110  0.65360  Biso   1.000  H
  H62      1.0000 0.90740  0.43110  0.84640  Biso   1.000  H
  H63      1.0000 0.90740  0.06890  0.34640  Biso   1.000  H
  H64      1.0000 0.09260  0.56890  0.15360  Biso   1.000  H
  Br5      1.0000 0.19690  0.06280  0.59820  Biso   1.000  Br
  Br6      1.0000 0.80310  0.56280  0.90180  Biso   1.000  Br
  Br7      1.0000 0.80310  0.93720  0.40180  Biso   1.000  Br
  Br8      1.0000 0.19690  0.43720  0.09820  Biso   1.000  Br
