data_image0
_cell_length_a       9.6646
_cell_length_b       10.552
_cell_length_c       12.6177
_cell_angle_alpha    107.239
_cell_angle_beta     99.844
_cell_angle_gamma    113.682

_symmetry_space_group_name_H-M    "P 1"
_symmetry_int_tables_number       1

loop_
  _symmetry_equiv_pos_as_xyz
  'x, y, z'

loop_
  _atom_site_label
  _atom_site_occupancy
  _atom_site_fract_x
  _atom_site_fract_y
  _atom_site_fract_z
  _atom_site_thermal_displace_type
  _atom_site_B_iso_or_equiv
  _atom_site_type_symbol
  Cu1      1.0000 0.35129  0.85774  0.38373  Biso   1.000  Cu
  Cu2      1.0000 0.64871  0.14226  0.61627  Biso   1.000  Cu
  Cu3      1.0000 0.24713  0.99559  0.69830  Biso   1.000  Cu
  Cu4      1.0000 0.75287  0.00441  0.30170  Biso   1.000  Cu
  Cu5      1.0000 0.05368  0.05931  0.40788  Biso   1.000  Cu
  Cu6      1.0000 0.94632  0.94069  0.59212  Biso   1.000  Cu
  I1       1.0000 0.32751  0.61024  0.24632  Biso   1.000  I
  I2       1.0000 0.67249  0.38976  0.75368  Biso   1.000  I
  I3       1.0000 0.38739  0.11572  0.92350  Biso   1.000  I
  I4       1.0000 0.61261  0.88428  0.07650  Biso   1.000  I
  I5       1.0000 0.97805  0.74017  0.65500  Biso   1.000  I
  I6       1.0000 0.02195  0.25983  0.34500  Biso   1.000  I
  S1       1.0000 0.38335  0.91655  0.58115  Biso   1.000  S
  S2       1.0000 0.61665  0.08345  0.41885  Biso   1.000  S
  S3       1.0000 0.20730  0.14292  0.60272  Biso   1.000  S
  S4       1.0000 0.79270  0.85708  0.39728  Biso   1.000  S
  S5       1.0000 0.17476  0.93284  0.31812  Biso   1.000  S
  S6       1.0000 0.82524  0.06716  0.68188  Biso   1.000  S
  N1       1.0000 0.47040  0.69950  0.56020  Biso   1.000  N
  N2       1.0000 0.52960  0.30050  0.43980  Biso   1.000  N
  H1       1.0000 0.45850  0.67850  0.48530  Biso   1.000  H
  H2       1.0000 0.54150  0.32150  0.51470  Biso   1.000  H
  N3       1.0000 0.47940  0.81610  0.73840  Biso   1.000  N
  N4       1.0000 0.52060  0.18390  0.26160  Biso   1.000  N
  H3       1.0000 0.45620  0.86850  0.79410  Biso   1.000  H
  H4       1.0000 0.54380  0.13150  0.20590  Biso   1.000  H
  N5       1.0000 0.25220  0.34670  0.81160  Biso   1.000  N
  N6       1.0000 0.74780  0.65330  0.18840  Biso   1.000  N
  H5       1.0000 0.29690  0.30880  0.85080  Biso   1.000  H
  H6       1.0000 0.70310  0.69120  0.14920  Biso   1.000  H
  N7       1.0000 0.14510  0.37820  0.66080  Biso   1.000  N
  N8       1.0000 0.85490  0.62180  0.33920  Biso   1.000  N
  H7       1.0000 0.11290  0.36570  0.58710  Biso   1.000  H
  H8       1.0000 0.88710  0.63430  0.41290  Biso   1.000  H
  N9       1.0000 0.00680  0.88750  0.10420  Biso   1.000  N
  N10      1.0000 0.99320  0.11250  0.89580  Biso   1.000  N
  H9       1.0000 0.96010  0.93910  0.13370  Biso   1.000  H
  H10      1.0000 0.03990  0.06090  0.86630  Biso   1.000  H
  N11      1.0000 0.17360  0.79870  0.10100  Biso   1.000  N
  N12      1.0000 0.82640  0.20130  0.89900  Biso   1.000  N
  H11      1.0000 0.25140  0.78140  0.12800  Biso   1.000  H
  H12      1.0000 0.74860  0.21860  0.87200  Biso   1.000  H
  C1       1.0000 0.44650  0.80540  0.62860  Biso   1.000  C
  C2       1.0000 0.55350  0.19460  0.37140  Biso   1.000  C
  C3       1.0000 0.51940  0.62160  0.62570  Biso   1.000  C
  C4       1.0000 0.48060  0.37840  0.37430  Biso   1.000  C
  H13      1.0000 0.61350  0.61330  0.61110  Biso   1.000  H
  H14      1.0000 0.38650  0.38670  0.38890  Biso   1.000  H
  H15      1.0000 0.43080  0.51920  0.60490  Biso   1.000  H
  H16      1.0000 0.56920  0.48080  0.39510  Biso   1.000  H
  C5       1.0000 0.56100  0.72700  0.75350  Biso   1.000  C
  C6       1.0000 0.43900  0.27300  0.24650  Biso   1.000  C
  H17      1.0000 0.51860  0.66900  0.80000  Biso   1.000  H
  H18      1.0000 0.48140  0.33100  0.20000  Biso   1.000  H
  H19      1.0000 0.67820  0.79270  0.79190  Biso   1.000  H
  H20      1.0000 0.32180  0.20730  0.20810  Biso   1.000  H
  C7       1.0000 0.20030  0.29510  0.69570  Biso   1.000  C
  C8       1.0000 0.79970  0.70490  0.30430  Biso   1.000  C
  C9       1.0000 0.22630  0.47510  0.86710  Biso   1.000  C
  C10      1.0000 0.77370  0.52490  0.13290  Biso   1.000  C
  H21      1.0000 0.32900  0.56750  0.91750  Biso   1.000  H
  H22      1.0000 0.67100  0.43250  0.08250  Biso   1.000  H
  H23      1.0000 0.15600  0.45220  0.91490  Biso   1.000  H
  H24      1.0000 0.84400  0.54780  0.08510  Biso   1.000  H
  C11      1.0000 0.14480  0.49310  0.76040  Biso   1.000  C
  C12      1.0000 0.85520  0.50690  0.23960  Biso   1.000  C
  H25      1.0000 0.03430  0.47290  0.75610  Biso   1.000  H
  H26      1.0000 0.96570  0.52710  0.24390  Biso   1.000  H
  H27      1.0000 0.20650  0.59580  0.76340  Biso   1.000  H
  H28      1.0000 0.79350  0.40420  0.23660  Biso   1.000  H
  C13      1.0000 0.11550  0.86970  0.16860  Biso   1.000  C
  C14      1.0000 0.88450  0.13030  0.83140  Biso   1.000  C
  C15      1.0000 0.97390  0.81160  0.97870  Biso   1.000  C
  C16      1.0000 0.02610  0.18840  0.02130  Biso   1.000  C
  H29      1.0000 0.99220  0.88350  0.94030  Biso   1.000  H
  H30      1.0000 0.00780  0.11650  0.05970  Biso   1.000  H
  H31      1.0000 0.86230  0.72800  0.93960  Biso   1.000  H
  H32      1.0000 0.13770  0.27200  0.06040  Biso   1.000  H
  C17      1.0000 0.09450  0.75130  0.97540  Biso   1.000  C
  C18      1.0000 0.90550  0.24870  0.02460  Biso   1.000  C
  H33      1.0000 0.03970  0.63990  0.93290  Biso   1.000  H
  H34      1.0000 0.96030  0.36010  0.06710  Biso   1.000  H
  H35      1.0000 0.17180  0.79780  0.93820  Biso   1.000  H
  H36      1.0000 0.82820  0.20220  0.06180  Biso   1.000  H
