data_image0
_cell_length_a       10.436
_cell_length_b       17.713
_cell_length_c       17.83
_cell_angle_alpha    98.296
_cell_angle_beta     106.424
_cell_angle_gamma    101.979

_symmetry_space_group_name_H-M    "P 1"
_symmetry_int_tables_number       1

loop_
  _symmetry_equiv_pos_as_xyz
  'x, y, z'

loop_
  _atom_site_label
  _atom_site_occupancy
  _atom_site_fract_x
  _atom_site_fract_y
  _atom_site_fract_z
  _atom_site_thermal_displace_type
  _atom_site_B_iso_or_equiv
  _atom_site_type_symbol
  Cu1      1.0000 0.90996  0.81370  0.72652  Biso   1.000  Cu
  Cu2      1.0000 0.09004  0.18630  0.27348  Biso   1.000  Cu
  Cl1      1.0000 0.15490  0.14670  0.59380  Biso   1.000  Cl
  Cl2      1.0000 0.84510  0.85330  0.40620  Biso   1.000  Cl
  P1       1.0000 0.13456  0.88439  0.77589  Biso   1.000  P
  P2       1.0000 0.86544  0.11561  0.22411  Biso   1.000  P
  F1       1.0000 0.63910  0.20470  0.66000  Biso   1.000  F
  F2       1.0000 0.36090  0.79530  0.34000  Biso   1.000  F
  O1       1.0000 0.98300  0.46760  0.87340  Biso   1.000  O
  O2       1.0000 0.01700  0.53240  0.12660  Biso   1.000  O
  N1       1.0000 0.92270  0.71880  0.64720  Biso   1.000  N
  N2       1.0000 0.07730  0.28120  0.35280  Biso   1.000  N
  C1       1.0000 0.94440  0.72820  0.57740  Biso   1.000  C
  C2       1.0000 0.05560  0.27180  0.42260  Biso   1.000  C
  H1       1.0000 0.94260  0.77740  0.56220  Biso   1.000  H
  H2       1.0000 0.05740  0.22260  0.43780  Biso   1.000  H
  Cl3      1.0000 0.00580  0.20000  0.68630  Biso   1.000  Cl
  Cl4      1.0000 0.99420  0.80000  0.31370  Biso   1.000  Cl
  P3       1.0000 0.77379  0.78487  0.80276  Biso   1.000  P
  P4       1.0000 0.22621  0.21513  0.19724  Biso   1.000  P
  F3       1.0000 0.62890  0.21150  0.83660  Biso   1.000  F
  F4       1.0000 0.37110  0.78850  0.16340  Biso   1.000  F
  N3       1.0000 0.19830  0.13100  0.35700  Biso   1.000  N
  N4       1.0000 0.80170  0.86900  0.64300  Biso   1.000  N
  C3       1.0000 0.96890  0.67030  0.52720  Biso   1.000  C
  C4       1.0000 0.03110  0.32970  0.47280  Biso   1.000  C
  H3       1.0000 0.98260  0.67970  0.47860  Biso   1.000  H
  H4       1.0000 0.01740  0.32030  0.52140  Biso   1.000  H
  Cl5      1.0000 0.22780  0.30710  0.66850  Biso   1.000  Cl
  Cl6      1.0000 0.77220  0.69290  0.33150  Biso   1.000  Cl
  P5       1.0000 0.63490  0.20818  0.74819  Biso   1.000  P
  P6       1.0000 0.36510  0.79182  0.25181  Biso   1.000  P
  F5       1.0000 0.51910  0.25470  0.73190  Biso   1.000  F
  F6       1.0000 0.48090  0.74530  0.26810  Biso   1.000  F
  C5       1.0000 0.97350  0.59810  0.54770  Biso   1.000  C
  C6       1.0000 0.02650  0.40190  0.45230  Biso   1.000  C
  Cl7      1.0000 0.69230  0.35010  0.55394  Biso   1.000  Cl
  Cl8      1.0000 0.30770  0.64990  0.44606  Biso   1.000  Cl
  F7       1.0000 0.74780  0.28880  0.77570  Biso   1.000  F
  F8       1.0000 0.25220  0.71120  0.22430  Biso   1.000  F
  C7       1.0000 0.95340  0.58850  0.62020  Biso   1.000  C
  C8       1.0000 0.04660  0.41150  0.37980  Biso   1.000  C
  H5       1.0000 0.95670  0.54030  0.63720  Biso   1.000  H
  H6       1.0000 0.04330  0.45970  0.36280  Biso   1.000  H
  Cl9      1.0000 0.43320  0.38514  0.54820  Biso   1.000  Cl
  Cl10     1.0000 0.56680  0.61486  0.45180  Biso   1.000  Cl
  F9       1.0000 0.51960  0.12680  0.71980  Biso   1.000  F
  F10      1.0000 0.48040  0.87320  0.28020  Biso   1.000  F
  C9       1.0000 0.92880  0.64900  0.66690  Biso   1.000  C
  C10      1.0000 0.07120  0.35100  0.33310  Biso   1.000  C
  H7       1.0000 0.91540  0.64100  0.71600  Biso   1.000  H
  H8       1.0000 0.08460  0.35900  0.28400  Biso   1.000  H
  Cl11     1.0000 0.67670  0.46226  0.68244  Biso   1.000  Cl
  Cl12     1.0000 0.32330  0.53774  0.31756  Biso   1.000  Cl
  F11      1.0000 0.75130  0.16350  0.76690  Biso   1.000  F
  F12      1.0000 0.24870  0.83650  0.23310  Biso   1.000  F
  C11      1.0000 0.99900  0.53600  0.49420  Biso   1.000  C
  C12      1.0000 0.00100  0.46400  0.50580  Biso   1.000  C
  H9       1.0000 0.01550  0.54860  0.44720  Biso   1.000  H
  H10      1.0000 0.98450  0.45140  0.55280  Biso   1.000  H
  Cl13     1.0000 0.40370  0.35601  0.90600  Biso   1.000  Cl
  Cl14     1.0000 0.59630  0.64399  0.09400  Biso   1.000  Cl
  C13      1.0000 0.30040  0.17510  0.42330  Biso   1.000  C
  C14      1.0000 0.69960  0.82490  0.57670  Biso   1.000  C
  H11      1.0000 0.31050  0.23050  0.43510  Biso   1.000  H
  H12      1.0000 0.68950  0.76950  0.56490  Biso   1.000  H
  Cl15     1.0000 0.50910  0.48420  0.84250  Biso   1.000  Cl
  Cl16     1.0000 0.49090  0.51580  0.15750  Biso   1.000  Cl
  C15      1.0000 0.39040  0.14480  0.47460  Biso   1.000  C
  C16      1.0000 0.60960  0.85520  0.52540  Biso   1.000  C
  H13      1.0000 0.45820  0.17880  0.52140  Biso   1.000  H
  H14      1.0000 0.54180  0.82120  0.47860  Biso   1.000  H
  Cl17     1.0000 0.69070  0.42650  0.95760  Biso   1.000  Cl
  Cl18     1.0000 0.30930  0.57350  0.04240  Biso   1.000  Cl
  C17      1.0000 0.38340  0.06450  0.45870  Biso   1.000  C
  C18      1.0000 0.61660  0.93550  0.54130  Biso   1.000  C
  C19      1.0000 0.27680  0.01850  0.39020  Biso   1.000  C
  C20      1.0000 0.72320  0.98150  0.60980  Biso   1.000  C
  H15      1.0000 0.26600  0.96320  0.37600  Biso   1.000  H
  H16      1.0000 0.73400  0.03680  0.62400  Biso   1.000  H
  C21      1.0000 0.18830  0.05320  0.34390  Biso   1.000  C
  C22      1.0000 0.81170  0.94680  0.65610  Biso   1.000  C
  H17      1.0000 0.11460  0.01990  0.29930  Biso   1.000  H
  H18      1.0000 0.88540  0.98010  0.70070  Biso   1.000  H
  C23      1.0000 0.48430  0.03320  0.51070  Biso   1.000  C
  C24      1.0000 0.51570  0.96680  0.48930  Biso   1.000  C
  H19      1.0000 0.46900  0.93720  0.43610  Biso   1.000  H
  H20      1.0000 0.53100  0.06280  0.56390  Biso   1.000  H
  C25      1.0000 0.16680  0.99000  0.81450  Biso   1.000  C
  C26      1.0000 0.83320  0.01000  0.18550  Biso   1.000  C
  C27      1.0000 0.07170  0.01340  0.84650  Biso   1.000  C
  C28      1.0000 0.92830  0.98660  0.15350  Biso   1.000  C
  H21      1.0000 0.99530  0.97480  0.84850  Biso   1.000  H
  H22      1.0000 0.00470  0.02520  0.15150  Biso   1.000  H
  C29      1.0000 0.08690  0.09300  0.87600  Biso   1.000  C
  C30      1.0000 0.91310  0.90700  0.12400  Biso   1.000  C
  H23      1.0000 0.02020  0.10840  0.89730  Biso   1.000  H
  H24      1.0000 0.97980  0.89160  0.10270  Biso   1.000  H
  C31      1.0000 0.19780  0.14940  0.87420  Biso   1.000  C
  C32      1.0000 0.80220  0.85060  0.12580  Biso   1.000  C
  H25      1.0000 0.20860  0.20360  0.89520  Biso   1.000  H
  H26      1.0000 0.79140  0.79640  0.10480  Biso   1.000  H
  C33      1.0000 0.29480  0.12710  0.84160  Biso   1.000  C
  C34      1.0000 0.70520  0.87290  0.15840  Biso   1.000  C
  H27      1.0000 0.37120  0.16580  0.83960  Biso   1.000  H
  H28      1.0000 0.62880  0.83420  0.16040  Biso   1.000  H
  C35      1.0000 0.27770  0.04740  0.81210  Biso   1.000  C
  C36      1.0000 0.72230  0.95260  0.18790  Biso   1.000  C
  H29      1.0000 0.34320  0.03180  0.78990  Biso   1.000  H
  H30      1.0000 0.65680  0.96820  0.21010  Biso   1.000  H
  C37      1.0000 0.20690  0.87820  0.69340  Biso   1.000  C
  C38      1.0000 0.79310  0.12180  0.30660  Biso   1.000  C
  C39      1.0000 0.17090  0.92140  0.63480  Biso   1.000  C
  C40      1.0000 0.82910  0.07860  0.36520  Biso   1.000  C
  H31      1.0000 0.12300  0.96050  0.64240  Biso   1.000  H
  H32      1.0000 0.87700  0.03950  0.35760  Biso   1.000  H
  C41      1.0000 0.20550  0.90690  0.56510  Biso   1.000  C
  C42      1.0000 0.79450  0.09310  0.43490  Biso   1.000  C
  H33      1.0000 0.18060  0.93600  0.52490  Biso   1.000  H
  H34      1.0000 0.81940  0.06400  0.47510  Biso   1.000  H
  C43      1.0000 0.27500  0.85090  0.55420  Biso   1.000  C
  C44      1.0000 0.72500  0.14910  0.44580  Biso   1.000  C
  H35      1.0000 0.29760  0.84090  0.50640  Biso   1.000  H
  H36      1.0000 0.70240  0.15910  0.49360  Biso   1.000  H
  C45      1.0000 0.31210  0.80910  0.61230  Biso   1.000  C
  C46      1.0000 0.68790  0.19090  0.38770  Biso   1.000  C
  H37      1.0000 0.36150  0.77080  0.60480  Biso   1.000  H
  H38      1.0000 0.63850  0.22920  0.39520  Biso   1.000  H
  C47      1.0000 0.27830  0.82230  0.68140  Biso   1.000  C
  C48      1.0000 0.72170  0.17770  0.31860  Biso   1.000  C
  H39      1.0000 0.30410  0.79290  0.72110  Biso   1.000  H
  H40      1.0000 0.69590  0.20710  0.27890  Biso   1.000  H
  C49      1.0000 0.25100  0.85050  0.85280  Biso   1.000  C
  C50      1.0000 0.74900  0.14950  0.14720  Biso   1.000  C
  C51      1.0000 0.37450  0.89960  0.90760  Biso   1.000  C
  C52      1.0000 0.62550  0.10040  0.09240  Biso   1.000  C
  H41      1.0000 0.40240  0.95340  0.90480  Biso   1.000  H
  H42      1.0000 0.59760  0.04660  0.09520  Biso   1.000  H
  C53      1.0000 0.45620  0.87060  0.96560  Biso   1.000  C
  C54      1.0000 0.54380  0.12940  0.03440  Biso   1.000  C
  H43      1.0000 0.53890  0.90490  0.00330  Biso   1.000  H
  H44      1.0000 0.46110  0.09510  0.99670  Biso   1.000  H
  C55      1.0000 0.41890  0.79250  0.96930  Biso   1.000  C
  C56      1.0000 0.58110  0.20750  0.03070  Biso   1.000  C
  H45      1.0000 0.47660  0.77300  0.00920  Biso   1.000  H
  H46      1.0000 0.52340  0.22700  0.99080  Biso   1.000  H
  C57      1.0000 0.29860  0.74250  0.91570  Biso   1.000  C
  C58      1.0000 0.70140  0.25750  0.08430  Biso   1.000  C
  H47      1.0000 0.27340  0.68840  0.91800  Biso   1.000  H
  H48      1.0000 0.72660  0.31160  0.08200  Biso   1.000  H
  C59      1.0000 0.21360  0.77180  0.85760  Biso   1.000  C
  C60      1.0000 0.78640  0.22820  0.14240  Biso   1.000  C
  H49      1.0000 0.12960  0.73760  0.82100  Biso   1.000  H
  H50      1.0000 0.87040  0.26240  0.17900  Biso   1.000  H
  C61      1.0000 0.85030  0.75250  0.89460  Biso   1.000  C
  C62      1.0000 0.14970  0.24750  0.10540  Biso   1.000  C
  C63      1.0000 0.98470  0.79480  0.94220  Biso   1.000  C
  C64      1.0000 0.01530  0.20520  0.05780  Biso   1.000  C
  H51      1.0000 0.03140  0.83900  0.92710  Biso   1.000  H
  H52      1.0000 0.96860  0.16100  0.07290  Biso   1.000  H
  C65      1.0000 0.05010  0.77270  0.01120  Biso   1.000  C
  C66      1.0000 0.94990  0.22730  0.98880  Biso   1.000  C
  H53      1.0000 0.14070  0.80250  0.04360  Biso   1.000  H
  H54      1.0000 0.85930  0.19750  0.95640  Biso   1.000  H
  C67      1.0000 0.98450  0.70720  0.03340  Biso   1.000  C
  C68      1.0000 0.01550  0.29280  0.96660  Biso   1.000  C
  H55      1.0000 0.03000  0.69130  0.08030  Biso   1.000  H
  H56      1.0000 0.97000  0.30870  0.91970  Biso   1.000  H
  C69      1.0000 0.85320  0.66610  0.98660  Biso   1.000  C
  C70      1.0000 0.14680  0.33390  0.01340  Biso   1.000  C
  H57      1.0000 0.80770  0.62180  0.00220  Biso   1.000  H
  H58      1.0000 0.19230  0.37820  0.99780  Biso   1.000  H
  C71      1.0000 0.78440  0.68630  0.91750  Biso   1.000  C
  C72      1.0000 0.21560  0.31370  0.08250  Biso   1.000  C
  H59      1.0000 0.69370  0.65600  0.88580  Biso   1.000  H
  H60      1.0000 0.30630  0.34400  0.11420  Biso   1.000  H
  C73      1.0000 0.60680  0.71190  0.75430  Biso   1.000  C
  C74      1.0000 0.39320  0.28810  0.24570  Biso   1.000  C
  C75      1.0000 0.58700  0.66090  0.68250  Biso   1.000  C
  C76      1.0000 0.41300  0.33910  0.31750  Biso   1.000  C
  H61      1.0000 0.65810  0.66570  0.65860  Biso   1.000  H
  H62      1.0000 0.34190  0.33430  0.34140  Biso   1.000  H
  C77      1.0000 0.46450  0.60380  0.64630  Biso   1.000  C
  C78      1.0000 0.53550  0.39620  0.35370  Biso   1.000  C
  H63      1.0000 0.45220  0.56840  0.59780  Biso   1.000  H
  H64      1.0000 0.54780  0.43160  0.40220  Biso   1.000  H
  C79      1.0000 0.35920  0.59690  0.67900  Biso   1.000  C
  C80      1.0000 0.64080  0.40310  0.32100  Biso   1.000  C
  H65      1.0000 0.27500  0.55700  0.65330  Biso   1.000  H
  H66      1.0000 0.72500  0.44300  0.34670  Biso   1.000  H
  C81      1.0000 0.37630  0.64810  0.74900  Biso   1.000  C
  C82      1.0000 0.62370  0.35190  0.25100  Biso   1.000  C
  H67      1.0000 0.30370  0.64370  0.77170  Biso   1.000  H
  H68      1.0000 0.69630  0.35630  0.22830  Biso   1.000  H
  C83      1.0000 0.49920  0.70570  0.78630  Biso   1.000  C
  C84      1.0000 0.50080  0.29430  0.21370  Biso   1.000  C
  H69      1.0000 0.51020  0.74150  0.83420  Biso   1.000  H
  H70      1.0000 0.48980  0.25850  0.16580  Biso   1.000  H
  C85      1.0000 0.72570  0.87390  0.83750  Biso   1.000  C
  C86      1.0000 0.27430  0.12610  0.16250  Biso   1.000  C
  C87      1.0000 0.77880  0.91810  0.91580  Biso   1.000  C
  C88      1.0000 0.22120  0.08190  0.08420  Biso   1.000  C
  H71      1.0000 0.83430  0.89860  0.95670  Biso   1.000  H
  H72      1.0000 0.16570  0.10140  0.04330  Biso   1.000  H
  C89      1.0000 0.75090  0.99020  0.93400  Biso   1.000  C
  C90      1.0000 0.24910  0.00980  0.06600  Biso   1.000  C
  H73      1.0000 0.78800  0.02030  0.98750  Biso   1.000  H
  H74      1.0000 0.21200  0.97970  0.01250  Biso   1.000  H
  C91      1.0000 0.66980  0.01910  0.87530  Biso   1.000  C
  C92      1.0000 0.33020  0.98090  0.12470  Biso   1.000  C
  H75      1.0000 0.65270  0.06920  0.88810  Biso   1.000  H
  H76      1.0000 0.34730  0.93080  0.11190  Biso   1.000  H
  C93      1.0000 0.61430  0.97500  0.79860  Biso   1.000  C
  C94      1.0000 0.38570  0.02500  0.20140  Biso   1.000  C
  H77      1.0000 0.55650  0.99420  0.75850  Biso   1.000  H
  H78      1.0000 0.44350  0.00580  0.24150  Biso   1.000  H
  C95      1.0000 0.64100  0.90300  0.77880  Biso   1.000  C
  C96      1.0000 0.35900  0.09700  0.22120  Biso   1.000  C
  H79      1.0000 0.60200  0.87310  0.72520  Biso   1.000  H
  H80      1.0000 0.39800  0.12690  0.27480  Biso   1.000  H
  C97      1.0000 0.99750  0.55090  0.85430  Biso   1.000  C
  C98      1.0000 0.00250  0.44910  0.14570  Biso   1.000  C
  H81      1.0000 0.90490  0.55940  0.83110  Biso   1.000  H
  H82      1.0000 0.09510  0.44060  0.16890  Biso   1.000  H
  H83      1.0000 0.04820  0.59200  0.90390  Biso   1.000  H
  H84      1.0000 0.95180  0.40800  0.09610  Biso   1.000  H
  C99      1.0000 0.06920  0.55530  0.80040  Biso   1.000  C
  C100     1.0000 0.93080  0.44470  0.19960  Biso   1.000  C
  H85      1.0000 0.01100  0.56580  0.75070  Biso   1.000  H
  H86      1.0000 0.98900  0.43420  0.24930  Biso   1.000  H
  H87      1.0000 0.15360  0.59980  0.82320  Biso   1.000  H
  H88      1.0000 0.84640  0.40020  0.17680  Biso   1.000  H
  C101     1.0000 0.10590  0.48660  0.78240  Biso   1.000  C
  C102     1.0000 0.89410  0.51340  0.21760  Biso   1.000  C
  H89      1.0000 0.20680  0.49860  0.79160  Biso   1.000  H
  H90      1.0000 0.79320  0.50140  0.20840  Biso   1.000  H
  H91      1.0000 0.05740  0.46100  0.72520  Biso   1.000  H
  H92      1.0000 0.94260  0.53900  0.27480  Biso   1.000  H
  C103     1.0000 0.07040  0.43500  0.83080  Biso   1.000  C
  C104     1.0000 0.92960  0.56500  0.16920  Biso   1.000  C
  H93      1.0000 0.15520  0.43020  0.87020  Biso   1.000  H
  H94      1.0000 0.84480  0.56980  0.12980  Biso   1.000  H
  H95      1.0000 0.01870  0.38180  0.79730  Biso   1.000  H
  H96      1.0000 0.98130  0.61820  0.20270  Biso   1.000  H
  C105     1.0000 0.16250  0.21160  0.67680  Biso   1.000  C
  C106     1.0000 0.83750  0.78840  0.32320  Biso   1.000  C
  H97      1.0000 0.22610  0.20080  0.72520  Biso   1.000  H
  H98      1.0000 0.77390  0.79920  0.27480  Biso   1.000  H
  C107     1.0000 0.58960  0.37640  0.61130  Biso   1.000  C
  C108     1.0000 0.41040  0.62360  0.38870  Biso   1.000  C
  H99      1.0000 0.56790  0.33300  0.63960  Biso   1.000  H
  H100     1.0000 0.43210  0.66700  0.36040  Biso   1.000  H
  C109     1.0000 0.53770  0.40080  0.87790  Biso   1.000  C
  C110     1.0000 0.46230  0.59920  0.12210  Biso   1.000  C
  H101     1.0000 0.54700  0.36260  0.83390  Biso   1.000  H
  H102     1.0000 0.45300  0.63740  0.16610  Biso   1.000  H
