data_image0
_cell_length_a       13.694
_cell_length_b       17.439
_cell_length_c       17.683
_cell_angle_alpha    112.137
_cell_angle_beta     90.856
_cell_angle_gamma    94.333

_symmetry_space_group_name_H-M    "P 1"
_symmetry_int_tables_number       1

loop_
  _symmetry_equiv_pos_as_xyz
  'x, y, z'

loop_
  _atom_site_label
  _atom_site_occupancy
  _atom_site_fract_x
  _atom_site_fract_y
  _atom_site_fract_z
  _atom_site_thermal_displace_type
  _atom_site_B_iso_or_equiv
  _atom_site_type_symbol
  Cu1      1.0000 0.71933  0.40887  0.14179  Biso   1.000  Cu
  Cu2      1.0000 0.28067  0.59113  0.85821  Biso   1.000  Cu
  Cl1      1.0000 0.23970  0.88320  0.55738  Biso   1.000  Cl
  Cl2      1.0000 0.76030  0.11680  0.44262  Biso   1.000  Cl
  P1       1.0000 0.77392  0.28498  0.10381  Biso   1.000  P
  P2       1.0000 0.22608  0.71502  0.89619  Biso   1.000  P
  F1       1.0000 0.34470  0.64350  0.38970  Biso   1.000  F
  F2       1.0000 0.65530  0.35650  0.61030  Biso   1.000  F
  Cu3      1.0000 0.22281  0.14614  0.41761  Biso   1.000  Cu
  Cu4      1.0000 0.77719  0.85386  0.58239  Biso   1.000  Cu
  Cl3      1.0000 0.43560  0.91180  0.51831  Biso   1.000  Cl
  Cl4      1.0000 0.56440  0.08820  0.48169  Biso   1.000  Cl
  P3       1.0000 0.29202  0.08331  0.30103  Biso   1.000  P
  P4       1.0000 0.70798  0.91669  0.69897  Biso   1.000  P
  F3       1.0000 0.27540  0.52160  0.37900  Biso   1.000  F
  F4       1.0000 0.72460  0.47840  0.62100  Biso   1.000  F
  N1       1.0000 0.30760  0.18950  0.52580  Biso   1.000  N
  N2       1.0000 0.69240  0.81050  0.47420  Biso   1.000  N
  Cl5      1.0000 0.11280  0.29590  0.18570  Biso   1.000  Cl
  Cl6      1.0000 0.88720  0.70410  0.81430  Biso   1.000  Cl
  P5       1.0000 0.24345  0.59394  0.35742  Biso   1.000  P
  P6       1.0000 0.75655  0.40606  0.64258  Biso   1.000  P
  F5       1.0000 0.20080  0.62610  0.44650  Biso   1.000  F
  F6       1.0000 0.79920  0.37390  0.55350  Biso   1.000  F
  N3       1.0000 0.64890  0.45280  0.25060  Biso   1.000  N
  N4       1.0000 0.35110  0.54720  0.74940  Biso   1.000  N
  Cl7      1.0000 0.32110  0.30610  0.19810  Biso   1.000  Cl
  Cl8      1.0000 0.67890  0.69390  0.80190  Biso   1.000  Cl
  P7       1.0000 0.26052  0.09466  0.83927  Biso   1.000  P
  P8       1.0000 0.73948  0.90534  0.16073  Biso   1.000  P
  F7       1.0000 0.20360  0.66910  0.34910  Biso   1.000  F
  F8       1.0000 0.79640  0.33090  0.65090  Biso   1.000  F
  N5       1.0000 0.81140  0.51550  0.16650  Biso   1.000  N
  N6       1.0000 0.18860  0.48450  0.83350  Biso   1.000  N
  Cl9      1.0000 0.74430  0.61220  0.96650  Biso   1.000  Cl
  Cl10     1.0000 0.25570  0.38780  0.03350  Biso   1.000  Cl
  F9       1.0000 0.28460  0.55520  0.27340  Biso   1.000  F
  F10      1.0000 0.71540  0.44480  0.72660  Biso   1.000  F
  N7       1.0000 0.14740  0.25070  0.44250  Biso   1.000  N
  N8       1.0000 0.85260  0.74930  0.55750  Biso   1.000  N
  Cl11     1.0000 0.87870  0.48330  0.93100  Biso   1.000  Cl
  Cl12     1.0000 0.12130  0.51670  0.06900  Biso   1.000  Cl
  F11      1.0000 0.14150  0.54090  0.32400  Biso   1.000  F
  F12      1.0000 0.85850  0.45910  0.67600  Biso   1.000  F
  N9       1.0000 0.11670  0.05480  0.42530  Biso   1.000  N
  N10      1.0000 0.88330  0.94520  0.57470  Biso   1.000  N
  F13      1.0000 0.23210  0.17110  0.81540  Biso   1.000  F
  F14      1.0000 0.76790  0.82890  0.18460  Biso   1.000  F
  F15      1.0000 0.14740  0.07010  0.84530  Biso   1.000  F
  F16      1.0000 0.85260  0.92990  0.15470  Biso   1.000  F
  F17      1.0000 0.26750  0.15390  0.93290  Biso   1.000  F
  F18      1.0000 0.73250  0.84610  0.06710  Biso   1.000  F
  C1       1.0000 0.41150  0.26000  0.67770  Biso   1.000  C
  C2       1.0000 0.58850  0.74000  0.32230  Biso   1.000  C
  F19      1.0000 0.37290  0.11800  0.83050  Biso   1.000  F
  F20      1.0000 0.62710  0.88200  0.16950  Biso   1.000  F
  C3       1.0000 0.41340  0.29730  0.62280  Biso   1.000  C
  C4       1.0000 0.58660  0.70270  0.37720  Biso   1.000  C
  H1       1.0000 0.45140  0.34890  0.63560  Biso   1.000  H
  H2       1.0000 0.54860  0.65110  0.36440  Biso   1.000  H
  F21      1.0000 0.25280  0.03520  0.74450  Biso   1.000  F
  F22      1.0000 0.74720  0.96480  0.25550  Biso   1.000  F
  C5       1.0000 0.36150  0.26190  0.54900  Biso   1.000  C
  C6       1.0000 0.63850  0.73810  0.45100  Biso   1.000  C
  H3       1.0000 0.36430  0.29060  0.51280  Biso   1.000  H
  H4       1.0000 0.63570  0.70940  0.48720  Biso   1.000  H
  F23      1.0000 0.28930  0.01900  0.86310  Biso   1.000  F
  F24      1.0000 0.71070  0.98100  0.13690  Biso   1.000  F
  C7       1.0000 0.30620  0.15230  0.57860  Biso   1.000  C
  C8       1.0000 0.69380  0.84770  0.42140  Biso   1.000  C
  H5       1.0000 0.26850  0.10040  0.56400  Biso   1.000  H
  H6       1.0000 0.73150  0.89960  0.43600  Biso   1.000  H
  C9       1.0000 0.35660  0.18490  0.65420  Biso   1.000  C
  C10      1.0000 0.64340  0.81510  0.34580  Biso   1.000  C
  H7       1.0000 0.35310  0.15530  0.68960  Biso   1.000  H
  H8       1.0000 0.64690  0.84470  0.31040  Biso   1.000  H
  C11      1.0000 0.90570  0.52080  0.19130  Biso   1.000  C
  C12      1.0000 0.09430  0.47920  0.80870  Biso   1.000  C
  H9       1.0000 0.93650  0.47080  0.17980  Biso   1.000  H
  H10      1.0000 0.06350  0.52920  0.82020  Biso   1.000  H
  C13      1.0000 0.96060  0.59600  0.23310  Biso   1.000  C
  C14      1.0000 0.03940  0.40400  0.76690  Biso   1.000  C
  H11      1.0000 0.02690  0.59660  0.25010  Biso   1.000  H
  H12      1.0000 0.97310  0.40340  0.74990  Biso   1.000  H
  C15      1.0000 0.91800  0.67000  0.24980  Biso   1.000  C
  C16      1.0000 0.08200  0.33000  0.75020  Biso   1.000  C
  C17      1.0000 0.82150  0.66410  0.22240  Biso   1.000  C
  C18      1.0000 0.17850  0.33590  0.77760  Biso   1.000  C
  H13      1.0000 0.78960  0.71310  0.23140  Biso   1.000  H
  H14      1.0000 0.21040  0.28690  0.76860  Biso   1.000  H
  C19      1.0000 0.77150  0.58730  0.18210  Biso   1.000  C
  C20      1.0000 0.22850  0.41270  0.81790  Biso   1.000  C
  H15      1.0000 0.70520  0.58520  0.16430  Biso   1.000  H
  H16      1.0000 0.29480  0.41480  0.83570  Biso   1.000  H
  C21      1.0000 0.97560  0.74960  0.29530  Biso   1.000  C
  C22      1.0000 0.02440  0.25040  0.70470  Biso   1.000  C
  H17      1.0000 0.04170  0.74730  0.31090  Biso   1.000  H
  H18      1.0000 0.95830  0.25270  0.68910  Biso   1.000  H
  C23      1.0000 0.55130  0.45020  0.25440  Biso   1.000  C
  C24      1.0000 0.44870  0.54980  0.74560  Biso   1.000  C
  H19      1.0000 0.51340  0.43600  0.20480  Biso   1.000  H
  H20      1.0000 0.48660  0.56400  0.79520  Biso   1.000  H
  C25      1.0000 0.50280  0.46680  0.32490  Biso   1.000  C
  C26      1.0000 0.49720  0.53320  0.67510  Biso   1.000  C
  H21      1.0000 0.43320  0.46400  0.32340  Biso   1.000  H
  H22      1.0000 0.56680  0.53600  0.67660  Biso   1.000  H
  C27      1.0000 0.55440  0.48770  0.39790  Biso   1.000  C
  C28      1.0000 0.44560  0.51230  0.60210  Biso   1.000  C
  C29      1.0000 0.65210  0.49410  0.39610  Biso   1.000  C
  C30      1.0000 0.34790  0.50590  0.60390  Biso   1.000  C
  H23      1.0000 0.69100  0.50960  0.44540  Biso   1.000  H
  H24      1.0000 0.30900  0.49040  0.55460  Biso   1.000  H
  C31      1.0000 0.69730  0.47830  0.32210  Biso   1.000  C
  C32      1.0000 0.30270  0.52170  0.67790  Biso   1.000  C
  H25      1.0000 0.76680  0.48620  0.32330  Biso   1.000  H
  H26      1.0000 0.23320  0.51380  0.67670  Biso   1.000  H
  C33      1.0000 0.47460  0.49840  0.47910  Biso   1.000  C
  C34      1.0000 0.52540  0.50160  0.52090  Biso   1.000  C
  H27      1.0000 0.40550  0.50030  0.48160  Biso   1.000  H
  H28      1.0000 0.59450  0.49970  0.51840  Biso   1.000  H
  C35      1.0000 0.08840  0.27260  0.50380  Biso   1.000  C
  C36      1.0000 0.91160  0.72740  0.49620  Biso   1.000  C
  H29      1.0000 0.07710  0.23600  0.53180  Biso   1.000  H
  H30      1.0000 0.92290  0.76400  0.46820  Biso   1.000  H
  C37      1.0000 0.04210  0.34470  0.53010  Biso   1.000  C
  C38      1.0000 0.95790  0.65530  0.46990  Biso   1.000  C
  H31      1.0000 0.99970  0.35610  0.57440  Biso   1.000  H
  H32      1.0000 0.00030  0.64390  0.42560  Biso   1.000  H
  C39      1.0000 0.05710  0.40000  0.49280  Biso   1.000  C
  C40      1.0000 0.94290  0.60000  0.50720  Biso   1.000  C
  C41      1.0000 0.12010  0.37850  0.42930  Biso   1.000  C
  C42      1.0000 0.87990  0.62150  0.57070  Biso   1.000  C
  H33      1.0000 0.13400  0.41520  0.40170  Biso   1.000  H
  H34      1.0000 0.86600  0.58480  0.59830  Biso   1.000  H
  C43      1.0000 0.16370  0.30360  0.40490  Biso   1.000  C
  C44      1.0000 0.83630  0.69640  0.59510  Biso   1.000  C
  H35      1.0000 0.20590  0.29000  0.36040  Biso   1.000  H
  H36      1.0000 0.79410  0.71000  0.63960  Biso   1.000  H
  C45      1.0000 0.00180  0.47600  0.51880  Biso   1.000  C
  C46      1.0000 0.99820  0.52400  0.48120  Biso   1.000  C
  H37      1.0000 0.96680  0.48870  0.56740  Biso   1.000  H
  H38      1.0000 0.03320  0.51130  0.43260  Biso   1.000  H
  C47      1.0000 0.02610  0.04930  0.39180  Biso   1.000  C
  C48      1.0000 0.97390  0.95070  0.60820  Biso   1.000  C
  H39      1.0000 0.00140  0.09870  0.39130  Biso   1.000  H
  H40      1.0000 0.99860  0.90130  0.60870  Biso   1.000  H
  C49      1.0000 0.96760  0.97610  0.35840  Biso   1.000  C
  C50      1.0000 0.03240  0.02390  0.64160  Biso   1.000  C
  H41      1.0000 0.90430  0.97580  0.33540  Biso   1.000  H
  H42      1.0000 0.09570  0.02420  0.66460  Biso   1.000  H
  C51      1.0000 0.00050  0.90190  0.35790  Biso   1.000  C
  C52      1.0000 0.99950  0.09810  0.64210  Biso   1.000  C
  C53      1.0000 0.09320  0.90910  0.39690  Biso   1.000  C
  C54      1.0000 0.90680  0.09090  0.60310  Biso   1.000  C
  H43      1.0000 0.11870  0.86170  0.40120  Biso   1.000  H
  H44      1.0000 0.88130  0.13830  0.59880  Biso   1.000  H
  C55      1.0000 0.14650  0.98480  0.42840  Biso   1.000  C
  C56      1.0000 0.85350  0.01520  0.57160  Biso   1.000  C
  H45      1.0000 0.20870  0.98780  0.45430  Biso   1.000  H
  H46      1.0000 0.79130  0.01220  0.54570  Biso   1.000  H
  C57      1.0000 0.94340  0.82320  0.31620  Biso   1.000  C
  C58      1.0000 0.05660  0.17680  0.68380  Biso   1.000  C
  H47      1.0000 0.87650  0.82520  0.30260  Biso   1.000  H
  H48      1.0000 0.12350  0.17480  0.69740  Biso   1.000  H
  C59      1.0000 0.86950  0.26250  0.03020  Biso   1.000  C
  C60      1.0000 0.13050  0.73750  0.96980  Biso   1.000  C
  C61      1.0000 0.90420  0.32350  0.00200  Biso   1.000  C
  C62      1.0000 0.09580  0.67650  0.99800  Biso   1.000  C
  H49      1.0000 0.87770  0.37590  0.02130  Biso   1.000  H
  H50      1.0000 0.12230  0.62410  0.97870  Biso   1.000  H
  C63      1.0000 0.97730  0.30850  0.94590  Biso   1.000  C
  C64      1.0000 0.02270  0.69150  0.05410  Biso   1.000  C
  H51      1.0000 0.99940  0.35050  0.92660  Biso   1.000  H
  H52      1.0000 0.00060  0.64950  0.07340  Biso   1.000  H
  C65      1.0000 0.01740  0.23490  0.91830  Biso   1.000  C
  C66      1.0000 0.98260  0.76510  0.08170  Biso   1.000  C
  H53      1.0000 0.06920  0.22610  0.88170  Biso   1.000  H
  H54      1.0000 0.93080  0.77390  0.11830  Biso   1.000  H
  C67      1.0000 0.98230  0.17310  0.94390  Biso   1.000  C
  C68      1.0000 0.01770  0.82690  0.05610  Biso   1.000  C
  H55      1.0000 0.00890  0.12070  0.92350  Biso   1.000  H
  H56      1.0000 0.99110  0.87930  0.07650  Biso   1.000  H
  C69      1.0000 0.90880  0.18650  0.99880  Biso   1.000  C
  C70      1.0000 0.09120  0.81350  0.00120  Biso   1.000  C
  H57      1.0000 0.88480  0.14300  0.01530  Biso   1.000  H
  H58      1.0000 0.11520  0.85700  0.98470  Biso   1.000  H
  C71      1.0000 0.67510  0.20670  0.05310  Biso   1.000  C
  C72      1.0000 0.32490  0.79330  0.94690  Biso   1.000  C
  C73      1.0000 0.65890  0.17710  0.96840  Biso   1.000  C
  C74      1.0000 0.34110  0.82290  0.03160  Biso   1.000  C
  H59      1.0000 0.70600  0.19150  0.93590  Biso   1.000  H
  H60      1.0000 0.29400  0.80850  0.06410  Biso   1.000  H
  C75      1.0000 0.57500  0.12720  0.93150  Biso   1.000  C
  C76      1.0000 0.42500  0.87280  0.06850  Biso   1.000  C
  H61      1.0000 0.56330  0.10970  0.87410  Biso   1.000  H
  H62      1.0000 0.43670  0.89030  0.12590  Biso   1.000  H
  C77      1.0000 0.50900  0.10280  0.97630  Biso   1.000  C
  C78      1.0000 0.49100  0.89720  0.02370  Biso   1.000  C
  H63      1.0000 0.45370  0.06540  0.95000  Biso   1.000  H
  H64      1.0000 0.54630  0.93460  0.05000  Biso   1.000  H
  C79      1.0000 0.52260  0.13280  0.06070  Biso   1.000  C
  C80      1.0000 0.47740  0.86720  0.93930  Biso   1.000  C
  H65      1.0000 0.47510  0.11770  0.09240  Biso   1.000  H
  H66      1.0000 0.52490  0.88230  0.90760  Biso   1.000  H
  C81      1.0000 0.60570  0.18490  0.09910  Biso   1.000  C
  C82      1.0000 0.39430  0.81510  0.90090  Biso   1.000  C
  H67      1.0000 0.61470  0.20550  0.15690  Biso   1.000  H
  H68      1.0000 0.38530  0.79450  0.84310  Biso   1.000  H
  C83      1.0000 0.82190  0.25460  0.18440  Biso   1.000  C
  C84      1.0000 0.17810  0.74540  0.81560  Biso   1.000  C
  C85      1.0000 0.82040  0.17360  0.18030  Biso   1.000  C
  C86      1.0000 0.17960  0.82640  0.81970  Biso   1.000  C
  H69      1.0000 0.79380  0.12910  0.13260  Biso   1.000  H
  H70      1.0000 0.20620  0.87090  0.86740  Biso   1.000  H
  C87      1.0000 0.85810  0.15700  0.24610  Biso   1.000  C
  C88      1.0000 0.14190  0.84300  0.75390  Biso   1.000  C
  H71      1.0000 0.85850  0.10120  0.24220  Biso   1.000  H
  H72      1.0000 0.14150  0.89880  0.75780  Biso   1.000  H
  C89      1.0000 0.89380  0.22010  0.31520  Biso   1.000  C
  C90      1.0000 0.10620  0.77990  0.68480  Biso   1.000  C
  H73      1.0000 0.92020  0.20840  0.35920  Biso   1.000  H
  H74      1.0000 0.07980  0.79160  0.64080  Biso   1.000  H
  C91      1.0000 0.89230  0.29940  0.32180  Biso   1.000  C
  C92      1.0000 0.10770  0.70060  0.67820  Biso   1.000  C
  H75      1.0000 0.91360  0.34320  0.37190  Biso   1.000  H
  H76      1.0000 0.08640  0.65680  0.62810  Biso   1.000  H
  C93      1.0000 0.85970  0.31810  0.25620  Biso   1.000  C
  C94      1.0000 0.14030  0.68190  0.74380  Biso   1.000  C
  H77      1.0000 0.86330  0.37420  0.26040  Biso   1.000  H
  H78      1.0000 0.13670  0.62580  0.73960  Biso   1.000  H
  C95      1.0000 0.41740  0.12810  0.30090  Biso   1.000  C
  C96      1.0000 0.58260  0.87190  0.69910  Biso   1.000  C
  C97      1.0000 0.43480  0.21300  0.33930  Biso   1.000  C
  C98      1.0000 0.56520  0.78700  0.66070  Biso   1.000  C
  H79      1.0000 0.38170  0.24490  0.36220  Biso   1.000  H
  H80      1.0000 0.61830  0.75510  0.63780  Biso   1.000  H
  C99      1.0000 0.52740  0.25350  0.34540  Biso   1.000  C
  C100     1.0000 0.47260  0.74650  0.65460  Biso   1.000  C
  H81      1.0000 0.53700  0.31230  0.37140  Biso   1.000  H
  H82      1.0000 0.46300  0.68770  0.62860  Biso   1.000  H
  C101     1.0000 0.60500  0.20850  0.31380  Biso   1.000  C
  C102     1.0000 0.39500  0.79150  0.68620  Biso   1.000  C
  H83      1.0000 0.66880  0.23580  0.31860  Biso   1.000  H
  H84      1.0000 0.33120  0.76420  0.68140  Biso   1.000  H
  C103     1.0000 0.59050  0.12350  0.27510  Biso   1.000  C
  C104     1.0000 0.40950  0.87650  0.72490  Biso   1.000  C
  H85      1.0000 0.64430  0.09240  0.25280  Biso   1.000  H
  H86      1.0000 0.35570  0.90760  0.74720  Biso   1.000  H
  C105     1.0000 0.49660  0.08240  0.26820  Biso   1.000  C
  C106     1.0000 0.50340  0.91760  0.73180  Biso   1.000  C
  H87      1.0000 0.48700  0.02370  0.24150  Biso   1.000  H
  H88      1.0000 0.51300  0.97630  0.75850  Biso   1.000  H
  C107     1.0000 0.23190  0.07750  0.20550  Biso   1.000  C
  C108     1.0000 0.76810  0.92250  0.79450  Biso   1.000  C
  C109     1.0000 0.28090  0.04910  0.13170  Biso   1.000  C
  C110     1.0000 0.71910  0.95090  0.86830  Biso   1.000  C
  H89      1.0000 0.34740  0.03710  0.13170  Biso   1.000  H
  H90      1.0000 0.65260  0.96290  0.86830  Biso   1.000  H
  C111     1.0000 0.23200  0.03910  0.05970  Biso   1.000  C
  C112     1.0000 0.76800  0.96090  0.94030  Biso   1.000  C
  H91      1.0000 0.26660  0.02290  0.01070  Biso   1.000  H
  H92      1.0000 0.73340  0.97710  0.98930  Biso   1.000  H
  C113     1.0000 0.13510  0.05180  0.05640  Biso   1.000  C
  C114     1.0000 0.86490  0.94820  0.94360  Biso   1.000  C
  H93      1.0000 0.10200  0.04240  0.00570  Biso   1.000  H
  H94      1.0000 0.89800  0.95760  0.99430  Biso   1.000  H
  C115     1.0000 0.08560  0.07890  0.12930  Biso   1.000  C
  C116     1.0000 0.91440  0.92110  0.87070  Biso   1.000  C
  H95      1.0000 0.01800  0.08750  0.12820  Biso   1.000  H
  H96      1.0000 0.98200  0.91250  0.87180  Biso   1.000  H
  C117     1.0000 0.13500  0.09330  0.20330  Biso   1.000  C
  C118     1.0000 0.86500  0.90670  0.79670  Biso   1.000  C
  H97      1.0000 0.10170  0.11420  0.25280  Biso   1.000  H
  H98      1.0000 0.89830  0.88580  0.74720  Biso   1.000  H
  C119     1.0000 0.29910  0.97280  0.28000  Biso   1.000  C
  C120     1.0000 0.70090  0.02720  0.72000  Biso   1.000  C
  C121     1.0000 0.22920  0.91350  0.22780  Biso   1.000  C
  C122     1.0000 0.77080  0.08650  0.77220  Biso   1.000  C
  H99      1.0000 0.18170  0.92980  0.19840  Biso   1.000  H
  H100     1.0000 0.81830  0.07020  0.80160  Biso   1.000  H
  C123     1.0000 0.22860  0.83020  0.21830  Biso   1.000  C
  C124     1.0000 0.77140  0.16980  0.78170  Biso   1.000  C
  H101     1.0000 0.17970  0.79030  0.18380  Biso   1.000  H
  H102     1.0000 0.82030  0.20970  0.81620  Biso   1.000  H
  C125     1.0000 0.29880  0.80600  0.25910  Biso   1.000  C
  C126     1.0000 0.70120  0.19400  0.74090  Biso   1.000  C
  H103     1.0000 0.29910  0.74920  0.25190  Biso   1.000  H
  H104     1.0000 0.70090  0.25080  0.74810  Biso   1.000  H
  C127     1.0000 0.36850  0.86400  0.31020  Biso   1.000  C
  C128     1.0000 0.63150  0.13600  0.68980  Biso   1.000  C
  H105     1.0000 0.41700  0.84710  0.33830  Biso   1.000  H
  H106     1.0000 0.58300  0.15290  0.66170  Biso   1.000  H
  C129     1.0000 0.36860  0.94680  0.32100  Biso   1.000  C
  C130     1.0000 0.63140  0.05320  0.67900  Biso   1.000  C
  H107     1.0000 0.41670  0.98640  0.35700  Biso   1.000  H
  H108     1.0000 0.58330  0.01360  0.64300  Biso   1.000  H
  C131     1.0000 0.33890  0.83840  0.50840  Biso   1.000  C
  C132     1.0000 0.66110  0.16160  0.49160  Biso   1.000  C
  H109     1.0000 0.32070  0.80750  0.44970  Biso   1.000  H
  H110     1.0000 0.67930  0.19250  0.55030  Biso   1.000  H
  H111     1.0000 0.35970  0.79810  0.53130  Biso   1.000  H
  H112     1.0000 0.64030  0.20190  0.46870  Biso   1.000  H
  C133     1.0000 0.22830  0.26010  0.13800  Biso   1.000  C
  C134     1.0000 0.77170  0.73990  0.86200  Biso   1.000  C
  H113     1.0000 0.22780  0.19940  0.12320  Biso   1.000  H
  H114     1.0000 0.77220  0.80060  0.87680  Biso   1.000  H
  H115     1.0000 0.23350  0.27120  0.08720  Biso   1.000  H
  H116     1.0000 0.76650  0.72880  0.91280  Biso   1.000  H
  C135     1.0000 0.83440  0.56600  0.90500  Biso   1.000  C
  C136     1.0000 0.16560  0.43400  0.09500  Biso   1.000  C
  H117     1.0000 0.88960  0.60810  0.91030  Biso   1.000  H
  H118     1.0000 0.11040  0.39190  0.08970  Biso   1.000  H
  H119     1.0000 0.80900  0.54300  0.84740  Biso   1.000  H
  H120     1.0000 0.19100  0.45700  0.15260  Biso   1.000  H
  N11      1.0000 0.61010  0.39690  0.05560  Biso   1.000  N
  N12      1.0000 0.38990  0.60310  0.94440  Biso   1.000  N
  C137     1.0000 0.63780  0.42410  0.99780  Biso   1.000  C
  C138     1.0000 0.36220  0.57590  0.00220  Biso   1.000  C
  H121     1.0000 0.69150  0.46530  0.00980  Biso   1.000  H
  H122     1.0000 0.30850  0.53470  0.99020  Biso   1.000  H
  C139     1.0000 0.58990  0.39380  0.91800  Biso   1.000  C
  C140     1.0000 0.41010  0.60620  0.08200  Biso   1.000  C
  H123     1.0000 0.61390  0.41220  0.87700  Biso   1.000  H
  H124     1.0000 0.38610  0.58780  0.12300  Biso   1.000  H
  C141     1.0000 0.50830  0.33750  0.90190  Biso   1.000  C
  C142     1.0000 0.49170  0.66250  0.09810  Biso   1.000  C
  C143     1.0000 0.47930  0.31310  0.96390  Biso   1.000  C
  C144     1.0000 0.52070  0.68690  0.03610  Biso   1.000  C
  H125     1.0000 0.42280  0.27520  0.95530  Biso   1.000  H
  H126     1.0000 0.57720  0.72480  0.04470  Biso   1.000  H
  C145     1.0000 0.53030  0.34250  0.03810  Biso   1.000  C
  C146     1.0000 0.46970  0.65750  0.96190  Biso   1.000  C
  H127     1.0000 0.50810  0.32330  0.07910  Biso   1.000  H
  H128     1.0000 0.49190  0.67670  0.92090  Biso   1.000  H
  C147     1.0000 0.45510  0.29670  0.82140  Biso   1.000  C
  C148     1.0000 0.54490  0.70330  0.17860  Biso   1.000  C
  H129     1.0000 0.40220  0.25680  0.81800  Biso   1.000  H
  H130     1.0000 0.59780  0.74320  0.18200  Biso   1.000  H
  C149     1.0000 0.47240  0.30940  0.75630  Biso   1.000  C
  C150     1.0000 0.52760  0.69060  0.24370  Biso   1.000  C
  H131     1.0000 0.52330  0.34960  0.75680  Biso   1.000  H
  H132     1.0000 0.47670  0.65040  0.24320  Biso   1.000  H
  N13      1.0000 0.62760  0.41330  0.04560  Biso   1.000  N
  N14      1.0000 0.37240  0.58670  0.95440  Biso   1.000  N
  C151     1.0000 0.55050  0.35920  0.01840  Biso   1.000  C
  C152     1.0000 0.44950  0.64080  0.98160  Biso   1.000  C
  H133     1.0000 0.52430  0.33370  0.05350  Biso   1.000  H
  H134     1.0000 0.47570  0.66630  0.94650  Biso   1.000  H
  C153     1.0000 0.50420  0.33650  0.94010  Biso   1.000  C
  C154     1.0000 0.49580  0.66350  0.05990  Biso   1.000  C
  H135     1.0000 0.44910  0.29640  0.92320  Biso   1.000  H
  H136     1.0000 0.55090  0.70360  0.07680  Biso   1.000  H
  C155     1.0000 0.53940  0.37280  0.88960  Biso   1.000  C
  C156     1.0000 0.46060  0.62720  0.11040  Biso   1.000  C
  C157     1.0000 0.61930  0.42990  0.91400  Biso   1.000  C
  C158     1.0000 0.38070  0.57010  0.08600  Biso   1.000  C
  H137     1.0000 0.64430  0.45670  0.87960  Biso   1.000  H
  H138     1.0000 0.35570  0.54330  0.12040  Biso   1.000  H
  C159     1.0000 0.66220  0.44720  0.99020  Biso   1.000  C
  C160     1.0000 0.33780  0.55280  0.00980  Biso   1.000  C
  H139     1.0000 0.71940  0.48490  0.00610  Biso   1.000  H
  H140     1.0000 0.28060  0.51510  0.99390  Biso   1.000  H
  C161     1.0000 0.50020  0.34580  0.80240  Biso   1.000  C
  C162     1.0000 0.49980  0.65420  0.19760  Biso   1.000  C
  H141     1.0000 0.51540  0.38030  0.77270  Biso   1.000  H
  H142     1.0000 0.48460  0.61970  0.22730  Biso   1.000  H
  C163     1.0000 0.44280  0.27220  0.76510  Biso   1.000  C
  C164     1.0000 0.55720  0.72780  0.23490  Biso   1.000  C
  H143     1.0000 0.42510  0.23410  0.79030  Biso   1.000  H
  H144     1.0000 0.57490  0.76590  0.20970  Biso   1.000  H
