data_image0
_cell_length_a       13.709
_cell_length_b       17.386
_cell_length_c       17.673
_cell_angle_alpha    111.615
_cell_angle_beta     90.821
_cell_angle_gamma    94.357

_symmetry_space_group_name_H-M    "P 1"
_symmetry_int_tables_number       1

loop_
  _symmetry_equiv_pos_as_xyz
  'x, y, z'

loop_
  _atom_site_label
  _atom_site_occupancy
  _atom_site_fract_x
  _atom_site_fract_y
  _atom_site_fract_z
  _atom_site_thermal_displace_type
  _atom_site_B_iso_or_equiv
  _atom_site_type_symbol
  Cu1      1.0000 0.71985  0.40967  0.14073  Biso   1.000  Cu
  Cu2      1.0000 0.28015  0.59033  0.85927  Biso   1.000  Cu
  Cl1      1.0000 0.23920  0.88280  0.55914  Biso   1.000  Cl
  Cl2      1.0000 0.76080  0.11720  0.44086  Biso   1.000  Cl
  P1       1.0000 0.77404  0.28540  0.10181  Biso   1.000  P
  P2       1.0000 0.22596  0.71460  0.89819  Biso   1.000  P
  F1       1.0000 0.65560  0.35650  0.61140  Biso   1.000  F
  F2       1.0000 0.34440  0.64350  0.38860  Biso   1.000  F
  P3       1.0000 0.75768  0.40422  0.64160  Biso   1.000  P
  P4       1.0000 0.24232  0.59578  0.35840  Biso   1.000  P
  F3       1.0000 0.86120  0.45570  0.67210  Biso   1.000  F
  F4       1.0000 0.13880  0.54430  0.32790  Biso   1.000  F
  C1       1.0000 0.83150  0.57610  0.89930  Biso   1.000  C
  C2       1.0000 0.16850  0.42390  0.10070  Biso   1.000  C
  H1       1.0000 0.88630  0.61860  0.90450  Biso   1.000  H
  H2       1.0000 0.11370  0.38140  0.09550  Biso   1.000  H
  H3       1.0000 0.80330  0.55470  0.84280  Biso   1.000  H
  H4       1.0000 0.19670  0.44530  0.15720  Biso   1.000  H
  Cu3      1.0000 0.22449  0.14681  0.41758  Biso   1.000  Cu
  Cu4      1.0000 0.77551  0.85319  0.58242  Biso   1.000  Cu
  Cl3      1.0000 0.43480  0.91290  0.51860  Biso   1.000  Cl
  Cl4      1.0000 0.56520  0.08710  0.48140  Biso   1.000  Cl
  P5       1.0000 0.29280  0.08507  0.30078  Biso   1.000  P
  P6       1.0000 0.70720  0.91493  0.69922  Biso   1.000  P
  F5       1.0000 0.72530  0.47890  0.62230  Biso   1.000  F
  F6       1.0000 0.27470  0.52110  0.37770  Biso   1.000  F
  N1       1.0000 0.30930  0.18890  0.52560  Biso   1.000  N
  N2       1.0000 0.69070  0.81110  0.47440  Biso   1.000  N
  Cl5      1.0000 0.88250  0.70300  0.81470  Biso   1.000  Cl
  Cl6      1.0000 0.11750  0.29700  0.18530  Biso   1.000  Cl
  F7       1.0000 0.79620  0.37280  0.55030  Biso   1.000  F
  F8       1.0000 0.20380  0.62720  0.44970  Biso   1.000  F
  N3       1.0000 0.81150  0.51660  0.16840  Biso   1.000  N
  N4       1.0000 0.18850  0.48340  0.83160  Biso   1.000  N
  Cl7      1.0000 0.68370  0.69420  0.80520  Biso   1.000  Cl
  Cl8      1.0000 0.31630  0.30580  0.19480  Biso   1.000  Cl
  P7       1.0000 0.73909  0.90452  0.16159  Biso   1.000  P
  P8       1.0000 0.26091  0.09548  0.83841  Biso   1.000  P
  F9       1.0000 0.79950  0.32480  0.64110  Biso   1.000  F
  F10      1.0000 0.20050  0.67520  0.35890  Biso   1.000  F
  N5       1.0000 0.64590  0.45050  0.24900  Biso   1.000  N
  N6       1.0000 0.35410  0.54950  0.75100  Biso   1.000  N
  Cl9      1.0000 0.74510  0.61600  0.96710  Biso   1.000  Cl
  Cl10     1.0000 0.25490  0.38400  0.03290  Biso   1.000  Cl
  F11      1.0000 0.72200  0.43690  0.72670  Biso   1.000  F
  F12      1.0000 0.27800  0.56310  0.27330  Biso   1.000  F
  N7       1.0000 0.14940  0.25140  0.44350  Biso   1.000  N
  N8       1.0000 0.85060  0.74860  0.55650  Biso   1.000  N
  Cl11     1.0000 0.87750  0.48190  0.93040  Biso   1.000  Cl
  Cl12     1.0000 0.12250  0.51810  0.06960  Biso   1.000  Cl
  N9       1.0000 0.11880  0.05480  0.42520  Biso   1.000  N
  N10      1.0000 0.88120  0.94520  0.57480  Biso   1.000  N
  F13      1.0000 0.76720  0.82760  0.18630  Biso   1.000  F
  F14      1.0000 0.23280  0.17240  0.81370  Biso   1.000  F
  F15      1.0000 0.85190  0.92940  0.15600  Biso   1.000  F
  F16      1.0000 0.14810  0.07060  0.84400  Biso   1.000  F
  F17      1.0000 0.73140  0.84620  0.06880  Biso   1.000  F
  F18      1.0000 0.26860  0.15380  0.93120  Biso   1.000  F
  C3       1.0000 0.41080  0.25660  0.67840  Biso   1.000  C
  C4       1.0000 0.58920  0.74340  0.32160  Biso   1.000  C
  F19      1.0000 0.62740  0.88260  0.17210  Biso   1.000  F
  F20      1.0000 0.37260  0.11740  0.82790  Biso   1.000  F
  C5       1.0000 0.41180  0.29640  0.62590  Biso   1.000  C
  C6       1.0000 0.58820  0.70360  0.37410  Biso   1.000  C
  H5       1.0000 0.44800  0.34900  0.64050  Biso   1.000  H
  H6       1.0000 0.55200  0.65100  0.35950  Biso   1.000  H
  F21      1.0000 0.74750  0.96360  0.25590  Biso   1.000  F
  F22      1.0000 0.25250  0.03640  0.74410  Biso   1.000  F
  C7       1.0000 0.36090  0.26220  0.55050  Biso   1.000  C
  C8       1.0000 0.63910  0.73780  0.44950  Biso   1.000  C
  H7       1.0000 0.36330  0.29260  0.51550  Biso   1.000  H
  H8       1.0000 0.63670  0.70740  0.48450  Biso   1.000  H
  F23      1.0000 0.71010  0.98000  0.13760  Biso   1.000  F
  F24      1.0000 0.28990  0.02000  0.86240  Biso   1.000  F
  C9       1.0000 0.30870  0.14970  0.57750  Biso   1.000  C
  C10      1.0000 0.69130  0.85030  0.42250  Biso   1.000  C
  H9       1.0000 0.27250  0.09700  0.56170  Biso   1.000  H
  H10      1.0000 0.72750  0.90300  0.43830  Biso   1.000  H
  C11      1.0000 0.35720  0.18090  0.65270  Biso   1.000  C
  C12      1.0000 0.64280  0.81910  0.34730  Biso   1.000  C
  H11      1.0000 0.35360  0.14970  0.68700  Biso   1.000  H
  H12      1.0000 0.64640  0.85030  0.31300  Biso   1.000  H
  C13      1.0000 0.90660  0.52210  0.19110  Biso   1.000  C
  C14      1.0000 0.09340  0.47790  0.80890  Biso   1.000  C
  H13      1.0000 0.93790  0.47220  0.17820  Biso   1.000  H
  H14      1.0000 0.06210  0.52780  0.82180  Biso   1.000  H
  C15      1.0000 0.96130  0.59660  0.23210  Biso   1.000  C
  C16      1.0000 0.03870  0.40340  0.76790  Biso   1.000  C
  H15      1.0000 0.02820  0.59680  0.24700  Biso   1.000  H
  H16      1.0000 0.97180  0.40320  0.75300  Biso   1.000  H
  C17      1.0000 0.91880  0.67080  0.25150  Biso   1.000  C
  C18      1.0000 0.08120  0.32920  0.74850  Biso   1.000  C
  C19      1.0000 0.82150  0.66550  0.22580  Biso   1.000  C
  C20      1.0000 0.17850  0.33450  0.77420  Biso   1.000  C
  H17      1.0000 0.78930  0.71460  0.23580  Biso   1.000  H
  H18      1.0000 0.21070  0.28540  0.76420  Biso   1.000  H
  C21      1.0000 0.77190  0.58900  0.18590  Biso   1.000  C
  C22      1.0000 0.22810  0.41100  0.81410  Biso   1.000  C
  H19      1.0000 0.70520  0.58730  0.16960  Biso   1.000  H
  H20      1.0000 0.29480  0.41270  0.83040  Biso   1.000  H
  C23      1.0000 0.97680  0.74920  0.29530  Biso   1.000  C
  C24      1.0000 0.02320  0.25080  0.70470  Biso   1.000  C
  H21      1.0000 0.04330  0.74650  0.30930  Biso   1.000  H
  H22      1.0000 0.95670  0.25350  0.69070  Biso   1.000  H
  C25      1.0000 0.54860  0.44850  0.25130  Biso   1.000  C
  C26      1.0000 0.45140  0.55150  0.74870  Biso   1.000  C
  H23      1.0000 0.51230  0.43430  0.20110  Biso   1.000  H
  H24      1.0000 0.48770  0.56570  0.79890  Biso   1.000  H
  C27      1.0000 0.49710  0.46540  0.32030  Biso   1.000  C
  C28      1.0000 0.50290  0.53460  0.67970  Biso   1.000  C
  H25      1.0000 0.42760  0.46310  0.31730  Biso   1.000  H
  H26      1.0000 0.57240  0.53690  0.68270  Biso   1.000  H
  C29      1.0000 0.54700  0.48580  0.39460  Biso   1.000  C
  C30      1.0000 0.45300  0.51420  0.60540  Biso   1.000  C
  C31      1.0000 0.64480  0.49220  0.39490  Biso   1.000  C
  C32      1.0000 0.35520  0.50780  0.60510  Biso   1.000  C
  H27      1.0000 0.68180  0.50860  0.44500  Biso   1.000  H
  H28      1.0000 0.31820  0.49140  0.55500  Biso   1.000  H
  C33      1.0000 0.69430  0.47450  0.32000  Biso   1.000  C
  C34      1.0000 0.30570  0.52550  0.68000  Biso   1.000  C
  H29      1.0000 0.76390  0.48030  0.32170  Biso   1.000  H
  H30      1.0000 0.23610  0.51970  0.67830  Biso   1.000  H
  C35      1.0000 0.47950  0.49870  0.46970  Biso   1.000  C
  C36      1.0000 0.52050  0.50130  0.53030  Biso   1.000  C
  H31      1.0000 0.41130  0.50390  0.46640  Biso   1.000  H
  H32      1.0000 0.58870  0.49610  0.53360  Biso   1.000  H
  C37      1.0000 0.08840  0.27170  0.50490  Biso   1.000  C
  C38      1.0000 0.91160  0.72830  0.49510  Biso   1.000  C
  H33      1.0000 0.07640  0.23420  0.53230  Biso   1.000  H
  H34      1.0000 0.92360  0.76580  0.46770  Biso   1.000  H
  C39      1.0000 0.04220  0.34370  0.53050  Biso   1.000  C
  C40      1.0000 0.95780  0.65630  0.46950  Biso   1.000  C
  H35      1.0000 0.99890  0.35460  0.57410  Biso   1.000  H
  H36      1.0000 0.00110  0.64540  0.42590  Biso   1.000  H
  C41      1.0000 0.05850  0.39990  0.49320  Biso   1.000  C
  C42      1.0000 0.94150  0.60010  0.50680  Biso   1.000  C
  C43      1.0000 0.12300  0.38010  0.43100  Biso   1.000  C
  C44      1.0000 0.87700  0.61990  0.56900  Biso   1.000  C
  H37      1.0000 0.13770  0.41790  0.40450  Biso   1.000  H
  H38      1.0000 0.86230  0.58210  0.59550  Biso   1.000  H
  C45      1.0000 0.16640  0.30650  0.40670  Biso   1.000  C
  C46      1.0000 0.83360  0.69350  0.59330  Biso   1.000  C
  H39      1.0000 0.20950  0.29410  0.36300  Biso   1.000  H
  H40      1.0000 0.79050  0.70590  0.63700  Biso   1.000  H
  C47      1.0000 0.00250  0.47500  0.51920  Biso   1.000  C
  C48      1.0000 0.99750  0.52500  0.48080  Biso   1.000  C
  H41      1.0000 0.96780  0.48690  0.56780  Biso   1.000  H
  H42      1.0000 0.03220  0.51310  0.43220  Biso   1.000  H
  C49      1.0000 0.02780  0.04980  0.39230  Biso   1.000  C
  C50      1.0000 0.97220  0.95020  0.60770  Biso   1.000  C
  H43      1.0000 0.00340  0.09930  0.39170  Biso   1.000  H
  H44      1.0000 0.99660  0.90070  0.60830  Biso   1.000  H
  C51      1.0000 0.96890  0.97680  0.35950  Biso   1.000  C
  C52      1.0000 0.03110  0.02320  0.64050  Biso   1.000  C
  H45      1.0000 0.90550  0.97670  0.33720  Biso   1.000  H
  H46      1.0000 0.09450  0.02330  0.66280  Biso   1.000  H
  C53      1.0000 0.00210  0.90300  0.35910  Biso   1.000  C
  C54      1.0000 0.99790  0.09700  0.64090  Biso   1.000  C
  C55      1.0000 0.09420  0.90870  0.39700  Biso   1.000  C
  C56      1.0000 0.90580  0.09130  0.60300  Biso   1.000  C
  H47      1.0000 0.11910  0.86080  0.40100  Biso   1.000  H
  H48      1.0000 0.88090  0.13920  0.59900  Biso   1.000  H
  C57      1.0000 0.14830  0.98440  0.42840  Biso   1.000  C
  C58      1.0000 0.85170  0.01560  0.57160  Biso   1.000  C
  H49      1.0000 0.21050  0.98680  0.45390  Biso   1.000  H
  H50      1.0000 0.78950  0.01320  0.54610  Biso   1.000  H
  C59      1.0000 0.94390  0.82460  0.31750  Biso   1.000  C
  C60      1.0000 0.05610  0.17540  0.68250  Biso   1.000  C
  H51      1.0000 0.87680  0.82710  0.30510  Biso   1.000  H
  H52      1.0000 0.12320  0.17290  0.69490  Biso   1.000  H
  C61      1.0000 0.86960  0.26290  0.02800  Biso   1.000  C
  C62      1.0000 0.13040  0.73710  0.97200  Biso   1.000  C
  C63      1.0000 0.90400  0.32490  0.99980  Biso   1.000  C
  C64      1.0000 0.09600  0.67510  0.00020  Biso   1.000  C
  H53      1.0000 0.87670  0.37690  0.01850  Biso   1.000  H
  H54      1.0000 0.12330  0.62310  0.98150  Biso   1.000  H
  C65      1.0000 0.97840  0.31050  0.94440  Biso   1.000  C
  C66      1.0000 0.02160  0.68950  0.05560  Biso   1.000  C
  H55      1.0000 0.00270  0.35330  0.92650  Biso   1.000  H
  H56      1.0000 0.99730  0.64670  0.07350  Biso   1.000  H
  C67      1.0000 0.01650  0.23510  0.91570  Biso   1.000  C
  C68      1.0000 0.98350  0.76490  0.08430  Biso   1.000  C
  H57      1.0000 0.06800  0.22590  0.87890  Biso   1.000  H
  H58      1.0000 0.93200  0.77410  0.12110  Biso   1.000  H
  C69      1.0000 0.98020  0.17330  0.94010  Biso   1.000  C
  C70      1.0000 0.01980  0.82670  0.05990  Biso   1.000  C
  H59      1.0000 0.00530  0.12040  0.91860  Biso   1.000  H
  H60      1.0000 0.99470  0.87960  0.08140  Biso   1.000  H
  C71      1.0000 0.90720  0.18640  0.99600  Biso   1.000  C
  C72      1.0000 0.09280  0.81360  0.00400  Biso   1.000  C
  H61      1.0000 0.88280  0.14250  0.01230  Biso   1.000  H
  H62      1.0000 0.11720  0.85750  0.98770  Biso   1.000  H
  C73      1.0000 0.67420  0.20640  0.05180  Biso   1.000  C
  C74      1.0000 0.32580  0.79360  0.94820  Biso   1.000  C
  C75      1.0000 0.65880  0.17750  0.96780  Biso   1.000  C
  C76      1.0000 0.34120  0.82250  0.03220  Biso   1.000  C
  H63      1.0000 0.70590  0.19210  0.93540  Biso   1.000  H
  H64      1.0000 0.29410  0.80790  0.06460  Biso   1.000  H
  C77      1.0000 0.57450  0.12710  0.93110  Biso   1.000  C
  C78      1.0000 0.42550  0.87290  0.06890  Biso   1.000  C
  H65      1.0000 0.56320  0.10870  0.87380  Biso   1.000  H
  H66      1.0000 0.43680  0.89130  0.12620  Biso   1.000  H
  C79      1.0000 0.50730  0.10390  0.97730  Biso   1.000  C
  C80      1.0000 0.49270  0.89610  0.02270  Biso   1.000  C
  H67      1.0000 0.45160  0.06700  0.95180  Biso   1.000  H
  H68      1.0000 0.54840  0.93300  0.04820  Biso   1.000  H
  C81      1.0000 0.52120  0.13470  0.06170  Biso   1.000  C
  C82      1.0000 0.47880  0.86530  0.93830  Biso   1.000  C
  H69      1.0000 0.47310  0.12090  0.09380  Biso   1.000  H
  H70      1.0000 0.52690  0.87910  0.90620  Biso   1.000  H
  C83      1.0000 0.60600  0.18590  0.09970  Biso   1.000  C
  C84      1.0000 0.39400  0.81410  0.90030  Biso   1.000  C
  H71      1.0000 0.61620  0.20620  0.15730  Biso   1.000  H
  H72      1.0000 0.38380  0.79380  0.84270  Biso   1.000  H
  C85      1.0000 0.82310  0.25490  0.18210  Biso   1.000  C
  C86      1.0000 0.17690  0.74510  0.81790  Biso   1.000  C
  C87      1.0000 0.82000  0.17330  0.17940  Biso   1.000  C
  C88      1.0000 0.18000  0.82670  0.82060  Biso   1.000  C
  H73      1.0000 0.79120  0.12900  0.13290  Biso   1.000  H
  H74      1.0000 0.20880  0.87100  0.86710  Biso   1.000  H
  C89      1.0000 0.85860  0.15630  0.24400  Biso   1.000  C
  C90      1.0000 0.14140  0.84370  0.75600  Biso   1.000  C
  H75      1.0000 0.85800  0.10040  0.24060  Biso   1.000  H
  H76      1.0000 0.14200  0.89960  0.75940  Biso   1.000  H
  C91      1.0000 0.89780  0.21980  0.31290  Biso   1.000  C
  C92      1.0000 0.10220  0.78020  0.68710  Biso   1.000  C
  H77      1.0000 0.92440  0.20810  0.35700  Biso   1.000  H
  H78      1.0000 0.07560  0.79190  0.64300  Biso   1.000  H
  C93      1.0000 0.89830  0.29810  0.31710  Biso   1.000  C
  C94      1.0000 0.10170  0.70190  0.68290  Biso   1.000  C
  H79      1.0000 0.92330  0.34190  0.36560  Biso   1.000  H
  H80      1.0000 0.07670  0.65810  0.63440  Biso   1.000  H
  C95      1.0000 0.86290  0.31770  0.25210  Biso   1.000  C
  C96      1.0000 0.13710  0.68230  0.74790  Biso   1.000  C
  H81      1.0000 0.86620  0.37380  0.25610  Biso   1.000  H
  H82      1.0000 0.13380  0.62620  0.74390  Biso   1.000  H
  C97      1.0000 0.41800  0.12940  0.30030  Biso   1.000  C
  C98      1.0000 0.58200  0.87060  0.69970  Biso   1.000  C
  C99      1.0000 0.43510  0.21390  0.34000  Biso   1.000  C
  C100     1.0000 0.56490  0.78610  0.66000  Biso   1.000  C
  H83      1.0000 0.38260  0.24570  0.36400  Biso   1.000  H
  H84      1.0000 0.61740  0.75430  0.63600  Biso   1.000  H
  C101     1.0000 0.52940  0.25340  0.34550  Biso   1.000  C
  C102     1.0000 0.47060  0.74660  0.65450  Biso   1.000  C
  H85      1.0000 0.53980  0.31200  0.37210  Biso   1.000  H
  H86      1.0000 0.46020  0.68800  0.62790  Biso   1.000  H
  C103     1.0000 0.60720  0.20810  0.31260  Biso   1.000  C
  C104     1.0000 0.39280  0.79190  0.68740  Biso   1.000  C
  H87      1.0000 0.67100  0.23510  0.31640  Biso   1.000  H
  H88      1.0000 0.32900  0.76490  0.68360  Biso   1.000  H
  C105     1.0000 0.59100  0.12390  0.27450  Biso   1.000  C
  C106     1.0000 0.40900  0.87610  0.72550  Biso   1.000  C
  H89      1.0000 0.64440  0.09210  0.25270  Biso   1.000  H
  H90      1.0000 0.35560  0.90790  0.74730  Biso   1.000  H
  C107     1.0000 0.49720  0.08380  0.26720  Biso   1.000  C
  C108     1.0000 0.50280  0.91620  0.73280  Biso   1.000  C
  H91      1.0000 0.48710  0.02530  0.23960  Biso   1.000  H
  H92      1.0000 0.51290  0.97470  0.76040  Biso   1.000  H
  C109     1.0000 0.23340  0.08070  0.20560  Biso   1.000  C
  C110     1.0000 0.76660  0.91930  0.79440  Biso   1.000  C
  C111     1.0000 0.28140  0.05190  0.13180  Biso   1.000  C
  C112     1.0000 0.71860  0.94810  0.86820  Biso   1.000  C
  H93      1.0000 0.34710  0.03810  0.13120  Biso   1.000  H
  H94      1.0000 0.65290  0.96190  0.86880  Biso   1.000  H
  C113     1.0000 0.23200  0.04380  0.05990  Biso   1.000  C
  C114     1.0000 0.76800  0.95620  0.94010  Biso   1.000  C
  H95      1.0000 0.26500  0.02520  0.01020  Biso   1.000  H
  H96      1.0000 0.73500  0.97480  0.98980  Biso   1.000  H
  C115     1.0000 0.13650  0.06220  0.05910  Biso   1.000  C
  C116     1.0000 0.86350  0.93780  0.94090  Biso   1.000  C
  H97      1.0000 0.10330  0.05580  0.00930  Biso   1.000  H
  H98      1.0000 0.89670  0.94420  0.99070  Biso   1.000  H
  C117     1.0000 0.08970  0.08990  0.13110  Biso   1.000  C
  C118     1.0000 0.91030  0.91010  0.86890  Biso   1.000  C
  H99      1.0000 0.02340  0.10220  0.13060  Biso   1.000  H
  H100     1.0000 0.97660  0.89780  0.86940  Biso   1.000  H
  C119     1.0000 0.13740  0.10050  0.20480  Biso   1.000  C
  C120     1.0000 0.86260  0.89950  0.79520  Biso   1.000  C
  H101     1.0000 0.10430  0.12110  0.25430  Biso   1.000  H
  H102     1.0000 0.89570  0.87890  0.74570  Biso   1.000  H
  C121     1.0000 0.29920  0.97390  0.27950  Biso   1.000  C
  C122     1.0000 0.70080  0.02610  0.72050  Biso   1.000  C
  C123     1.0000 0.22970  0.91460  0.22830  Biso   1.000  C
  C124     1.0000 0.77030  0.08540  0.77170  Biso   1.000  C
  H103     1.0000 0.18220  0.93100  0.19890  Biso   1.000  H
  H104     1.0000 0.81780  0.06900  0.80110  Biso   1.000  H
  C125     1.0000 0.22850  0.83320  0.21950  Biso   1.000  C
  C126     1.0000 0.77150  0.16680  0.78050  Biso   1.000  C
  H105     1.0000 0.17890  0.79430  0.18530  Biso   1.000  H
  H106     1.0000 0.82110  0.20570  0.81470  Biso   1.000  H
  C127     1.0000 0.29750  0.80620  0.25900  Biso   1.000  C
  C128     1.0000 0.70250  0.19380  0.74100  Biso   1.000  C
  H107     1.0000 0.29700  0.74920  0.25150  Biso   1.000  H
  H108     1.0000 0.70300  0.25080  0.74850  Biso   1.000  H
  C129     1.0000 0.36800  0.86430  0.31020  Biso   1.000  C
  C130     1.0000 0.63200  0.13570  0.68980  Biso   1.000  C
  H109     1.0000 0.41600  0.84670  0.33820  Biso   1.000  H
  H110     1.0000 0.58400  0.15330  0.66180  Biso   1.000  H
  C131     1.0000 0.36960  0.94820  0.32120  Biso   1.000  C
  C132     1.0000 0.63040  0.05180  0.67880  Biso   1.000  C
  H111     1.0000 0.41800  0.98740  0.35660  Biso   1.000  H
  H112     1.0000 0.58200  0.01260  0.64340  Biso   1.000  H
  C133     1.0000 0.33740  0.83790  0.50860  Biso   1.000  C
  C134     1.0000 0.66260  0.16210  0.49140  Biso   1.000  C
  H113     1.0000 0.31830  0.80810  0.45020  Biso   1.000  H
  H114     1.0000 0.68170  0.19190  0.54980  Biso   1.000  H
  H115     1.0000 0.35850  0.79680  0.53070  Biso   1.000  H
  H116     1.0000 0.64150  0.20320  0.46930  Biso   1.000  H
  C135     1.0000 0.76440  0.73140  0.86780  Biso   1.000  C
  C136     1.0000 0.23560  0.26860  0.13220  Biso   1.000  C
  H117     1.0000 0.75790  0.70920  0.91190  Biso   1.000  H
  H118     1.0000 0.24210  0.29080  0.08810  Biso   1.000  H
  H119     1.0000 0.76310  0.79250  0.89200  Biso   1.000  H
  H120     1.0000 0.23690  0.20750  0.10800  Biso   1.000  H
  N11      1.0000 0.61000  0.39630  0.05580  Biso   1.000  N
  N12      1.0000 0.39000  0.60370  0.94420  Biso   1.000  N
  C137     1.0000 0.64300  0.41990  0.99290  Biso   1.000  C
  C138     1.0000 0.35700  0.58010  0.00710  Biso   1.000  C
  H121     1.0000 0.70130  0.45590  0.00170  Biso   1.000  H
  H122     1.0000 0.29870  0.54410  0.99830  Biso   1.000  H
  C139     1.0000 0.59200  0.39170  0.91600  Biso   1.000  C
  C140     1.0000 0.40800  0.60830  0.08400  Biso   1.000  C
  H123     1.0000 0.61460  0.41010  0.87450  Biso   1.000  H
  H124     1.0000 0.38540  0.58990  0.12550  Biso   1.000  H
  C141     1.0000 0.50840  0.33680  0.90180  Biso   1.000  C
  C142     1.0000 0.49160  0.66320  0.09820  Biso   1.000  C
  C143     1.0000 0.47760  0.31250  0.96490  Biso   1.000  C
  C144     1.0000 0.52240  0.68750  0.03510  Biso   1.000  C
  H125     1.0000 0.42000  0.27610  0.95770  Biso   1.000  H
  H126     1.0000 0.58000  0.72390  0.04230  Biso   1.000  H
  C145     1.0000 0.53280  0.34250  0.04010  Biso   1.000  C
  C146     1.0000 0.46720  0.65750  0.95990  Biso   1.000  C
  H127     1.0000 0.51280  0.32260  0.08130  Biso   1.000  H
  H128     1.0000 0.48720  0.67740  0.91870  Biso   1.000  H
  C147     1.0000 0.45160  0.30190  0.82390  Biso   1.000  C
  C148     1.0000 0.54840  0.69810  0.17610  Biso   1.000  C
  H129     1.0000 0.39270  0.26820  0.82090  Biso   1.000  H
  H130     1.0000 0.60730  0.73180  0.17910  Biso   1.000  H
  C149     1.0000 0.47860  0.31530  0.75570  Biso   1.000  C
  C150     1.0000 0.52140  0.68470  0.24430  Biso   1.000  C
  H131     1.0000 0.53050  0.35410  0.75410  Biso   1.000  H
  H132     1.0000 0.46950  0.64590  0.24590  Biso   1.000  H
  N13      1.0000 0.62950  0.41420  0.04400  Biso   1.000  N
  N14      1.0000 0.37050  0.58580  0.95600  Biso   1.000  N
  C151     1.0000 0.54630  0.35880  0.01820  Biso   1.000  C
  C152     1.0000 0.45370  0.64120  0.98180  Biso   1.000  C
  H133     1.0000 0.51730  0.33630  0.05500  Biso   1.000  H
  H134     1.0000 0.48270  0.66370  0.94500  Biso   1.000  H
  C153     1.0000 0.50500  0.33560  0.94090  Biso   1.000  C
  C154     1.0000 0.49500  0.66440  0.05910  Biso   1.000  C
  H135     1.0000 0.45180  0.29390  0.92350  Biso   1.000  H
  H136     1.0000 0.54820  0.70610  0.07650  Biso   1.000  H
  C155     1.0000 0.54070  0.37300  0.88750  Biso   1.000  C
  C156     1.0000 0.45930  0.62700  0.11250  Biso   1.000  C
  C157     1.0000 0.62040  0.43210  0.91510  Biso   1.000  C
  C158     1.0000 0.37960  0.56790  0.08490  Biso   1.000  C
  H137     1.0000 0.64660  0.45930  0.88120  Biso   1.000  H
  H138     1.0000 0.35340  0.54070  0.11880  Biso   1.000  H
  C159     1.0000 0.66070  0.45060  0.99170  Biso   1.000  C
  C160     1.0000 0.33930  0.54940  0.00830  Biso   1.000  C
  H139     1.0000 0.71440  0.49190  0.00950  Biso   1.000  H
  H140     1.0000 0.28560  0.50810  0.99050  Biso   1.000  H
  C161     1.0000 0.50090  0.34790  0.80330  Biso   1.000  C
  C162     1.0000 0.49910  0.65210  0.19670  Biso   1.000  C
  H141     1.0000 0.51450  0.38450  0.77530  Biso   1.000  H
  H142     1.0000 0.48550  0.61550  0.22470  Biso   1.000  H
  C163     1.0000 0.44830  0.27870  0.76510  Biso   1.000  C
  C164     1.0000 0.55170  0.72130  0.23490  Biso   1.000  C
  H143     1.0000 0.43320  0.24130  0.79200  Biso   1.000  H
  H144     1.0000 0.56680  0.75870  0.20800  Biso   1.000  H
