data_image0
_cell_length_a       9.1945
_cell_length_b       4.2514
_cell_length_c       20.4706
_cell_angle_alpha    90
_cell_angle_beta     96.759
_cell_angle_gamma    90

_symmetry_space_group_name_H-M    "P 1"
_symmetry_int_tables_number       1

loop_
  _symmetry_equiv_pos_as_xyz
  'x, y, z'

loop_
  _atom_site_label
  _atom_site_occupancy
  _atom_site_fract_x
  _atom_site_fract_y
  _atom_site_fract_z
  _atom_site_thermal_displace_type
  _atom_site_B_iso_or_equiv
  _atom_site_type_symbol
  I1       1.0000 0.32190  0.61180  0.16330  Biso   1.000  I
  I2       1.0000 0.17810  0.11180  0.33670  Biso   1.000  I
  I3       1.0000 0.67810  0.38820  0.83670  Biso   1.000  I
  I4       1.0000 0.82190  0.88820  0.66330  Biso   1.000  I
  Cu1      1.0000 0.18640  0.10540  0.20720  Biso   1.000  Cu
  Cu2      1.0000 0.31360  0.60540  0.29280  Biso   1.000  Cu
  Cu3      1.0000 0.81360  0.89460  0.79280  Biso   1.000  Cu
  Cu4      1.0000 0.68640  0.39460  0.70720  Biso   1.000  Cu
  N1       1.0000 0.97230  0.10800  0.16370  Biso   1.000  N
  N2       1.0000 0.52770  0.60800  0.33630  Biso   1.000  N
  N3       1.0000 0.02770  0.89200  0.83630  Biso   1.000  N
  N4       1.0000 0.47230  0.39200  0.66370  Biso   1.000  N
  C1       1.0000 0.93290  0.96400  0.10510  Biso   1.000  C
  C2       1.0000 0.56710  0.46400  0.39490  Biso   1.000  C
  C3       1.0000 0.06710  0.03600  0.89490  Biso   1.000  C
  C4       1.0000 0.43290  0.53600  0.60510  Biso   1.000  C
  C5       1.0000 0.78890  0.95900  0.07580  Biso   1.000  C
  C6       1.0000 0.71110  0.45900  0.42420  Biso   1.000  C
  C7       1.0000 0.21110  0.04100  0.92420  Biso   1.000  C
  C8       1.0000 0.28890  0.54100  0.57580  Biso   1.000  C
  C9       1.0000 0.68540  0.10900  0.10900  Biso   1.000  C
  C10      1.0000 0.81460  0.60900  0.39100  Biso   1.000  C
  C11      1.0000 0.31460  0.89100  0.89100  Biso   1.000  C
  C12      1.0000 0.18540  0.39100  0.60900  Biso   1.000  C
  C13      1.0000 0.72470  0.26000  0.16670  Biso   1.000  C
  C14      1.0000 0.77530  0.76000  0.33330  Biso   1.000  C
  C15      1.0000 0.27530  0.74000  0.83330  Biso   1.000  C
  C16      1.0000 0.22470  0.24000  0.66670  Biso   1.000  C
  C17      1.0000 0.87100  0.25100  0.19250  Biso   1.000  C
  C18      1.0000 0.62900  0.75100  0.30750  Biso   1.000  C
  C19      1.0000 0.12900  0.74900  0.80750  Biso   1.000  C
  C20      1.0000 0.37100  0.24900  0.69250  Biso   1.000  C
  C21      1.0000 0.74700  0.80100  0.00980  Biso   1.000  C
  C22      1.0000 0.75300  0.30100  0.49020  Biso   1.000  C
  C23      1.0000 0.25300  0.19900  0.99020  Biso   1.000  C
  C24      1.0000 0.24700  0.69900  0.50980  Biso   1.000  C
  H1       1.0000 0.00460  0.86460  0.08400  Biso   1.000  H
  H2       1.0000 0.49540  0.36460  0.41600  Biso   1.000  H
  H3       1.0000 0.99540  0.13540  0.91600  Biso   1.000  H
  H4       1.0000 0.50460  0.63540  0.58400  Biso   1.000  H
  H5       1.0000 0.58740  0.10520  0.09150  Biso   1.000  H
  H6       1.0000 0.91260  0.60520  0.40850  Biso   1.000  H
  H7       1.0000 0.41260  0.89480  0.90850  Biso   1.000  H
  H8       1.0000 0.08740  0.39480  0.59150  Biso   1.000  H
  H9       1.0000 0.65590  0.36580  0.18830  Biso   1.000  H
  H10      1.0000 0.84410  0.86580  0.31170  Biso   1.000  H
  H11      1.0000 0.34410  0.63420  0.81170  Biso   1.000  H
  H12      1.0000 0.15590  0.13420  0.68830  Biso   1.000  H
  H13      1.0000 0.89860  0.35180  0.23240  Biso   1.000  H
  H14      1.0000 0.60140  0.85180  0.26760  Biso   1.000  H
  H15      1.0000 0.10140  0.64820  0.76760  Biso   1.000  H
  H16      1.0000 0.39860  0.14820  0.73240  Biso   1.000  H
  H17      1.0000 0.70960  0.95530  0.97800  Biso   1.000  H
  H18      1.0000 0.79040  0.45530  0.52200  Biso   1.000  H
  H19      1.0000 0.29040  0.04470  0.02200  Biso   1.000  H
  H20      1.0000 0.20960  0.54470  0.47800  Biso   1.000  H
  H21      1.0000 0.67350  0.64450  0.01400  Biso   1.000  H
  H22      1.0000 0.82650  0.14450  0.48600  Biso   1.000  H
  H23      1.0000 0.32650  0.35550  0.98600  Biso   1.000  H
  H24      1.0000 0.17350  0.85550  0.51400  Biso   1.000  H
  H25      1.0000 0.83200  0.70240  0.99560  Biso   1.000  H
  H26      1.0000 0.66800  0.20240  0.50440  Biso   1.000  H
  H27      1.0000 0.16800  0.29760  0.00440  Biso   1.000  H
  H28      1.0000 0.33200  0.79760  0.49560  Biso   1.000  H
