data_image0
_cell_length_a       20.0178
_cell_length_b       4.146
_cell_length_c       10.5935
_cell_angle_alpha    90
_cell_angle_beta     118.966
_cell_angle_gamma    90

_symmetry_space_group_name_H-M    "P 1"
_symmetry_int_tables_number       1

loop_
  _symmetry_equiv_pos_as_xyz
  'x, y, z'

loop_
  _atom_site_label
  _atom_site_occupancy
  _atom_site_fract_x
  _atom_site_fract_y
  _atom_site_fract_z
  _atom_site_thermal_displace_type
  _atom_site_B_iso_or_equiv
  _atom_site_type_symbol
  Cu1      1.0000 0.20480  0.50000  0.50770  Biso   1.000  Cu
  Cu2      1.0000 0.79520  0.50000  0.49230  Biso   1.000  Cu
  Cu3      1.0000 0.70480  0.00000  0.50770  Biso   1.000  Cu
  Cu4      1.0000 0.29520  0.00000  0.49230  Biso   1.000  Cu
  N1       1.0000 0.16110  0.50000  0.64810  Biso   1.000  N
  N2       1.0000 0.83890  0.50000  0.35190  Biso   1.000  N
  N3       1.0000 0.66110  0.00000  0.64810  Biso   1.000  N
  N4       1.0000 0.33890  0.00000  0.35190  Biso   1.000  N
  I1       1.0000 0.35480  0.50000  0.66990  Biso   1.000  I
  I2       1.0000 0.64520  0.50000  0.33010  Biso   1.000  I
  I3       1.0000 0.85480  0.00000  0.66990  Biso   1.000  I
  I4       1.0000 0.14520  0.00000  0.33010  Biso   1.000  I
  C1       1.0000 0.19670  0.35800  0.77520  Biso   1.000  C
  C2       1.0000 0.80330  0.35800  0.22480  Biso   1.000  C
  C3       1.0000 0.69670  0.85800  0.77520  Biso   1.000  C
  C4       1.0000 0.30330  0.85800  0.22480  Biso   1.000  C
  C5       1.0000 0.80330  0.64200  0.22480  Biso   1.000  C
  C6       1.0000 0.19670  0.64200  0.77520  Biso   1.000  C
  C7       1.0000 0.30330  0.14200  0.22480  Biso   1.000  C
  C8       1.0000 0.69670  0.14200  0.77520  Biso   1.000  C
  C9       1.0000 0.16810  0.35000  0.87210  Biso   1.000  C
  C10      1.0000 0.83190  0.35000  0.12790  Biso   1.000  C
  C11      1.0000 0.66810  0.85000  0.87210  Biso   1.000  C
  C12      1.0000 0.33190  0.85000  0.12790  Biso   1.000  C
  C13      1.0000 0.83190  0.65000  0.12790  Biso   1.000  C
  C14      1.0000 0.16810  0.65000  0.87210  Biso   1.000  C
  C15      1.0000 0.33190  0.15000  0.12790  Biso   1.000  C
  C16      1.0000 0.66810  0.15000  0.87210  Biso   1.000  C
  C17      1.0000 0.09780  0.50000  0.83280  Biso   1.000  C
  C18      1.0000 0.90220  0.50000  0.16720  Biso   1.000  C
  C19      1.0000 0.59780  0.00000  0.83280  Biso   1.000  C
  C20      1.0000 0.40220  0.00000  0.16720  Biso   1.000  C
  C21      1.0000 0.06070  0.64930  0.70210  Biso   1.000  C
  C22      1.0000 0.93930  0.64930  0.29790  Biso   1.000  C
  C23      1.0000 0.56070  0.14930  0.70210  Biso   1.000  C
  C24      1.0000 0.43930  0.14930  0.29790  Biso   1.000  C
  C25      1.0000 0.93930  0.35070  0.29790  Biso   1.000  C
  C26      1.0000 0.06070  0.35070  0.70210  Biso   1.000  C
  C27      1.0000 0.43930  0.85070  0.29790  Biso   1.000  C
  C28      1.0000 0.56070  0.85070  0.70210  Biso   1.000  C
  C29      1.0000 0.09490  0.65400  0.61140  Biso   1.000  C
  C30      1.0000 0.90510  0.65400  0.38860  Biso   1.000  C
  C31      1.0000 0.59490  0.15400  0.61140  Biso   1.000  C
  C32      1.0000 0.40510  0.15400  0.38860  Biso   1.000  C
  C33      1.0000 0.90510  0.34600  0.38860  Biso   1.000  C
  C34      1.0000 0.09490  0.34600  0.61140  Biso   1.000  C
  C35      1.0000 0.40510  0.84600  0.38860  Biso   1.000  C
  C36      1.0000 0.59490  0.84600  0.61140  Biso   1.000  C
  C37      1.0000 0.06330  0.50000  0.93280  Biso   1.000  C
  C38      1.0000 0.93670  0.50000  0.06720  Biso   1.000  C
  C39      1.0000 0.56330  0.00000  0.93280  Biso   1.000  C
  C40      1.0000 0.43670  0.00000  0.06720  Biso   1.000  C
