data_image0
_cell_length_a       20.857
_cell_length_b       11.656
_cell_length_c       15.53
_cell_angle_alpha    90
_cell_angle_beta     119.42
_cell_angle_gamma    90

_symmetry_space_group_name_H-M    "P 1"
_symmetry_int_tables_number       1

loop_
  _symmetry_equiv_pos_as_xyz
  'x, y, z'

loop_
  _atom_site_label
  _atom_site_occupancy
  _atom_site_fract_x
  _atom_site_fract_y
  _atom_site_fract_z
  _atom_site_thermal_displace_type
  _atom_site_B_iso_or_equiv
  _atom_site_type_symbol
  C1       1.0000 0.08530  0.35220  0.05460  Biso   1.000  C
  C2       1.0000 0.58530  0.85220  0.05460  Biso   1.000  C
  C3       1.0000 0.91470  0.35220  0.44540  Biso   1.000  C
  C4       1.0000 0.41470  0.85220  0.44540  Biso   1.000  C
  C5       1.0000 0.91470  0.64780  0.94540  Biso   1.000  C
  C6       1.0000 0.41470  0.14780  0.94540  Biso   1.000  C
  C7       1.0000 0.08530  0.64780  0.55460  Biso   1.000  C
  C8       1.0000 0.58530  0.14780  0.55460  Biso   1.000  C
  H1       1.0000 0.06020  0.42760  0.03570  Biso   1.000  H
  H2       1.0000 0.56020  0.92760  0.03570  Biso   1.000  H
  H3       1.0000 0.93980  0.42760  0.46430  Biso   1.000  H
  H4       1.0000 0.43980  0.92760  0.46430  Biso   1.000  H
  H5       1.0000 0.93980  0.57240  0.96430  Biso   1.000  H
  H6       1.0000 0.43980  0.07240  0.96430  Biso   1.000  H
  H7       1.0000 0.06020  0.57240  0.53570  Biso   1.000  H
  H8       1.0000 0.56020  0.07240  0.53570  Biso   1.000  H
  H9       1.0000 0.04660  0.29230  0.02960  Biso   1.000  H
  H10      1.0000 0.54660  0.79230  0.02960  Biso   1.000  H
  H11      1.0000 0.95340  0.29230  0.47040  Biso   1.000  H
  H12      1.0000 0.45340  0.79230  0.47040  Biso   1.000  H
  H13      1.0000 0.95340  0.70770  0.97040  Biso   1.000  H
  H14      1.0000 0.45340  0.20770  0.97040  Biso   1.000  H
  H15      1.0000 0.04660  0.70770  0.52960  Biso   1.000  H
  H16      1.0000 0.54660  0.20770  0.52960  Biso   1.000  H
  C9       1.0000 0.14800  0.19500  0.21550  Biso   1.000  C
  C10      1.0000 0.64800  0.69500  0.21550  Biso   1.000  C
  C11      1.0000 0.85200  0.19500  0.28450  Biso   1.000  C
  C12      1.0000 0.35200  0.69500  0.28450  Biso   1.000  C
  C13      1.0000 0.85200  0.80500  0.78450  Biso   1.000  C
  C14      1.0000 0.35200  0.30500  0.78450  Biso   1.000  C
  C15      1.0000 0.14800  0.80500  0.71550  Biso   1.000  C
  C16      1.0000 0.64800  0.30500  0.71550  Biso   1.000  C
  C17      1.0000 0.21570  0.16160  0.29210  Biso   1.000  C
  C18      1.0000 0.71570  0.66160  0.29210  Biso   1.000  C
  C19      1.0000 0.78430  0.16160  0.20790  Biso   1.000  C
  C20      1.0000 0.28430  0.66160  0.20790  Biso   1.000  C
  C21      1.0000 0.78430  0.83840  0.70790  Biso   1.000  C
  C22      1.0000 0.28430  0.33840  0.70790  Biso   1.000  C
  C23      1.0000 0.21570  0.83840  0.79210  Biso   1.000  C
  C24      1.0000 0.71570  0.33840  0.79210  Biso   1.000  C
  H17      1.0000 0.25290  0.21730  0.32690  Biso   1.000  H
  H18      1.0000 0.75290  0.71730  0.32690  Biso   1.000  H
  H19      1.0000 0.74710  0.21730  0.17310  Biso   1.000  H
  H20      1.0000 0.24710  0.71730  0.17310  Biso   1.000  H
  H21      1.0000 0.74710  0.78270  0.67310  Biso   1.000  H
  H22      1.0000 0.24710  0.28270  0.67310  Biso   1.000  H
  H23      1.0000 0.25290  0.78270  0.82690  Biso   1.000  H
  H24      1.0000 0.75290  0.28270  0.82690  Biso   1.000  H
  C25      1.0000 0.22910  0.04820  0.31800  Biso   1.000  C
  C26      1.0000 0.72910  0.54820  0.31800  Biso   1.000  C
  C27      1.0000 0.77090  0.04820  0.18200  Biso   1.000  C
  C28      1.0000 0.27090  0.54820  0.18200  Biso   1.000  C
  C29      1.0000 0.77090  0.95180  0.68200  Biso   1.000  C
  C30      1.0000 0.27090  0.45180  0.68200  Biso   1.000  C
  C31      1.0000 0.22910  0.95180  0.81800  Biso   1.000  C
  C32      1.0000 0.72910  0.45180  0.81800  Biso   1.000  C
  H25      1.0000 0.27540  0.02640  0.37180  Biso   1.000  H
  H26      1.0000 0.77540  0.52640  0.37180  Biso   1.000  H
  H27      1.0000 0.72460  0.02640  0.12820  Biso   1.000  H
  H28      1.0000 0.22460  0.52640  0.12820  Biso   1.000  H
  H29      1.0000 0.72460  0.97360  0.62820  Biso   1.000  H
  H30      1.0000 0.22460  0.47360  0.62820  Biso   1.000  H
  H31      1.0000 0.27540  0.97360  0.87180  Biso   1.000  H
  H32      1.0000 0.77540  0.47360  0.87180  Biso   1.000  H
  C33      1.0000 0.17720  0.96560  0.26780  Biso   1.000  C
  C34      1.0000 0.67720  0.46560  0.26780  Biso   1.000  C
  C35      1.0000 0.82280  0.96560  0.23220  Biso   1.000  C
  C36      1.0000 0.32280  0.46560  0.23220  Biso   1.000  C
  C37      1.0000 0.82280  0.03440  0.73220  Biso   1.000  C
  C38      1.0000 0.32280  0.53440  0.73220  Biso   1.000  C
  C39      1.0000 0.17720  0.03440  0.76780  Biso   1.000  C
  C40      1.0000 0.67720  0.53440  0.76780  Biso   1.000  C
  H33      1.0000 0.18750  0.88710  0.28580  Biso   1.000  H
  H34      1.0000 0.68750  0.38710  0.28580  Biso   1.000  H
  H35      1.0000 0.81250  0.88710  0.21420  Biso   1.000  H
  H36      1.0000 0.31250  0.38710  0.21420  Biso   1.000  H
  H37      1.0000 0.81250  0.11290  0.71420  Biso   1.000  H
  H38      1.0000 0.31250  0.61290  0.71420  Biso   1.000  H
  H39      1.0000 0.18750  0.11290  0.78580  Biso   1.000  H
  H40      1.0000 0.68750  0.61290  0.78580  Biso   1.000  H
  C41      1.0000 0.10960  0.99860  0.19040  Biso   1.000  C
  C42      1.0000 0.60960  0.49860  0.19040  Biso   1.000  C
  C43      1.0000 0.89040  0.99860  0.30960  Biso   1.000  C
  C44      1.0000 0.39040  0.49860  0.30960  Biso   1.000  C
  C45      1.0000 0.89040  0.00140  0.80960  Biso   1.000  C
  C46      1.0000 0.39040  0.50140  0.80960  Biso   1.000  C
  C47      1.0000 0.10960  0.00140  0.69040  Biso   1.000  C
  C48      1.0000 0.60960  0.50140  0.69040  Biso   1.000  C
  H41      1.0000 0.07310  0.94210  0.15490  Biso   1.000  H
  H42      1.0000 0.57310  0.44210  0.15490  Biso   1.000  H
  H43      1.0000 0.92690  0.94210  0.34510  Biso   1.000  H
  H44      1.0000 0.42690  0.44210  0.34510  Biso   1.000  H
  H45      1.0000 0.92690  0.05790  0.84510  Biso   1.000  H
  H46      1.0000 0.42690  0.55790  0.84510  Biso   1.000  H
  H47      1.0000 0.07310  0.05790  0.65490  Biso   1.000  H
  H48      1.0000 0.57310  0.55790  0.65490  Biso   1.000  H
  C49      1.0000 0.09450  0.11360  0.16420  Biso   1.000  C
  C50      1.0000 0.59450  0.61360  0.16420  Biso   1.000  C
  C51      1.0000 0.90550  0.11360  0.33580  Biso   1.000  C
  C52      1.0000 0.40550  0.61360  0.33580  Biso   1.000  C
  C53      1.0000 0.90550  0.88640  0.83580  Biso   1.000  C
  C54      1.0000 0.40550  0.38640  0.83580  Biso   1.000  C
  C55      1.0000 0.09450  0.88640  0.66420  Biso   1.000  C
  C56      1.0000 0.59450  0.38640  0.66420  Biso   1.000  C
  H49      1.0000 0.04780  0.13590  0.11140  Biso   1.000  H
  H50      1.0000 0.54780  0.63590  0.11140  Biso   1.000  H
  H51      1.0000 0.95220  0.13590  0.38860  Biso   1.000  H
  H52      1.0000 0.45220  0.63590  0.38860  Biso   1.000  H
  H53      1.0000 0.95220  0.86410  0.88860  Biso   1.000  H
  H54      1.0000 0.45220  0.36410  0.88860  Biso   1.000  H
  H55      1.0000 0.04780  0.86410  0.61140  Biso   1.000  H
  H56      1.0000 0.54780  0.36410  0.61140  Biso   1.000  H
  C57      1.0000 0.14810  0.18450  0.99020  Biso   1.000  C
  C58      1.0000 0.64810  0.68450  0.99020  Biso   1.000  C
  C59      1.0000 0.85190  0.18450  0.50980  Biso   1.000  C
  C60      1.0000 0.35190  0.68450  0.50980  Biso   1.000  C
  C61      1.0000 0.85190  0.81550  0.00980  Biso   1.000  C
  C62      1.0000 0.35190  0.31550  0.00980  Biso   1.000  C
  C63      1.0000 0.14810  0.81550  0.49020  Biso   1.000  C
  C64      1.0000 0.64810  0.31550  0.49020  Biso   1.000  C
  C65      1.0000 0.09350  0.11700  0.92200  Biso   1.000  C
  C66      1.0000 0.59350  0.61700  0.92200  Biso   1.000  C
  C67      1.0000 0.90650  0.11700  0.57800  Biso   1.000  C
  C68      1.0000 0.40650  0.61700  0.57800  Biso   1.000  C
  C69      1.0000 0.90650  0.88300  0.07800  Biso   1.000  C
  C70      1.0000 0.40650  0.38300  0.07800  Biso   1.000  C
  C71      1.0000 0.09350  0.88300  0.42200  Biso   1.000  C
  C72      1.0000 0.59350  0.38300  0.42200  Biso   1.000  C
  H57      1.0000 0.04870  0.15080  0.87350  Biso   1.000  H
  H58      1.0000 0.54870  0.65080  0.87350  Biso   1.000  H
  H59      1.0000 0.95130  0.15080  0.62650  Biso   1.000  H
  H60      1.0000 0.45130  0.65080  0.62650  Biso   1.000  H
  H61      1.0000 0.95130  0.84920  0.12650  Biso   1.000  H
  H62      1.0000 0.45130  0.34920  0.12650  Biso   1.000  H
  H63      1.0000 0.04870  0.84920  0.37350  Biso   1.000  H
  H64      1.0000 0.54870  0.34920  0.37350  Biso   1.000  H
  C73      1.0000 0.10300  0.99780  0.92300  Biso   1.000  C
  C74      1.0000 0.60300  0.49780  0.92300  Biso   1.000  C
  C75      1.0000 0.89700  0.99780  0.57700  Biso   1.000  C
  C76      1.0000 0.39700  0.49780  0.57700  Biso   1.000  C
  C77      1.0000 0.89700  0.00220  0.07700  Biso   1.000  C
  C78      1.0000 0.39700  0.50220  0.07700  Biso   1.000  C
  C79      1.0000 0.10300  0.00220  0.42300  Biso   1.000  C
  C80      1.0000 0.60300  0.50220  0.42300  Biso   1.000  C
  H65      1.0000 0.06500  0.95080  0.87500  Biso   1.000  H
  H66      1.0000 0.56500  0.45080  0.87500  Biso   1.000  H
  H67      1.0000 0.93500  0.95080  0.62500  Biso   1.000  H
  H68      1.0000 0.43500  0.45080  0.62500  Biso   1.000  H
  H69      1.0000 0.93500  0.04920  0.12500  Biso   1.000  H
  H70      1.0000 0.43500  0.54920  0.12500  Biso   1.000  H
  H71      1.0000 0.06500  0.04920  0.37500  Biso   1.000  H
  H72      1.0000 0.56500  0.54920  0.37500  Biso   1.000  H
  C81      1.0000 0.16820  0.94900  0.99450  Biso   1.000  C
  C82      1.0000 0.66820  0.44900  0.99450  Biso   1.000  C
  C83      1.0000 0.83180  0.94900  0.50550  Biso   1.000  C
  C84      1.0000 0.33180  0.44900  0.50550  Biso   1.000  C
  C85      1.0000 0.83180  0.05100  0.00550  Biso   1.000  C
  C86      1.0000 0.33180  0.55100  0.00550  Biso   1.000  C
  C87      1.0000 0.16820  0.05100  0.49450  Biso   1.000  C
  C88      1.0000 0.66820  0.55100  0.49450  Biso   1.000  C
  H73      1.0000 0.17440  0.86810  0.99630  Biso   1.000  H
  H74      1.0000 0.67440  0.36810  0.99630  Biso   1.000  H
  H75      1.0000 0.82560  0.86810  0.50370  Biso   1.000  H
  H76      1.0000 0.32560  0.36810  0.50370  Biso   1.000  H
  H77      1.0000 0.82560  0.13190  0.00370  Biso   1.000  H
  H78      1.0000 0.32560  0.63190  0.00370  Biso   1.000  H
  H79      1.0000 0.17440  0.13190  0.49630  Biso   1.000  H
  H80      1.0000 0.67440  0.63190  0.49630  Biso   1.000  H
  C89      1.0000 0.22410  0.01690  0.06290  Biso   1.000  C
  C90      1.0000 0.72410  0.51690  0.06290  Biso   1.000  C
  C91      1.0000 0.77590  0.01690  0.43710  Biso   1.000  C
  C92      1.0000 0.27590  0.51690  0.43710  Biso   1.000  C
  C93      1.0000 0.77590  0.98310  0.93710  Biso   1.000  C
  C94      1.0000 0.27590  0.48310  0.93710  Biso   1.000  C
  C95      1.0000 0.22410  0.98310  0.56290  Biso   1.000  C
  C96      1.0000 0.72410  0.48310  0.56290  Biso   1.000  C
  H81      1.0000 0.26940  0.98330  0.11010  Biso   1.000  H
  H82      1.0000 0.76940  0.48330  0.11010  Biso   1.000  H
  H83      1.0000 0.73060  0.98330  0.38990  Biso   1.000  H
  H84      1.0000 0.23060  0.48330  0.38990  Biso   1.000  H
  H85      1.0000 0.73060  0.01670  0.88990  Biso   1.000  H
  H86      1.0000 0.23060  0.51670  0.88990  Biso   1.000  H
  H87      1.0000 0.26940  0.01670  0.61010  Biso   1.000  H
  H88      1.0000 0.76940  0.51670  0.61010  Biso   1.000  H
  C97      1.0000 0.21410  0.13520  0.06270  Biso   1.000  C
  C98      1.0000 0.71410  0.63520  0.06270  Biso   1.000  C
  C99      1.0000 0.78590  0.13520  0.43730  Biso   1.000  C
  C100     1.0000 0.28590  0.63520  0.43730  Biso   1.000  C
  C101     1.0000 0.78590  0.86480  0.93730  Biso   1.000  C
  C102     1.0000 0.28590  0.36480  0.93730  Biso   1.000  C
  C103     1.0000 0.21410  0.86480  0.56270  Biso   1.000  C
  C104     1.0000 0.71410  0.36480  0.56270  Biso   1.000  C
  H89      1.0000 0.25170  0.18210  0.11140  Biso   1.000  H
  H90      1.0000 0.75170  0.68210  0.11140  Biso   1.000  H
  H91      1.0000 0.74830  0.18210  0.38860  Biso   1.000  H
  H92      1.0000 0.24830  0.68210  0.38860  Biso   1.000  H
  H93      1.0000 0.74830  0.81790  0.88860  Biso   1.000  H
  H94      1.0000 0.24830  0.31790  0.88860  Biso   1.000  H
  H95      1.0000 0.25170  0.81790  0.61140  Biso   1.000  H
  H96      1.0000 0.75170  0.31790  0.61140  Biso   1.000  H
  Cu1      1.0000 0.05241  0.42088  0.22677  Biso   1.000  Cu
  Cu2      1.0000 0.55241  0.92088  0.22677  Biso   1.000  Cu
  Cu3      1.0000 0.94759  0.42088  0.27323  Biso   1.000  Cu
  Cu4      1.0000 0.44759  0.92088  0.27323  Biso   1.000  Cu
  Cu5      1.0000 0.94759  0.57912  0.77323  Biso   1.000  Cu
  Cu6      1.0000 0.44759  0.07912  0.77323  Biso   1.000  Cu
  Cu7      1.0000 0.05241  0.57912  0.72677  Biso   1.000  Cu
  Cu8      1.0000 0.55241  0.07912  0.72677  Biso   1.000  Cu
  Cu9      1.0000 0.94420  0.59027  0.15760  Biso   1.000  Cu
  Cu10     1.0000 0.44420  0.09027  0.15760  Biso   1.000  Cu
  Cu11     1.0000 0.05580  0.59027  0.34240  Biso   1.000  Cu
  Cu12     1.0000 0.55580  0.09027  0.34240  Biso   1.000  Cu
  Cu13     1.0000 0.05580  0.40973  0.84240  Biso   1.000  Cu
  Cu14     1.0000 0.55580  0.90973  0.84240  Biso   1.000  Cu
  Cu15     1.0000 0.94420  0.40973  0.65760  Biso   1.000  Cu
  Cu16     1.0000 0.44420  0.90973  0.65760  Biso   1.000  Cu
  I1       1.0000 0.91617  0.36482  0.09313  Biso   1.000  I
  I2       1.0000 0.41617  0.86482  0.09313  Biso   1.000  I
  I3       1.0000 0.08383  0.36482  0.40687  Biso   1.000  I
  I4       1.0000 0.58383  0.86482  0.40687  Biso   1.000  I
  I5       1.0000 0.08383  0.63518  0.90687  Biso   1.000  I
  I6       1.0000 0.58383  0.13518  0.90687  Biso   1.000  I
  I7       1.0000 0.91617  0.63518  0.59313  Biso   1.000  I
  I8       1.0000 0.41617  0.13518  0.59313  Biso   1.000  I
  I9       1.0000 0.08140  0.64505  0.19927  Biso   1.000  I
  I10      1.0000 0.58140  0.14505  0.19927  Biso   1.000  I
  I11      1.0000 0.91860  0.64505  0.30073  Biso   1.000  I
  I12      1.0000 0.41860  0.14505  0.30073  Biso   1.000  I
  I13      1.0000 0.91860  0.35495  0.80073  Biso   1.000  I
  I14      1.0000 0.41860  0.85495  0.80073  Biso   1.000  I
  I15      1.0000 0.08140  0.35495  0.69927  Biso   1.000  I
  I16      1.0000 0.58140  0.85495  0.69927  Biso   1.000  I
  S1       1.0000 0.13647  0.34358  0.18872  Biso   1.000  S
  S2       1.0000 0.63647  0.84358  0.18872  Biso   1.000  S
  S3       1.0000 0.86353  0.34358  0.31128  Biso   1.000  S
  S4       1.0000 0.36353  0.84358  0.31128  Biso   1.000  S
  S5       1.0000 0.86353  0.65642  0.81128  Biso   1.000  S
  S6       1.0000 0.36353  0.15642  0.81128  Biso   1.000  S
  S7       1.0000 0.13647  0.65642  0.68872  Biso   1.000  S
  S8       1.0000 0.63647  0.15642  0.68872  Biso   1.000  S
  S9       1.0000 0.13947  0.33535  0.99385  Biso   1.000  S
  S10      1.0000 0.63947  0.83535  0.99385  Biso   1.000  S
  S11      1.0000 0.86053  0.33535  0.50615  Biso   1.000  S
  S12      1.0000 0.36053  0.83535  0.50615  Biso   1.000  S
  S13      1.0000 0.86053  0.66465  0.00615  Biso   1.000  S
  S14      1.0000 0.36053  0.16465  0.00615  Biso   1.000  S
  S15      1.0000 0.13947  0.66465  0.49385  Biso   1.000  S
  S16      1.0000 0.63947  0.16465  0.49385  Biso   1.000  S
