data_image0
_cell_length_a       9.4711
_cell_length_b       7.928
_cell_length_c       19.632
_cell_angle_alpha    90
_cell_angle_beta     97.78
_cell_angle_gamma    90

_symmetry_space_group_name_H-M    "P 1"
_symmetry_int_tables_number       1

loop_
  _symmetry_equiv_pos_as_xyz
  'x, y, z'

loop_
  _atom_site_label
  _atom_site_occupancy
  _atom_site_fract_x
  _atom_site_fract_y
  _atom_site_fract_z
  _atom_site_thermal_displace_type
  _atom_site_B_iso_or_equiv
  _atom_site_type_symbol
  C1       1.0000 0.71900  0.92450  0.92480  Biso   1.000  C
  C2       1.0000 0.78100  0.42450  0.57520  Biso   1.000  C
  C3       1.0000 0.28100  0.07550  0.07520  Biso   1.000  C
  C4       1.0000 0.21900  0.57550  0.42480  Biso   1.000  C
  C5       1.0000 0.60210  0.03030  0.92060  Biso   1.000  C
  C6       1.0000 0.89790  0.53030  0.57940  Biso   1.000  C
  C7       1.0000 0.39790  0.96970  0.07940  Biso   1.000  C
  C8       1.0000 0.10210  0.46970  0.42060  Biso   1.000  C
  H1       1.0000 0.56800  0.06840  0.96120  Biso   1.000  H
  H2       1.0000 0.93200  0.56840  0.53880  Biso   1.000  H
  H3       1.0000 0.43200  0.93160  0.03880  Biso   1.000  H
  H4       1.0000 0.06800  0.43160  0.46120  Biso   1.000  H
  C9       1.0000 0.53500  0.08050  0.85670  Biso   1.000  C
  C10      1.0000 0.96500  0.58050  0.64330  Biso   1.000  C
  C11      1.0000 0.46500  0.91950  0.14330  Biso   1.000  C
  C12      1.0000 0.03500  0.41950  0.35670  Biso   1.000  C
  H5       1.0000 0.45360  0.15160  0.85350  Biso   1.000  H
  H6       1.0000 0.04640  0.65160  0.64650  Biso   1.000  H
  H7       1.0000 0.54640  0.84840  0.14650  Biso   1.000  H
  H8       1.0000 0.95360  0.34840  0.35350  Biso   1.000  H
  C13      1.0000 0.58580  0.02760  0.79770  Biso   1.000  C
  C14      1.0000 0.91420  0.52760  0.70230  Biso   1.000  C
  C15      1.0000 0.41420  0.97240  0.20230  Biso   1.000  C
  C16      1.0000 0.08580  0.47240  0.29770  Biso   1.000  C
  H9       1.0000 0.54040  0.06390  0.75400  Biso   1.000  H
  H10      1.0000 0.95960  0.56390  0.74600  Biso   1.000  H
  H11      1.0000 0.45960  0.93610  0.24600  Biso   1.000  H
  H12      1.0000 0.04040  0.43610  0.25400  Biso   1.000  H
  C17      1.0000 0.70300  0.92170  0.80210  Biso   1.000  C
  C18      1.0000 0.79700  0.42170  0.69790  Biso   1.000  C
  C19      1.0000 0.29700  0.07830  0.19790  Biso   1.000  C
  C20      1.0000 0.20300  0.57830  0.30210  Biso   1.000  C
  H13      1.0000 0.73810  0.88500  0.76140  Biso   1.000  H
  H14      1.0000 0.76190  0.38500  0.73860  Biso   1.000  H
  H15      1.0000 0.26190  0.11500  0.23860  Biso   1.000  H
  H16      1.0000 0.23810  0.61500  0.26140  Biso   1.000  H
  C21      1.0000 0.76850  0.86950  0.86570  Biso   1.000  C
  C22      1.0000 0.73150  0.36950  0.63430  Biso   1.000  C
  C23      1.0000 0.23150  0.13050  0.13430  Biso   1.000  C
  C24      1.0000 0.26850  0.63050  0.36570  Biso   1.000  C
  H17      1.0000 0.84790  0.79540  0.86880  Biso   1.000  H
  H18      1.0000 0.65210  0.29540  0.63120  Biso   1.000  H
  H19      1.0000 0.15210  0.20460  0.13120  Biso   1.000  H
  H20      1.0000 0.34790  0.70460  0.36880  Biso   1.000  H
  C25      1.0000 0.94770  0.00550  0.02513  Biso   1.000  C
  C26      1.0000 0.55230  0.50550  0.47487  Biso   1.000  C
  C27      1.0000 0.05230  0.99450  0.97487  Biso   1.000  C
  C28      1.0000 0.44770  0.49450  0.52513  Biso   1.000  C
  H21      1.0000 0.91020  0.12210  0.02490  Biso   1.000  H
  H22      1.0000 0.58980  0.62210  0.47510  Biso   1.000  H
  H23      1.0000 0.08980  0.87790  0.97510  Biso   1.000  H
  H24      1.0000 0.41020  0.37790  0.52490  Biso   1.000  H
  H25      1.0000 0.99810  0.98260  0.07180  Biso   1.000  H
  H26      1.0000 0.50190  0.48260  0.42820  Biso   1.000  H
  H27      1.0000 0.00190  0.01740  0.92820  Biso   1.000  H
  H28      1.0000 0.49810  0.51740  0.57180  Biso   1.000  H
  C29      1.0000 0.53660  0.41570  0.00174  Biso   1.000  C
  C30      1.0000 0.96340  0.91570  0.49826  Biso   1.000  C
  C31      1.0000 0.46340  0.58430  0.99826  Biso   1.000  C
  C32      1.0000 0.03660  0.08430  0.50174  Biso   1.000  C
  H29      1.0000 0.55370  0.38310  0.95490  Biso   1.000  H
  H30      1.0000 0.94630  0.88310  0.54510  Biso   1.000  H
  H31      1.0000 0.44630  0.61690  0.04510  Biso   1.000  H
  H32      1.0000 0.05370  0.11690  0.45490  Biso   1.000  H
  H33      1.0000 0.47230  0.33040  0.01780  Biso   1.000  H
  H34      1.0000 0.02770  0.83040  0.48220  Biso   1.000  H
  H35      1.0000 0.52770  0.66960  0.98220  Biso   1.000  H
  H36      1.0000 0.97230  0.16960  0.51780  Biso   1.000  H
  C33      1.0000 0.65500  0.47570  0.13835  Biso   1.000  C
  C34      1.0000 0.84500  0.97570  0.36165  Biso   1.000  C
  C35      1.0000 0.34500  0.52430  0.86165  Biso   1.000  C
  C36      1.0000 0.15500  0.02430  0.63835  Biso   1.000  C
  C37      1.0000 0.74530  0.57980  0.18010  Biso   1.000  C
  C38      1.0000 0.75470  0.07980  0.31990  Biso   1.000  C
  C39      1.0000 0.25470  0.42020  0.81990  Biso   1.000  C
  C40      1.0000 0.24530  0.92020  0.68010  Biso   1.000  C
  H37      1.0000 0.82750  0.62550  0.16400  Biso   1.000  H
  H38      1.0000 0.67250  0.12550  0.33600  Biso   1.000  H
  H39      1.0000 0.17250  0.37450  0.83600  Biso   1.000  H
  H40      1.0000 0.32750  0.87450  0.66400  Biso   1.000  H
  C41      1.0000 0.71610  0.61780  0.24550  Biso   1.000  C
  C42      1.0000 0.78390  0.11780  0.25450  Biso   1.000  C
  C43      1.0000 0.28390  0.38220  0.75450  Biso   1.000  C
  C44      1.0000 0.21610  0.88220  0.74550  Biso   1.000  C
  H41      1.0000 0.77940  0.68790  0.27460  Biso   1.000  H
  H42      1.0000 0.72060  0.18790  0.22540  Biso   1.000  H
  H43      1.0000 0.22060  0.31210  0.72540  Biso   1.000  H
  H44      1.0000 0.27940  0.81210  0.77460  Biso   1.000  H
  C45      1.0000 0.59570  0.55440  0.26860  Biso   1.000  C
  C46      1.0000 0.90430  0.05440  0.23140  Biso   1.000  C
  C47      1.0000 0.40430  0.44560  0.73140  Biso   1.000  C
  C48      1.0000 0.09570  0.94560  0.76860  Biso   1.000  C
  H45      1.0000 0.57560  0.58110  0.31350  Biso   1.000  H
  H46      1.0000 0.92440  0.08110  0.18650  Biso   1.000  H
  H47      1.0000 0.42440  0.41890  0.68650  Biso   1.000  H
  H48      1.0000 0.07560  0.91890  0.81350  Biso   1.000  H
  C49      1.0000 0.50440  0.45180  0.22610  Biso   1.000  C
  C50      1.0000 0.99560  0.95180  0.27390  Biso   1.000  C
  C51      1.0000 0.49560  0.54820  0.77390  Biso   1.000  C
  C52      1.0000 0.00440  0.04820  0.72610  Biso   1.000  C
  H49      1.0000 0.42070  0.40930  0.24180  Biso   1.000  H
  H50      1.0000 0.07930  0.90930  0.25820  Biso   1.000  H
  H51      1.0000 0.57930  0.59070  0.75820  Biso   1.000  H
  H52      1.0000 0.92070  0.09070  0.74180  Biso   1.000  H
  C53      1.0000 0.53340  0.41080  0.16160  Biso   1.000  C
  C54      1.0000 0.96660  0.91080  0.33840  Biso   1.000  C
  C55      1.0000 0.46660  0.58920  0.83840  Biso   1.000  C
  C56      1.0000 0.03340  0.08920  0.66160  Biso   1.000  C
  H53      1.0000 0.47100  0.33870  0.13300  Biso   1.000  H
  H54      1.0000 0.02900  0.83870  0.36700  Biso   1.000  H
  H55      1.0000 0.52900  0.66130  0.86700  Biso   1.000  H
  H56      1.0000 0.97100  0.16130  0.63300  Biso   1.000  H
  Cu1      1.0000 0.87714  0.58539  0.01363  Biso   1.000  Cu
  Cu2      1.0000 0.62286  0.08539  0.48637  Biso   1.000  Cu
  Cu3      1.0000 0.12286  0.41461  0.98637  Biso   1.000  Cu
  Cu4      1.0000 0.37714  0.91461  0.51363  Biso   1.000  Cu
  I1       1.0000 0.88509  0.41179  0.90120  Biso   1.000  I
  I2       1.0000 0.61491  0.91179  0.59880  Biso   1.000  I
  I3       1.0000 0.11491  0.58821  0.09880  Biso   1.000  I
  I4       1.0000 0.38509  0.08821  0.40120  Biso   1.000  I
  S1       1.0000 0.79845  0.86015  0.00786  Biso   1.000  S
  S2       1.0000 0.70155  0.36015  0.49214  Biso   1.000  S
  S3       1.0000 0.20155  0.13985  0.99214  Biso   1.000  S
  S4       1.0000 0.29845  0.63985  0.50786  Biso   1.000  S
  S5       1.0000 0.70504  0.41244  0.05824  Biso   1.000  S
  S6       1.0000 0.79496  0.91244  0.44176  Biso   1.000  S
  S7       1.0000 0.29496  0.58756  0.94176  Biso   1.000  S
  S8       1.0000 0.20504  0.08756  0.55824  Biso   1.000  S
