data_image0
_cell_length_a       7.9377
_cell_length_b       9.46
_cell_length_c       10.7491
_cell_angle_alpha    90
_cell_angle_beta     109.494
_cell_angle_gamma    90

_symmetry_space_group_name_H-M    "P 1"
_symmetry_int_tables_number       1

loop_
  _symmetry_equiv_pos_as_xyz
  'x, y, z'

loop_
  _atom_site_label
  _atom_site_occupancy
  _atom_site_fract_x
  _atom_site_fract_y
  _atom_site_fract_z
  _atom_site_thermal_displace_type
  _atom_site_B_iso_or_equiv
  _atom_site_type_symbol
  Cu1      1.0000 0.14966  0.11782  0.07354  Biso   1.000  Cu
  Cu2      1.0000 0.14966  0.38218  0.57354  Biso   1.000  Cu
  Cu3      1.0000 0.85034  0.88218  0.92646  Biso   1.000  Cu
  Cu4      1.0000 0.85034  0.61782  0.42646  Biso   1.000  Cu
  Cl1      1.0000 0.89402  0.07563  0.11617  Biso   1.000  Cl
  Cl2      1.0000 0.89402  0.42437  0.61617  Biso   1.000  Cl
  Cl3      1.0000 0.10598  0.92437  0.88383  Biso   1.000  Cl
  Cl4      1.0000 0.10598  0.57563  0.38383  Biso   1.000  Cl
  N1       1.0000 0.33990  0.00880  0.21030  Biso   1.000  N
  N2       1.0000 0.33990  0.49120  0.71030  Biso   1.000  N
  N3       1.0000 0.66010  0.99120  0.78970  Biso   1.000  N
  N4       1.0000 0.66010  0.50880  0.28970  Biso   1.000  N
  C1       1.0000 0.08090  0.20720  0.45930  Biso   1.000  C
  C2       1.0000 0.08090  0.29280  0.95930  Biso   1.000  C
  C3       1.0000 0.91910  0.79280  0.54070  Biso   1.000  C
  C4       1.0000 0.91910  0.70720  0.04070  Biso   1.000  C
  H1       1.0000 0.01100  0.22240  0.36720  Biso   1.000  H
  H2       1.0000 0.01100  0.27760  0.86720  Biso   1.000  H
  H3       1.0000 0.98900  0.77760  0.63280  Biso   1.000  H
  H4       1.0000 0.98900  0.72240  0.13280  Biso   1.000  H
  H5       1.0000 0.04120  0.12650  0.49790  Biso   1.000  H
  H6       1.0000 0.04120  0.37350  0.99790  Biso   1.000  H
  H7       1.0000 0.95880  0.87350  0.50210  Biso   1.000  H
  H8       1.0000 0.95880  0.62650  0.00210  Biso   1.000  H
  C5       1.0000 0.26110  0.22490  0.49290  Biso   1.000  C
  C6       1.0000 0.26110  0.27510  0.99290  Biso   1.000  C
  C7       1.0000 0.73890  0.77510  0.50710  Biso   1.000  C
  C8       1.0000 0.73890  0.72490  0.00710  Biso   1.000  C
  H9       1.0000 0.30080  0.25620  0.42030  Biso   1.000  H
  H10      1.0000 0.30080  0.24380  0.92030  Biso   1.000  H
  H11      1.0000 0.69920  0.74380  0.57970  Biso   1.000  H
  H12      1.0000 0.69920  0.75620  0.07970  Biso   1.000  H
  C9       1.0000 0.60320  0.85430  0.40260  Biso   1.000  C
  C10      1.0000 0.60320  0.64570  0.90260  Biso   1.000  C
  C11      1.0000 0.39680  0.14570  0.59740  Biso   1.000  C
  C12      1.0000 0.39680  0.35430  0.09740  Biso   1.000  C
  C13      1.0000 0.42650  0.85490  0.39690  Biso   1.000  C
  C14      1.0000 0.42650  0.64510  0.89690  Biso   1.000  C
  C15      1.0000 0.57350  0.14510  0.60310  Biso   1.000  C
  C16      1.0000 0.57350  0.35490  0.10310  Biso   1.000  C
  H13      1.0000 0.39210  0.80240  0.45750  Biso   1.000  H
  H14      1.0000 0.39210  0.69760  0.95750  Biso   1.000  H
  H15      1.0000 0.60790  0.19760  0.54250  Biso   1.000  H
  H16      1.0000 0.60790  0.30240  0.04250  Biso   1.000  H
  C17      1.0000 0.30070  0.93310  0.30170  Biso   1.000  C
  C18      1.0000 0.30070  0.56690  0.80170  Biso   1.000  C
  C19      1.0000 0.69930  0.06690  0.69830  Biso   1.000  C
  C20      1.0000 0.69930  0.43310  0.19830  Biso   1.000  C
  H17      1.0000 0.18340  0.93290  0.30130  Biso   1.000  H
  H18      1.0000 0.18340  0.56710  0.80130  Biso   1.000  H
  H19      1.0000 0.81660  0.06710  0.69870  Biso   1.000  H
  H20      1.0000 0.81660  0.43290  0.19870  Biso   1.000  H
  C21      1.0000 0.51000  0.00570  0.21430  Biso   1.000  C
  C22      1.0000 0.51000  0.49430  0.71430  Biso   1.000  C
  C23      1.0000 0.49000  0.99430  0.78570  Biso   1.000  C
  C24      1.0000 0.49000  0.50570  0.28570  Biso   1.000  C
  H21      1.0000 0.54000  0.05660  0.15070  Biso   1.000  H
  H22      1.0000 0.54000  0.44340  0.65070  Biso   1.000  H
  H23      1.0000 0.46000  0.94340  0.84930  Biso   1.000  H
  H24      1.0000 0.46000  0.55660  0.34930  Biso   1.000  H
  C25      1.0000 0.64300  0.93230  0.30640  Biso   1.000  C
  C26      1.0000 0.64300  0.56770  0.80640  Biso   1.000  C
  C27      1.0000 0.35700  0.06770  0.69360  Biso   1.000  C
  C28      1.0000 0.35700  0.43230  0.19360  Biso   1.000  C
  H25      1.0000 0.75920  0.93460  0.30440  Biso   1.000  H
  H26      1.0000 0.75920  0.56540  0.80440  Biso   1.000  H
  H27      1.0000 0.24080  0.06540  0.69560  Biso   1.000  H
  H28      1.0000 0.24080  0.43460  0.19560  Biso   1.000  H
