data_image0
_cell_length_a       14.941
_cell_length_b       13.833
_cell_length_c       15.009
_cell_angle_alpha    90
_cell_angle_beta     94.558
_cell_angle_gamma    90

_symmetry_space_group_name_H-M    "P 1"
_symmetry_int_tables_number       1

loop_
  _symmetry_equiv_pos_as_xyz
  'x, y, z'

loop_
  _atom_site_label
  _atom_site_occupancy
  _atom_site_fract_x
  _atom_site_fract_y
  _atom_site_fract_z
  _atom_site_thermal_displace_type
  _atom_site_B_iso_or_equiv
  _atom_site_type_symbol
  Cu1      1.0000 0.97105  0.53825  0.09487  Biso   1.000  Cu
  Cu2      1.0000 0.52895  0.03825  0.40513  Biso   1.000  Cu
  Cu3      1.0000 0.02895  0.46175  0.90513  Biso   1.000  Cu
  Cu4      1.0000 0.47105  0.96175  0.59487  Biso   1.000  Cu
  O1       1.0000 0.89590  0.61730  0.15980  Biso   1.000  O
  O2       1.0000 0.60410  0.11730  0.34020  Biso   1.000  O
  O3       1.0000 0.10410  0.38270  0.84020  Biso   1.000  O
  O4       1.0000 0.39590  0.88270  0.65980  Biso   1.000  O
  O5       1.0000 0.05170  0.44380  0.05170  Biso   1.000  O
  O6       1.0000 0.44830  0.94380  0.44830  Biso   1.000  O
  O7       1.0000 0.94830  0.55620  0.94830  Biso   1.000  O
  O8       1.0000 0.55170  0.05620  0.55170  Biso   1.000  O
  Cu5      1.0000 0.06271  0.50366  0.24249  Biso   1.000  Cu
  Cu6      1.0000 0.43729  0.00366  0.25751  Biso   1.000  Cu
  Cu7      1.0000 0.93729  0.49634  0.75751  Biso   1.000  Cu
  Cu8      1.0000 0.56271  0.99634  0.74249  Biso   1.000  Cu
  O9       1.0000 0.13390  0.41870  0.18020  Biso   1.000  O
  O10      1.0000 0.36610  0.91870  0.31980  Biso   1.000  O
  O11      1.0000 0.86610  0.58130  0.81980  Biso   1.000  O
  O12      1.0000 0.63390  0.08130  0.68020  Biso   1.000  O
  O13      1.0000 0.98190  0.59610  0.28820  Biso   1.000  O
  O14      1.0000 0.51810  0.09610  0.21180  Biso   1.000  O
  O15      1.0000 0.01810  0.40390  0.71180  Biso   1.000  O
  O16      1.0000 0.48190  0.90390  0.78820  Biso   1.000  O
  Cu9      1.0000 0.99800  0.55975  0.43429  Biso   1.000  Cu
  Cu10     1.0000 0.50200  0.05975  0.06571  Biso   1.000  Cu
  Cu11     1.0000 0.00200  0.44025  0.56571  Biso   1.000  Cu
  Cu12     1.0000 0.49800  0.94025  0.93429  Biso   1.000  Cu
  O17      1.0000 0.07650  0.46550  0.38720  Biso   1.000  O
  O18      1.0000 0.42350  0.96550  0.11280  Biso   1.000  O
  O19      1.0000 0.92350  0.53450  0.61280  Biso   1.000  O
  O20      1.0000 0.57650  0.03450  0.88720  Biso   1.000  O
  O21      1.0000 0.07390  0.35890  0.49990  Biso   1.000  O
  O22      1.0000 0.42610  0.85890  0.00010  Biso   1.000  O
  O23      1.0000 0.92610  0.64110  0.50010  Biso   1.000  O
  O24      1.0000 0.57390  0.14110  0.99990  Biso   1.000  O
  C1       1.0000 0.11500  0.40240  0.09990  Biso   1.000  C
  C2       1.0000 0.38500  0.90240  0.40010  Biso   1.000  C
  C3       1.0000 0.88500  0.59760  0.90010  Biso   1.000  C
  C4       1.0000 0.61500  0.09760  0.59990  Biso   1.000  C
  C5       1.0000 0.16870  0.32980  0.05110  Biso   1.000  C
  C6       1.0000 0.33130  0.82980  0.44890  Biso   1.000  C
  C7       1.0000 0.83130  0.67020  0.94890  Biso   1.000  C
  C8       1.0000 0.66870  0.17020  0.55110  Biso   1.000  C
  C9       1.0000 0.13140  0.24210  0.02080  Biso   1.000  C
  C10      1.0000 0.36860  0.74210  0.47920  Biso   1.000  C
  C11      1.0000 0.86860  0.75790  0.97920  Biso   1.000  C
  C12      1.0000 0.63140  0.25790  0.52080  Biso   1.000  C
  C13      1.0000 0.03690  0.21560  0.03860  Biso   1.000  C
  C14      1.0000 0.46310  0.71560  0.46140  Biso   1.000  C
  C15      1.0000 0.96310  0.78440  0.96140  Biso   1.000  C
  C16      1.0000 0.53690  0.28440  0.53860  Biso   1.000  C
  F1       1.0000 0.01260  0.24910  0.11740  Biso   1.000  F
  F2       1.0000 0.48740  0.74910  0.38260  Biso   1.000  F
  F3       1.0000 0.98740  0.75090  0.88260  Biso   1.000  F
  F4       1.0000 0.51260  0.25090  0.61740  Biso   1.000  F
  F5       1.0000 0.02320  0.12240  0.03750  Biso   1.000  F
  F6       1.0000 0.47680  0.62240  0.46250  Biso   1.000  F
  F7       1.0000 0.97680  0.87760  0.96250  Biso   1.000  F
  F8       1.0000 0.52320  0.37760  0.53750  Biso   1.000  F
  F9       1.0000 0.97530  0.25240  0.97620  Biso   1.000  F
  F10      1.0000 0.52470  0.75240  0.52380  Biso   1.000  F
  F11      1.0000 0.02470  0.74760  0.02380  Biso   1.000  F
  F12      1.0000 0.47530  0.24760  0.47620  Biso   1.000  F
  C17      1.0000 0.17820  0.17800  0.97190  Biso   1.000  C
  C18      1.0000 0.32180  0.67800  0.52810  Biso   1.000  C
  C19      1.0000 0.82180  0.82200  0.02810  Biso   1.000  C
  C20      1.0000 0.67820  0.32200  0.47190  Biso   1.000  C
  H1       1.0000 0.15300  0.10900  0.94000  Biso   1.000  H
  H2       1.0000 0.34700  0.60900  0.56000  Biso   1.000  H
  H3       1.0000 0.84700  0.89100  0.06000  Biso   1.000  H
  H4       1.0000 0.65300  0.39100  0.44000  Biso   1.000  H
  C21      1.0000 0.26580  0.20050  0.95430  Biso   1.000  C
  C22      1.0000 0.23420  0.70050  0.54570  Biso   1.000  C
  C23      1.0000 0.73420  0.79950  0.04570  Biso   1.000  C
  C24      1.0000 0.76580  0.29950  0.45430  Biso   1.000  C
  H5       1.0000 0.30000  0.15800  0.92300  Biso   1.000  H
  H6       1.0000 0.20000  0.65800  0.57700  Biso   1.000  H
  H7       1.0000 0.70000  0.84200  0.07700  Biso   1.000  H
  H8       1.0000 0.80000  0.34200  0.42300  Biso   1.000  H
  C25      1.0000 0.30470  0.28430  0.98430  Biso   1.000  C
  C26      1.0000 0.19530  0.78430  0.51570  Biso   1.000  C
  C27      1.0000 0.69530  0.71570  0.01570  Biso   1.000  C
  C28      1.0000 0.80470  0.21570  0.48430  Biso   1.000  C
  H9       1.0000 0.36800  0.30200  0.96600  Biso   1.000  H
  H10      1.0000 0.13200  0.80200  0.53400  Biso   1.000  H
  H11      1.0000 0.63200  0.69800  0.03400  Biso   1.000  H
  H12      1.0000 0.86800  0.19800  0.46600  Biso   1.000  H
  C29      1.0000 0.25790  0.35050  0.03250  Biso   1.000  C
  C30      1.0000 0.24210  0.85050  0.46750  Biso   1.000  C
  C31      1.0000 0.74210  0.64950  0.96750  Biso   1.000  C
  C32      1.0000 0.75790  0.14950  0.53250  Biso   1.000  C
  C33      1.0000 0.30170  0.44380  0.06230  Biso   1.000  C
  C34      1.0000 0.19830  0.94380  0.43770  Biso   1.000  C
  C35      1.0000 0.69830  0.55620  0.93770  Biso   1.000  C
  C36      1.0000 0.80170  0.05620  0.56230  Biso   1.000  C
  F13      1.0000 0.37420  0.46180  0.01820  Biso   1.000  F
  F14      1.0000 0.12580  0.96180  0.48180  Biso   1.000  F
  F15      1.0000 0.62580  0.53820  0.98180  Biso   1.000  F
  F16      1.0000 0.87420  0.03820  0.51820  Biso   1.000  F
  F17      1.0000 0.24610  0.52010  0.04630  Biso   1.000  F
  F18      1.0000 0.25390  0.02010  0.45370  Biso   1.000  F
  F19      1.0000 0.75390  0.47990  0.95370  Biso   1.000  F
  F20      1.0000 0.74610  0.97990  0.54630  Biso   1.000  F
  F21      1.0000 0.32710  0.44520  0.14950  Biso   1.000  F
  F22      1.0000 0.17290  0.94520  0.35050  Biso   1.000  F
  F23      1.0000 0.67290  0.55480  0.85050  Biso   1.000  F
  F24      1.0000 0.82710  0.05480  0.64950  Biso   1.000  F
  C37      1.0000 0.91390  0.62950  0.24180  Biso   1.000  C
  C38      1.0000 0.58610  0.12950  0.25820  Biso   1.000  C
  C39      1.0000 0.08610  0.37050  0.75820  Biso   1.000  C
  C40      1.0000 0.41390  0.87050  0.74180  Biso   1.000  C
  C41      1.0000 0.84810  0.68780  0.29260  Biso   1.000  C
  C42      1.0000 0.65190  0.18780  0.20740  Biso   1.000  C
  C43      1.0000 0.15190  0.31220  0.70740  Biso   1.000  C
  C44      1.0000 0.34810  0.81220  0.79260  Biso   1.000  C
  C45      1.0000 0.76460  0.64970  0.30790  Biso   1.000  C
  C46      1.0000 0.73540  0.14970  0.19210  Biso   1.000  C
  C47      1.0000 0.23540  0.35030  0.69210  Biso   1.000  C
  C48      1.0000 0.26460  0.85030  0.80790  Biso   1.000  C
  C49      1.0000 0.73390  0.55240  0.27190  Biso   1.000  C
  C50      1.0000 0.76610  0.05240  0.22810  Biso   1.000  C
  C51      1.0000 0.26610  0.44760  0.72810  Biso   1.000  C
  C52      1.0000 0.23390  0.94760  0.77190  Biso   1.000  C
  F25      1.0000 0.66690  0.51580  0.31390  Biso   1.000  F
  F26      1.0000 0.83310  0.01580  0.18610  Biso   1.000  F
  F27      1.0000 0.33310  0.48420  0.68610  Biso   1.000  F
  F28      1.0000 0.16690  0.98420  0.81390  Biso   1.000  F
  F29      1.0000 0.80090  0.48690  0.28100  Biso   1.000  F
  F30      1.0000 0.69910  0.98690  0.21900  Biso   1.000  F
  F31      1.0000 0.19910  0.51310  0.71900  Biso   1.000  F
  F32      1.0000 0.30090  0.01310  0.78100  Biso   1.000  F
  F33      1.0000 0.70710  0.55540  0.18450  Biso   1.000  F
  F34      1.0000 0.79290  0.05540  0.31550  Biso   1.000  F
  F35      1.0000 0.29290  0.44460  0.81550  Biso   1.000  F
  F36      1.0000 0.20710  0.94460  0.68450  Biso   1.000  F
  C53      1.0000 0.70540  0.70160  0.35610  Biso   1.000  C
  C54      1.0000 0.79460  0.20160  0.14390  Biso   1.000  C
  C55      1.0000 0.29460  0.29840  0.64390  Biso   1.000  C
  C56      1.0000 0.20540  0.79840  0.85610  Biso   1.000  C
  H13      1.0000 0.65400  0.66500  0.36100  Biso   1.000  H
  H14      1.0000 0.84600  0.16500  0.13900  Biso   1.000  H
  H15      1.0000 0.34600  0.33500  0.63900  Biso   1.000  H
  H16      1.0000 0.15400  0.83500  0.86100  Biso   1.000  H
  C57      1.0000 0.72910  0.78860  0.39170  Biso   1.000  C
  C58      1.0000 0.77090  0.28860  0.10830  Biso   1.000  C
  C59      1.0000 0.27090  0.21140  0.60830  Biso   1.000  C
  C60      1.0000 0.22910  0.71140  0.89170  Biso   1.000  C
  H17      1.0000 0.70000  0.81700  0.42600  Biso   1.000  H
  H18      1.0000 0.80000  0.31700  0.07400  Biso   1.000  H
  H19      1.0000 0.30000  0.18300  0.57400  Biso   1.000  H
  H20      1.0000 0.20000  0.68300  0.92600  Biso   1.000  H
  C61      1.0000 0.81230  0.82820  0.37850  Biso   1.000  C
  C62      1.0000 0.68770  0.32820  0.12150  Biso   1.000  C
  C63      1.0000 0.18770  0.17180  0.62150  Biso   1.000  C
  C64      1.0000 0.31230  0.67180  0.87850  Biso   1.000  C
  H21      1.0000 0.82200  0.88200  0.39800  Biso   1.000  H
  H22      1.0000 0.67800  0.38200  0.10200  Biso   1.000  H
  H23      1.0000 0.17800  0.11800  0.60200  Biso   1.000  H
  H24      1.0000 0.32200  0.61800  0.89800  Biso   1.000  H
  C65      1.0000 0.87210  0.77810  0.32830  Biso   1.000  C
  C66      1.0000 0.62790  0.27810  0.17170  Biso   1.000  C
  C67      1.0000 0.12790  0.22190  0.67170  Biso   1.000  C
  C68      1.0000 0.37210  0.72190  0.82830  Biso   1.000  C
  C69      1.0000 0.96080  0.82440  0.31370  Biso   1.000  C
  C70      1.0000 0.53920  0.32440  0.18630  Biso   1.000  C
  C71      1.0000 0.03920  0.17560  0.68630  Biso   1.000  C
  C72      1.0000 0.46080  0.67560  0.81370  Biso   1.000  C
  F37      1.0000 0.02800  0.78260  0.36470  Biso   1.000  F
  F38      1.0000 0.47200  0.28260  0.13530  Biso   1.000  F
  F39      1.0000 0.97200  0.21740  0.63530  Biso   1.000  F
  F40      1.0000 0.52800  0.71740  0.86470  Biso   1.000  F
  F41      1.0000 0.98160  0.81370  0.23020  Biso   1.000  F
  F42      1.0000 0.51840  0.31370  0.26980  Biso   1.000  F
  F43      1.0000 0.01840  0.18630  0.76980  Biso   1.000  F
  F44      1.0000 0.48160  0.68630  0.73020  Biso   1.000  F
  F45      1.0000 0.96270  0.91620  0.33250  Biso   1.000  F
  F46      1.0000 0.53730  0.41620  0.16750  Biso   1.000  F
  F47      1.0000 0.03730  0.08380  0.66750  Biso   1.000  F
  F48      1.0000 0.46270  0.58380  0.83250  Biso   1.000  F
  C73      1.0000 0.09840  0.38580  0.42610  Biso   1.000  C
  C74      1.0000 0.40160  0.88580  0.07390  Biso   1.000  C
  C75      1.0000 0.90160  0.61420  0.57390  Biso   1.000  C
  C76      1.0000 0.59840  0.11420  0.92610  Biso   1.000  C
  C77      1.0000 0.15670  0.32110  0.37570  Biso   1.000  C
  C78      1.0000 0.34330  0.82110  0.12430  Biso   1.000  C
  C79      1.0000 0.84330  0.67890  0.62430  Biso   1.000  C
  C80      1.0000 0.65670  0.17890  0.87570  Biso   1.000  C
  C81      1.0000 0.24630  0.34660  0.36450  Biso   1.000  C
  C82      1.0000 0.25370  0.84660  0.13550  Biso   1.000  C
  C83      1.0000 0.75370  0.65340  0.63550  Biso   1.000  C
  C84      1.0000 0.74630  0.15340  0.86450  Biso   1.000  C
  C85      1.0000 0.28550  0.43900  0.40250  Biso   1.000  C
  C86      1.0000 0.21450  0.93900  0.09750  Biso   1.000  C
  C87      1.0000 0.71450  0.56100  0.59750  Biso   1.000  C
  C88      1.0000 0.78550  0.06100  0.90250  Biso   1.000  C
  F49      1.0000 0.24710  0.51710  0.35410  Biso   1.000  F
  F50      1.0000 0.25290  0.01710  0.14590  Biso   1.000  F
  F51      1.0000 0.75290  0.48290  0.64590  Biso   1.000  F
  F52      1.0000 0.74710  0.98290  0.85410  Biso   1.000  F
  F53      1.0000 0.26110  0.45750  0.48420  Biso   1.000  F
  F54      1.0000 0.23890  0.95750  0.01580  Biso   1.000  F
  F55      1.0000 0.73890  0.54250  0.51580  Biso   1.000  F
  F56      1.0000 0.76110  0.04250  0.98420  Biso   1.000  F
  F57      1.0000 0.37450  0.43790  0.40590  Biso   1.000  F
  F58      1.0000 0.12550  0.93790  0.09410  Biso   1.000  F
  F59      1.0000 0.62550  0.56210  0.59410  Biso   1.000  F
  F60      1.0000 0.87450  0.06210  0.90590  Biso   1.000  F
  F61      1.0000 0.72600  0.49200  0.65820  Biso   1.000  F
  F62      1.0000 0.77400  0.99200  0.84180  Biso   1.000  F
  F63      1.0000 0.27400  0.50800  0.34180  Biso   1.000  F
  F64      1.0000 0.22600  0.00800  0.15820  Biso   1.000  F
  F65      1.0000 0.76580  0.53700  0.51320  Biso   1.000  F
  F66      1.0000 0.73420  0.03700  0.98680  Biso   1.000  F
  F67      1.0000 0.23420  0.46300  0.48680  Biso   1.000  F
  F68      1.0000 0.26580  0.96300  0.01320  Biso   1.000  F
  F69      1.0000 0.63500  0.56500  0.56320  Biso   1.000  F
  F70      1.0000 0.86500  0.06500  0.93680  Biso   1.000  F
  F71      1.0000 0.36500  0.43500  0.43680  Biso   1.000  F
  F72      1.0000 0.13500  0.93500  0.06320  Biso   1.000  F
  F73      1.0000 0.72800  0.47800  0.63400  Biso   1.000  F
  F74      1.0000 0.77200  0.97800  0.86600  Biso   1.000  F
  F75      1.0000 0.27200  0.52200  0.36600  Biso   1.000  F
  F76      1.0000 0.22800  0.02200  0.13400  Biso   1.000  F
  F77      1.0000 0.70500  0.55200  0.52100  Biso   1.000  F
  F78      1.0000 0.79500  0.05200  0.97900  Biso   1.000  F
  F79      1.0000 0.29500  0.44800  0.47900  Biso   1.000  F
  F80      1.0000 0.20500  0.94800  0.02100  Biso   1.000  F
  F81      1.0000 0.61200  0.56600  0.62200  Biso   1.000  F
  F82      1.0000 0.88800  0.06600  0.87800  Biso   1.000  F
  F83      1.0000 0.38800  0.43400  0.37800  Biso   1.000  F
  F84      1.0000 0.11200  0.93400  0.12200  Biso   1.000  F
  C89      1.0000 0.29900  0.28750  0.31490  Biso   1.000  C
  C90      1.0000 0.20100  0.78750  0.18510  Biso   1.000  C
  C91      1.0000 0.70100  0.71250  0.68510  Biso   1.000  C
  C92      1.0000 0.79900  0.21250  0.81490  Biso   1.000  C
  H25      1.0000 0.35600  0.31700  0.31500  Biso   1.000  H
  H26      1.0000 0.14400  0.81700  0.18500  Biso   1.000  H
  H27      1.0000 0.64400  0.68300  0.68500  Biso   1.000  H
  H28      1.0000 0.85600  0.18300  0.81500  Biso   1.000  H
  C93      1.0000 0.26450  0.20550  0.27710  Biso   1.000  C
  C94      1.0000 0.23550  0.70550  0.22290  Biso   1.000  C
  C95      1.0000 0.73550  0.79450  0.72290  Biso   1.000  C
  C96      1.0000 0.76450  0.29450  0.77710  Biso   1.000  C
  H29      1.0000 0.29900  0.16600  0.23600  Biso   1.000  H
  H30      1.0000 0.20100  0.66600  0.26400  Biso   1.000  H
  H31      1.0000 0.70100  0.83400  0.76400  Biso   1.000  H
  H32      1.0000 0.79900  0.33400  0.73600  Biso   1.000  H
  C97      1.0000 0.17810  0.17820  0.28800  Biso   1.000  C
  C98      1.0000 0.32190  0.67820  0.21200  Biso   1.000  C
  C99      1.0000 0.82190  0.82180  0.71200  Biso   1.000  C
  C100     1.0000 0.67810  0.32180  0.78800  Biso   1.000  C
  H33      1.0000 0.15600  0.13000  0.26400  Biso   1.000  H
  H34      1.0000 0.34400  0.63000  0.23600  Biso   1.000  H
  H35      1.0000 0.84400  0.87000  0.73600  Biso   1.000  H
  H36      1.0000 0.65600  0.37000  0.76400  Biso   1.000  H
  C101     1.0000 0.12370  0.23470  0.33740  Biso   1.000  C
  C102     1.0000 0.37630  0.73470  0.16260  Biso   1.000  C
  C103     1.0000 0.87630  0.76530  0.66260  Biso   1.000  C
  C104     1.0000 0.62370  0.26530  0.83740  Biso   1.000  C
  C105     1.0000 0.02990  0.20010  0.34770  Biso   1.000  C
  C106     1.0000 0.47010  0.70010  0.15230  Biso   1.000  C
  C107     1.0000 0.97010  0.79990  0.65230  Biso   1.000  C
  C108     1.0000 0.52990  0.29990  0.84770  Biso   1.000  C
  F85      1.0000 0.02130  0.16240  0.42790  Biso   1.000  F
  F86      1.0000 0.47870  0.66240  0.07210  Biso   1.000  F
  F87      1.0000 0.97870  0.83760  0.57210  Biso   1.000  F
  F88      1.0000 0.52130  0.33760  0.92790  Biso   1.000  F
  F89      1.0000 0.97010  0.27330  0.33810  Biso   1.000  F
  F90      1.0000 0.52990  0.77330  0.16190  Biso   1.000  F
  F91      1.0000 0.02990  0.72670  0.66190  Biso   1.000  F
  F92      1.0000 0.47010  0.22670  0.83810  Biso   1.000  F
  F93      1.0000 0.00320  0.13420  0.28750  Biso   1.000  F
  F94      1.0000 0.49680  0.63420  0.21250  Biso   1.000  F
  F95      1.0000 0.99680  0.86580  0.71250  Biso   1.000  F
  F96      1.0000 0.50320  0.36580  0.78750  Biso   1.000  F
