data_image0
_cell_length_a       16.098
_cell_length_b       11.55
_cell_length_c       10.687
_cell_angle_alpha    90
_cell_angle_beta     128.349
_cell_angle_gamma    90

_symmetry_space_group_name_H-M    "P 1"
_symmetry_int_tables_number       1

loop_
  _symmetry_equiv_pos_as_xyz
  'x, y, z'

loop_
  _atom_site_label
  _atom_site_occupancy
  _atom_site_fract_x
  _atom_site_fract_y
  _atom_site_fract_z
  _atom_site_thermal_displace_type
  _atom_site_B_iso_or_equiv
  _atom_site_type_symbol
  Cu1      1.0000 0.00000  0.55003  0.75000  Biso   1.000  Cu
  Cu2      1.0000 0.50000  0.05003  0.75000  Biso   1.000  Cu
  Cu3      1.0000 0.00000  0.44997  0.25000  Biso   1.000  Cu
  Cu4      1.0000 0.50000  0.94997  0.25000  Biso   1.000  Cu
  C1       1.0000 0.81620  0.47020  0.70790  Biso   1.000  C
  C2       1.0000 0.31620  0.97020  0.70790  Biso   1.000  C
  C3       1.0000 0.18380  0.47020  0.79210  Biso   1.000  C
  C4       1.0000 0.68380  0.97020  0.79210  Biso   1.000  C
  C5       1.0000 0.18380  0.52980  0.29210  Biso   1.000  C
  C6       1.0000 0.68380  0.02980  0.29210  Biso   1.000  C
  C7       1.0000 0.81620  0.52980  0.20790  Biso   1.000  C
  C8       1.0000 0.31620  0.02980  0.20790  Biso   1.000  C
  H1       1.0000 0.79530  0.42190  0.62340  Biso   1.000  H
  H2       1.0000 0.29530  0.92190  0.62340  Biso   1.000  H
  H3       1.0000 0.20470  0.42190  0.87660  Biso   1.000  H
  H4       1.0000 0.70470  0.92190  0.87660  Biso   1.000  H
  H5       1.0000 0.20470  0.57810  0.37660  Biso   1.000  H
  H6       1.0000 0.70470  0.07810  0.37660  Biso   1.000  H
  H7       1.0000 0.79530  0.57810  0.12340  Biso   1.000  H
  H8       1.0000 0.29530  0.07810  0.12340  Biso   1.000  H
  C9       1.0000 0.89500  0.59420  0.89170  Biso   1.000  C
  C10      1.0000 0.39500  0.09420  0.89170  Biso   1.000  C
  C11      1.0000 0.10500  0.59420  0.60830  Biso   1.000  C
  C12      1.0000 0.60500  0.09420  0.60830  Biso   1.000  C
  C13      1.0000 0.10500  0.40580  0.10830  Biso   1.000  C
  C14      1.0000 0.60500  0.90580  0.10830  Biso   1.000  C
  C15      1.0000 0.89500  0.40580  0.39170  Biso   1.000  C
  C16      1.0000 0.39500  0.90580  0.39170  Biso   1.000  C
  H9       1.0000 0.94310  0.65090  0.96100  Biso   1.000  H
  H10      1.0000 0.44310  0.15090  0.96100  Biso   1.000  H
  H11      1.0000 0.05690  0.65090  0.53900  Biso   1.000  H
  H12      1.0000 0.55690  0.15090  0.53900  Biso   1.000  H
  H13      1.0000 0.05690  0.34910  0.03900  Biso   1.000  H
  H14      1.0000 0.55690  0.84910  0.03900  Biso   1.000  H
  H15      1.0000 0.94310  0.34910  0.46100  Biso   1.000  H
  H16      1.0000 0.44310  0.84910  0.46100  Biso   1.000  H
  C17      1.0000 0.68060  0.41000  0.74080  Biso   1.000  C
  C18      1.0000 0.18060  0.91000  0.74080  Biso   1.000  C
  C19      1.0000 0.31940  0.41000  0.75920  Biso   1.000  C
  C20      1.0000 0.81940  0.91000  0.75920  Biso   1.000  C
  C21      1.0000 0.31940  0.59000  0.25920  Biso   1.000  C
  C22      1.0000 0.81940  0.09000  0.25920  Biso   1.000  C
  C23      1.0000 0.68060  0.59000  0.24080  Biso   1.000  C
  C24      1.0000 0.18060  0.09000  0.24080  Biso   1.000  C
  H17      1.0000 0.64780  0.36640  0.64300  Biso   1.000  H
  H18      1.0000 0.14780  0.86640  0.64300  Biso   1.000  H
  H19      1.0000 0.35220  0.36640  0.85700  Biso   1.000  H
  H20      1.0000 0.85220  0.86640  0.85700  Biso   1.000  H
  H21      1.0000 0.35220  0.63360  0.35700  Biso   1.000  H
  H22      1.0000 0.85220  0.13360  0.35700  Biso   1.000  H
  H23      1.0000 0.64780  0.63360  0.14300  Biso   1.000  H
  H24      1.0000 0.14780  0.13360  0.14300  Biso   1.000  H
  H25      1.0000 0.62790  0.46230  0.72580  Biso   1.000  H
  H26      1.0000 0.12790  0.96230  0.72580  Biso   1.000  H
  H27      1.0000 0.37210  0.46230  0.77420  Biso   1.000  H
  H28      1.0000 0.87210  0.96230  0.77420  Biso   1.000  H
  H29      1.0000 0.37210  0.53770  0.27420  Biso   1.000  H
  H30      1.0000 0.87210  0.03770  0.27420  Biso   1.000  H
  H31      1.0000 0.62790  0.53770  0.22580  Biso   1.000  H
  H32      1.0000 0.12790  0.03770  0.22580  Biso   1.000  H
  C25      1.0000 0.71770  0.32770  0.87670  Biso   1.000  C
  C26      1.0000 0.21770  0.82770  0.87670  Biso   1.000  C
  C27      1.0000 0.28230  0.32770  0.62330  Biso   1.000  C
  C28      1.0000 0.78230  0.82770  0.62330  Biso   1.000  C
  C29      1.0000 0.28230  0.67230  0.12330  Biso   1.000  C
  C30      1.0000 0.78230  0.17230  0.12330  Biso   1.000  C
  C31      1.0000 0.71770  0.67230  0.37670  Biso   1.000  C
  C32      1.0000 0.21770  0.17230  0.37670  Biso   1.000  C
  C33      1.0000 0.80280  0.25320  0.93630  Biso   1.000  C
  C34      1.0000 0.30280  0.75320  0.93630  Biso   1.000  C
  C35      1.0000 0.19720  0.25320  0.56370  Biso   1.000  C
  C36      1.0000 0.69720  0.75320  0.56370  Biso   1.000  C
  C37      1.0000 0.19720  0.74680  0.06370  Biso   1.000  C
  C38      1.0000 0.69720  0.24680  0.06370  Biso   1.000  C
  C39      1.0000 0.80280  0.74680  0.43630  Biso   1.000  C
  C40      1.0000 0.30280  0.24680  0.43630  Biso   1.000  C
  H33      1.0000 0.83880  0.25510  0.89400  Biso   1.000  H
  H34      1.0000 0.33880  0.75510  0.89400  Biso   1.000  H
  H35      1.0000 0.16120  0.25510  0.60600  Biso   1.000  H
  H36      1.0000 0.66120  0.75510  0.60600  Biso   1.000  H
  H37      1.0000 0.16120  0.74490  0.10600  Biso   1.000  H
  H38      1.0000 0.66120  0.24490  0.10600  Biso   1.000  H
  H39      1.0000 0.83880  0.74490  0.39400  Biso   1.000  H
  H40      1.0000 0.33880  0.24490  0.39400  Biso   1.000  H
  C41      1.0000 0.66560  0.32360  0.94190  Biso   1.000  C
  C42      1.0000 0.16560  0.82360  0.94190  Biso   1.000  C
  C43      1.0000 0.33440  0.32360  0.55810  Biso   1.000  C
  C44      1.0000 0.83440  0.82360  0.55810  Biso   1.000  C
  C45      1.0000 0.33440  0.67640  0.05810  Biso   1.000  C
  C46      1.0000 0.83440  0.17640  0.05810  Biso   1.000  C
  C47      1.0000 0.66560  0.67640  0.44190  Biso   1.000  C
  C48      1.0000 0.16560  0.17640  0.44190  Biso   1.000  C
  H41      1.0000 0.60880  0.37310  0.90350  Biso   1.000  H
  H42      1.0000 0.10880  0.87310  0.90350  Biso   1.000  H
  H43      1.0000 0.39120  0.37310  0.59650  Biso   1.000  H
  H44      1.0000 0.89120  0.87310  0.59650  Biso   1.000  H
  H45      1.0000 0.39120  0.62690  0.09650  Biso   1.000  H
  H46      1.0000 0.89120  0.12690  0.09650  Biso   1.000  H
  H47      1.0000 0.60880  0.62690  0.40350  Biso   1.000  H
  H48      1.0000 0.10880  0.12690  0.40350  Biso   1.000  H
  N1       1.0000 0.89750  0.54260  0.78000  Biso   1.000  N
  N2       1.0000 0.39750  0.04260  0.78000  Biso   1.000  N
  N3       1.0000 0.10250  0.54260  0.72000  Biso   1.000  N
  N4       1.0000 0.60250  0.04260  0.72000  Biso   1.000  N
  N5       1.0000 0.10250  0.45740  0.22000  Biso   1.000  N
  N6       1.0000 0.60250  0.95740  0.22000  Biso   1.000  N
  N7       1.0000 0.89750  0.45740  0.28000  Biso   1.000  N
  N8       1.0000 0.39750  0.95740  0.28000  Biso   1.000  N
  N9       1.0000 0.81870  0.55720  0.89310  Biso   1.000  N
  N10      1.0000 0.31870  0.05720  0.89310  Biso   1.000  N
  N11      1.0000 0.18130  0.55720  0.60690  Biso   1.000  N
  N12      1.0000 0.68130  0.05720  0.60690  Biso   1.000  N
  N13      1.0000 0.18130  0.44280  0.10690  Biso   1.000  N
  N14      1.0000 0.68130  0.94280  0.10690  Biso   1.000  N
  N15      1.0000 0.81870  0.44280  0.39310  Biso   1.000  N
  N16      1.0000 0.31870  0.94280  0.39310  Biso   1.000  N
  N17      1.0000 0.76920  0.47690  0.77400  Biso   1.000  N
  N18      1.0000 0.26920  0.97690  0.77400  Biso   1.000  N
  N19      1.0000 0.23080  0.47690  0.72600  Biso   1.000  N
  N20      1.0000 0.73080  0.97690  0.72600  Biso   1.000  N
  N21      1.0000 0.23080  0.52310  0.22600  Biso   1.000  N
  N22      1.0000 0.73080  0.02310  0.22600  Biso   1.000  N
  N23      1.0000 0.76920  0.52310  0.27400  Biso   1.000  N
  N24      1.0000 0.26920  0.02310  0.27400  Biso   1.000  N
  Cl1      1.0000 0.50000  0.67676  0.75000  Biso   1.000  Cl
  Cl2      1.0000 0.00000  0.17676  0.75000  Biso   1.000  Cl
  Cl3      1.0000 0.50000  0.32324  0.25000  Biso   1.000  Cl
  Cl4      1.0000 0.00000  0.82324  0.25000  Biso   1.000  Cl
  O1       1.0000 0.46100  0.71250  0.84000  Biso   1.000  O
  O2       1.0000 0.96100  0.21250  0.84000  Biso   1.000  O
  O3       1.0000 0.53900  0.71250  0.66000  Biso   1.000  O
  O4       1.0000 0.03900  0.21250  0.66000  Biso   1.000  O
  O5       1.0000 0.53900  0.28750  0.16000  Biso   1.000  O
  O6       1.0000 0.03900  0.78750  0.16000  Biso   1.000  O
  O7       1.0000 0.46100  0.28750  0.34000  Biso   1.000  O
  O8       1.0000 0.96100  0.78750  0.34000  Biso   1.000  O
  O9       1.0000 0.57160  0.58290  0.83800  Biso   1.000  O
  O10      1.0000 0.07160  0.08290  0.83800  Biso   1.000  O
  O11      1.0000 0.42840  0.58290  0.66200  Biso   1.000  O
  O12      1.0000 0.92840  0.08290  0.66200  Biso   1.000  O
  O13      1.0000 0.42840  0.41710  0.16200  Biso   1.000  O
  O14      1.0000 0.92840  0.91710  0.16200  Biso   1.000  O
  O15      1.0000 0.57160  0.41710  0.33800  Biso   1.000  O
  O16      1.0000 0.07160  0.91710  0.33800  Biso   1.000  O
  O17      1.0000 0.40910  0.63800  0.59780  Biso   1.000  O
  O18      1.0000 0.90910  0.13800  0.59780  Biso   1.000  O
  O19      1.0000 0.59090  0.63800  0.90220  Biso   1.000  O
  O20      1.0000 0.09090  0.13800  0.90220  Biso   1.000  O
  O21      1.0000 0.59090  0.36200  0.40220  Biso   1.000  O
  O22      1.0000 0.09090  0.86200  0.40220  Biso   1.000  O
  O23      1.0000 0.40910  0.36200  0.09780  Biso   1.000  O
  O24      1.0000 0.90910  0.86200  0.09780  Biso   1.000  O
  O25      1.0000 0.54860  0.77220  0.74060  Biso   1.000  O
  O26      1.0000 0.04860  0.27220  0.74060  Biso   1.000  O
  O27      1.0000 0.45140  0.77220  0.75940  Biso   1.000  O
  O28      1.0000 0.95140  0.27220  0.75940  Biso   1.000  O
  O29      1.0000 0.45140  0.22780  0.25940  Biso   1.000  O
  O30      1.0000 0.95140  0.72780  0.25940  Biso   1.000  O
  O31      1.0000 0.54860  0.22780  0.24060  Biso   1.000  O
  O32      1.0000 0.04860  0.72780  0.24060  Biso   1.000  O
  O33      1.0000 0.52380  0.57990  0.83750  Biso   1.000  O
  O34      1.0000 0.02380  0.07990  0.83750  Biso   1.000  O
  O35      1.0000 0.47620  0.57990  0.66250  Biso   1.000  O
  O36      1.0000 0.97620  0.07990  0.66250  Biso   1.000  O
  O37      1.0000 0.47620  0.42010  0.16250  Biso   1.000  O
  O38      1.0000 0.97620  0.92010  0.16250  Biso   1.000  O
  O39      1.0000 0.52380  0.42010  0.33750  Biso   1.000  O
  O40      1.0000 0.02380  0.92010  0.33750  Biso   1.000  O
  O41      1.0000 0.38110  0.69460  0.63560  Biso   1.000  O
  O42      1.0000 0.88110  0.19460  0.63560  Biso   1.000  O
  O43      1.0000 0.61890  0.69460  0.86440  Biso   1.000  O
  O44      1.0000 0.11890  0.19460  0.86440  Biso   1.000  O
  O45      1.0000 0.61890  0.30540  0.36440  Biso   1.000  O
  O46      1.0000 0.11890  0.80540  0.36440  Biso   1.000  O
  O47      1.0000 0.38110  0.30540  0.13560  Biso   1.000  O
  O48      1.0000 0.88110  0.80540  0.13560  Biso   1.000  O
  O49      1.0000 0.54560  0.78120  0.82340  Biso   1.000  O
  O50      1.0000 0.04560  0.28120  0.82340  Biso   1.000  O
  O51      1.0000 0.45440  0.78120  0.67660  Biso   1.000  O
  O52      1.0000 0.95440  0.28120  0.67660  Biso   1.000  O
  O53      1.0000 0.45440  0.21880  0.17660  Biso   1.000  O
  O54      1.0000 0.95440  0.71880  0.17660  Biso   1.000  O
  O55      1.0000 0.54560  0.21880  0.32340  Biso   1.000  O
  O56      1.0000 0.04560  0.71880  0.32340  Biso   1.000  O
  O57      1.0000 0.52140  0.65590  0.63190  Biso   1.000  O
  O58      1.0000 0.02140  0.15590  0.63190  Biso   1.000  O
  O59      1.0000 0.47860  0.65590  0.86810  Biso   1.000  O
  O60      1.0000 0.97860  0.15590  0.86810  Biso   1.000  O
  O61      1.0000 0.47860  0.34410  0.36810  Biso   1.000  O
  O62      1.0000 0.97860  0.84410  0.36810  Biso   1.000  O
  O63      1.0000 0.52140  0.34410  0.13190  Biso   1.000  O
  O64      1.0000 0.02140  0.84410  0.13190  Biso   1.000  O
