data_image0
_cell_length_a       14.3987
_cell_length_b       9.5222
_cell_length_c       18.1821
_cell_angle_alpha    90
_cell_angle_beta     90
_cell_angle_gamma    90

_symmetry_space_group_name_H-M    "P 1"
_symmetry_int_tables_number       1

loop_
  _symmetry_equiv_pos_as_xyz
  'x, y, z'

loop_
  _atom_site_label
  _atom_site_occupancy
  _atom_site_fract_x
  _atom_site_fract_y
  _atom_site_fract_z
  _atom_site_thermal_displace_type
  _atom_site_B_iso_or_equiv
  _atom_site_type_symbol
  Cu1      1.0000 0.60339  0.51248  0.53674  Biso   1.000  Cu
  Cu2      1.0000 0.39661  0.48752  0.03674  Biso   1.000  Cu
  Cu3      1.0000 0.10339  0.48752  0.53674  Biso   1.000  Cu
  Cu4      1.0000 0.89661  0.51248  0.03674  Biso   1.000  Cu
  N1       1.0000 0.60624  0.79780  0.65698  Biso   1.000  N
  N2       1.0000 0.39376  0.20220  0.15698  Biso   1.000  N
  N3       1.0000 0.10624  0.20220  0.65698  Biso   1.000  N
  N4       1.0000 0.89376  0.79780  0.15698  Biso   1.000  N
  N5       1.0000 0.70017  0.62560  0.60251  Biso   1.000  N
  N6       1.0000 0.29983  0.37440  0.10251  Biso   1.000  N
  N7       1.0000 0.20017  0.37440  0.60251  Biso   1.000  N
  N8       1.0000 0.79983  0.62560  0.10251  Biso   1.000  N
  N9       1.0000 0.49099  0.63790  0.52885  Biso   1.000  N
  N10      1.0000 0.50901  0.36210  0.02885  Biso   1.000  N
  N11      1.0000 0.99099  0.36210  0.52885  Biso   1.000  N
  N12      1.0000 0.00901  0.63790  0.02885  Biso   1.000  N
  N13      1.0000 0.61069  0.32250  0.58760  Biso   1.000  N
  N14      1.0000 0.38931  0.67750  0.08760  Biso   1.000  N
  N15      1.0000 0.11069  0.67750  0.58760  Biso   1.000  N
  N16      1.0000 0.88931  0.32250  0.08760  Biso   1.000  N
  N17      1.0000 0.64890  0.49370  0.43270  Biso   1.000  N
  N18      1.0000 0.35110  0.50630  0.93270  Biso   1.000  N
  N19      1.0000 0.14890  0.50630  0.43270  Biso   1.000  N
  N20      1.0000 0.85110  0.49370  0.93270  Biso   1.000  N
  C1       1.0000 0.52484  0.70580  0.65488  Biso   1.000  C
  C2       1.0000 0.47516  0.29420  0.15488  Biso   1.000  C
  C3       1.0000 0.02484  0.29420  0.65488  Biso   1.000  C
  C4       1.0000 0.97516  0.70580  0.15488  Biso   1.000  C
  H1       1.0000 0.48500  0.72650  0.69790  Biso   1.000  H
  H2       1.0000 0.51500  0.27350  0.19790  Biso   1.000  H
  H3       1.0000 0.98500  0.27350  0.69790  Biso   1.000  H
  H4       1.0000 0.01500  0.72650  0.19790  Biso   1.000  H
  H5       1.0000 0.54570  0.60700  0.65910  Biso   1.000  H
  H6       1.0000 0.45430  0.39300  0.15910  Biso   1.000  H
  H7       1.0000 0.04570  0.39300  0.65910  Biso   1.000  H
  H8       1.0000 0.95430  0.60700  0.15910  Biso   1.000  H
  C5       1.0000 0.46769  0.72150  0.58568  Biso   1.000  C
  C6       1.0000 0.53231  0.27850  0.08568  Biso   1.000  C
  C7       1.0000 0.96769  0.27850  0.58568  Biso   1.000  C
  C8       1.0000 0.03231  0.72150  0.08568  Biso   1.000  C
  C9       1.0000 0.39502  0.81770  0.58112  Biso   1.000  C
  C10      1.0000 0.60498  0.18230  0.08112  Biso   1.000  C
  C11      1.0000 0.89502  0.18230  0.58112  Biso   1.000  C
  C12      1.0000 0.10498  0.81770  0.08112  Biso   1.000  C
  H9       1.0000 0.37950  0.87490  0.62210  Biso   1.000  H
  H10      1.0000 0.62050  0.12510  0.12210  Biso   1.000  H
  H11      1.0000 0.87950  0.12510  0.62210  Biso   1.000  H
  H12      1.0000 0.12050  0.87490  0.12210  Biso   1.000  H
  C13      1.0000 0.34570  0.82870  0.51588  Biso   1.000  C
  C14      1.0000 0.65430  0.17130  0.01588  Biso   1.000  C
  C15      1.0000 0.84570  0.17130  0.51588  Biso   1.000  C
  C16      1.0000 0.15430  0.82870  0.01588  Biso   1.000  C
  H13      1.0000 0.29690  0.89520  0.51120  Biso   1.000  H
  H14      1.0000 0.70310  0.10480  0.01120  Biso   1.000  H
  H15      1.0000 0.79690  0.10480  0.51120  Biso   1.000  H
  H16      1.0000 0.20310  0.89520  0.01120  Biso   1.000  H
  C17      1.0000 0.36840  0.74220  0.45800  Biso   1.000  C
  C18      1.0000 0.63160  0.25780  0.95800  Biso   1.000  C
  C19      1.0000 0.86840  0.25780  0.45800  Biso   1.000  C
  C20      1.0000 0.13160  0.74220  0.95800  Biso   1.000  C
  H17      1.0000 0.33470  0.74640  0.41320  Biso   1.000  H
  H18      1.0000 0.66530  0.25360  0.91320  Biso   1.000  H
  H19      1.0000 0.83470  0.25360  0.41320  Biso   1.000  H
  H20      1.0000 0.16530  0.74640  0.91320  Biso   1.000  H
  C21      1.0000 0.44130  0.64920  0.46647  Biso   1.000  C
  C22      1.0000 0.55870  0.35080  0.96647  Biso   1.000  C
  C23      1.0000 0.94130  0.35080  0.46647  Biso   1.000  C
  C24      1.0000 0.05870  0.64920  0.96647  Biso   1.000  C
  H21      1.0000 0.45710  0.59020  0.42620  Biso   1.000  H
  H22      1.0000 0.54290  0.40980  0.92620  Biso   1.000  H
  H23      1.0000 0.95710  0.40980  0.42620  Biso   1.000  H
  H24      1.0000 0.04290  0.59020  0.92620  Biso   1.000  H
  C25      1.0000 0.69326  0.75010  0.63729  Biso   1.000  C
  C26      1.0000 0.30674  0.24990  0.13729  Biso   1.000  C
  C27      1.0000 0.19326  0.24990  0.63729  Biso   1.000  C
  C28      1.0000 0.80674  0.75010  0.13729  Biso   1.000  C
  C29      1.0000 0.77292  0.83020  0.65387  Biso   1.000  C
  C30      1.0000 0.22708  0.16980  0.15387  Biso   1.000  C
  C31      1.0000 0.27292  0.16980  0.65387  Biso   1.000  C
  C32      1.0000 0.72708  0.83020  0.15387  Biso   1.000  C
  H25      1.0000 0.76690  0.92050  0.67550  Biso   1.000  H
  H26      1.0000 0.23310  0.07950  0.17550  Biso   1.000  H
  H27      1.0000 0.26690  0.07950  0.67550  Biso   1.000  H
  H28      1.0000 0.73310  0.92050  0.17550  Biso   1.000  H
  C33      1.0000 0.85860  0.77670  0.63850  Biso   1.000  C
  C34      1.0000 0.14140  0.22330  0.13850  Biso   1.000  C
  C35      1.0000 0.35860  0.22330  0.63850  Biso   1.000  C
  C36      1.0000 0.64140  0.77670  0.13850  Biso   1.000  C
  H29      1.0000 0.91270  0.82970  0.64990  Biso   1.000  H
  H30      1.0000 0.08730  0.17030  0.14990  Biso   1.000  H
  H31      1.0000 0.41270  0.17030  0.64990  Biso   1.000  H
  H32      1.0000 0.58730  0.82970  0.14990  Biso   1.000  H
  C37      1.0000 0.86730  0.64470  0.60608  Biso   1.000  C
  C38      1.0000 0.13270  0.35530  0.10608  Biso   1.000  C
  C39      1.0000 0.36730  0.35530  0.60608  Biso   1.000  C
  C40      1.0000 0.63270  0.64470  0.10608  Biso   1.000  C
  H33      1.0000 0.92640  0.60460  0.59610  Biso   1.000  H
  H34      1.0000 0.07360  0.39540  0.09610  Biso   1.000  H
  H35      1.0000 0.42640  0.39540  0.59610  Biso   1.000  H
  H36      1.0000 0.57360  0.60460  0.09610  Biso   1.000  H
  C41      1.0000 0.78673  0.57560  0.58922  Biso   1.000  C
  C42      1.0000 0.21327  0.42440  0.08922  Biso   1.000  C
  C43      1.0000 0.28673  0.42440  0.58922  Biso   1.000  C
  C44      1.0000 0.71327  0.57560  0.08922  Biso   1.000  C
  H37      1.0000 0.79180  0.48600  0.56660  Biso   1.000  H
  H38      1.0000 0.20820  0.51400  0.06660  Biso   1.000  H
  H39      1.0000 0.29180  0.51400  0.56660  Biso   1.000  H
  H40      1.0000 0.70820  0.48600  0.06660  Biso   1.000  H
  C45      1.0000 0.59890  0.92490  0.70175  Biso   1.000  C
  C46      1.0000 0.40110  0.07510  0.20175  Biso   1.000  C
  C47      1.0000 0.09890  0.07510  0.70175  Biso   1.000  C
  C48      1.0000 0.90110  0.92490  0.20175  Biso   1.000  C
  H41      1.0000 0.64800  0.92240  0.73980  Biso   1.000  H
  H42      1.0000 0.35200  0.07760  0.23980  Biso   1.000  H
  H43      1.0000 0.14800  0.07760  0.73980  Biso   1.000  H
  H44      1.0000 0.85200  0.92240  0.23980  Biso   1.000  H
  H45      1.0000 0.53820  0.92400  0.72740  Biso   1.000  H
  H46      1.0000 0.46180  0.07600  0.22740  Biso   1.000  H
  H47      1.0000 0.03820  0.07600  0.72740  Biso   1.000  H
  H48      1.0000 0.96180  0.92400  0.22740  Biso   1.000  H
  C49      1.0000 0.60737  0.06150  0.65951  Biso   1.000  C
  C50      1.0000 0.39263  0.93850  0.15951  Biso   1.000  C
  C51      1.0000 0.10737  0.93850  0.65951  Biso   1.000  C
  C52      1.0000 0.89263  0.06150  0.15951  Biso   1.000  C
  C53      1.0000 0.62340  0.18550  0.69830  Biso   1.000  C
  C54      1.0000 0.37660  0.81450  0.19830  Biso   1.000  C
  C55      1.0000 0.12340  0.81450  0.69830  Biso   1.000  C
  C56      1.0000 0.87660  0.18550  0.19830  Biso   1.000  C
  H49      1.0000 0.63400  0.18340  0.74990  Biso   1.000  H
  H50      1.0000 0.36600  0.81660  0.24990  Biso   1.000  H
  H51      1.0000 0.13400  0.81660  0.74990  Biso   1.000  H
  H52      1.0000 0.86600  0.18340  0.24990  Biso   1.000  H
  C57      1.0000 0.62357  0.31150  0.66068  Biso   1.000  C
  C58      1.0000 0.37643  0.68850  0.16068  Biso   1.000  C
  C59      1.0000 0.12357  0.68850  0.66068  Biso   1.000  C
  C60      1.0000 0.87643  0.31150  0.16068  Biso   1.000  C
  H53      1.0000 0.63340  0.39520  0.68800  Biso   1.000  H
  H54      1.0000 0.36660  0.60480  0.18800  Biso   1.000  H
  H55      1.0000 0.13340  0.60480  0.68800  Biso   1.000  H
  H56      1.0000 0.86660  0.39520  0.18800  Biso   1.000  H
  C61      1.0000 0.59647  0.07130  0.58419  Biso   1.000  C
  C62      1.0000 0.40353  0.92870  0.08419  Biso   1.000  C
  C63      1.0000 0.09647  0.92870  0.58419  Biso   1.000  C
  C64      1.0000 0.90353  0.07130  0.08419  Biso   1.000  C
  H57      1.0000 0.58730  0.98900  0.55560  Biso   1.000  H
  H58      1.0000 0.41270  0.01100  0.05560  Biso   1.000  H
  H59      1.0000 0.08730  0.01100  0.55560  Biso   1.000  H
  H60      1.0000 0.91270  0.98900  0.05560  Biso   1.000  H
  C65      1.0000 0.59896  0.20200  0.55047  Biso   1.000  C
  C66      1.0000 0.40104  0.79800  0.05047  Biso   1.000  C
  C67      1.0000 0.09896  0.79800  0.55047  Biso   1.000  C
  C68      1.0000 0.90104  0.20200  0.05047  Biso   1.000  C
  H61      1.0000 0.59200  0.20640  0.49860  Biso   1.000  H
  H62      1.0000 0.40800  0.79360  0.99860  Biso   1.000  H
  H63      1.0000 0.09200  0.79360  0.49860  Biso   1.000  H
  H64      1.0000 0.90800  0.20640  0.99860  Biso   1.000  H
  C69      1.0000 0.65650  0.47850  0.37148  Biso   1.000  C
  C70      1.0000 0.34350  0.52150  0.87148  Biso   1.000  C
  C71      1.0000 0.15650  0.52150  0.37148  Biso   1.000  C
  C72      1.0000 0.84350  0.47850  0.87148  Biso   1.000  C
  C73      1.0000 0.66390  0.46230  0.29210  Biso   1.000  C
  C74      1.0000 0.33610  0.53770  0.79210  Biso   1.000  C
  C75      1.0000 0.16390  0.53770  0.29210  Biso   1.000  C
  C76      1.0000 0.83610  0.46230  0.79210  Biso   1.000  C
  H65      1.0000 0.60200  0.46880  0.27000  Biso   1.000  H
  H66      1.0000 0.39800  0.53120  0.77000  Biso   1.000  H
  H67      1.0000 0.10200  0.53120  0.27000  Biso   1.000  H
  H68      1.0000 0.89800  0.46880  0.77000  Biso   1.000  H
  H69      1.0000 0.69120  0.37050  0.28070  Biso   1.000  H
  H70      1.0000 0.30880  0.62950  0.78070  Biso   1.000  H
  H71      1.0000 0.19120  0.62950  0.28070  Biso   1.000  H
  H72      1.0000 0.80880  0.37050  0.78070  Biso   1.000  H
  H73      1.0000 0.70360  0.53670  0.27210  Biso   1.000  H
  H74      1.0000 0.29640  0.46330  0.77210  Biso   1.000  H
  H75      1.0000 0.20360  0.46330  0.27210  Biso   1.000  H
  H76      1.0000 0.79640  0.53670  0.77210  Biso   1.000  H
  N21      1.0000 0.88810  0.58660  0.31050  Biso   1.000  N
  N22      1.0000 0.11190  0.41340  0.81050  Biso   1.000  N
  N23      1.0000 0.38810  0.41340  0.31050  Biso   1.000  N
  N24      1.0000 0.61190  0.58660  0.81050  Biso   1.000  N
  C77      1.0000 0.88160  0.66920  0.35490  Biso   1.000  C
  C78      1.0000 0.11840  0.33080  0.85490  Biso   1.000  C
  C79      1.0000 0.38160  0.33080  0.35490  Biso   1.000  C
  C80      1.0000 0.61840  0.66920  0.85490  Biso   1.000  C
  C81      1.0000 0.87260  0.77640  0.41140  Biso   1.000  C
  C82      1.0000 0.12740  0.22360  0.91140  Biso   1.000  C
  C83      1.0000 0.37260  0.22360  0.41140  Biso   1.000  C
  C84      1.0000 0.62740  0.77640  0.91140  Biso   1.000  C
  H77      1.0000 0.93320  0.82030  0.42010  Biso   1.000  H
  H78      1.0000 0.06680  0.17970  0.92010  Biso   1.000  H
  H79      1.0000 0.43320  0.17970  0.42010  Biso   1.000  H
  H80      1.0000 0.56680  0.82030  0.92010  Biso   1.000  H
  H81      1.0000 0.85040  0.73320  0.45710  Biso   1.000  H
  H82      1.0000 0.14960  0.26680  0.95710  Biso   1.000  H
  H83      1.0000 0.35040  0.26680  0.45710  Biso   1.000  H
  H84      1.0000 0.64960  0.73320  0.95710  Biso   1.000  H
  H85      1.0000 0.82820  0.84790  0.39520  Biso   1.000  H
  H86      1.0000 0.17180  0.15210  0.89520  Biso   1.000  H
  H87      1.0000 0.32820  0.15210  0.39520  Biso   1.000  H
  H88      1.0000 0.67180  0.84790  0.89520  Biso   1.000  H
  S1       1.0000 0.35058  0.93424  0.82916  Biso   1.000  S
  S2       1.0000 0.64942  0.06576  0.32916  Biso   1.000  S
  S3       1.0000 0.85058  0.06576  0.82916  Biso   1.000  S
  S4       1.0000 0.14942  0.93424  0.32916  Biso   1.000  S
  C85      1.0000 0.39330  0.10200  0.85460  Biso   1.000  C
  C86      1.0000 0.60670  0.89800  0.35460  Biso   1.000  C
  C87      1.0000 0.89330  0.89800  0.85460  Biso   1.000  C
  C88      1.0000 0.10670  0.10200  0.35460  Biso   1.000  C
  O1       1.0000 0.42230  0.84490  0.86720  Biso   1.000  O
  O2       1.0000 0.57770  0.15510  0.36720  Biso   1.000  O
  O3       1.0000 0.92230  0.15510  0.86720  Biso   1.000  O
  O4       1.0000 0.07770  0.84490  0.36720  Biso   1.000  O
  O5       1.0000 0.36580  0.93120  0.75160  Biso   1.000  O
  O6       1.0000 0.63420  0.06880  0.25160  Biso   1.000  O
  O7       1.0000 0.86580  0.06880  0.75160  Biso   1.000  O
  O8       1.0000 0.13420  0.93120  0.25160  Biso   1.000  O
  O9       1.0000 0.26290  0.92410  0.85550  Biso   1.000  O
  O10      1.0000 0.73710  0.07590  0.35550  Biso   1.000  O
  O11      1.0000 0.76290  0.07590  0.85550  Biso   1.000  O
  O12      1.0000 0.23710  0.92410  0.35550  Biso   1.000  O
  F1       1.0000 0.47240  0.13910  0.83120  Biso   1.000  F
  F2       1.0000 0.52760  0.86090  0.33120  Biso   1.000  F
  F3       1.0000 0.97240  0.86090  0.83120  Biso   1.000  F
  F4       1.0000 0.02760  0.13910  0.33120  Biso   1.000  F
  F5       1.0000 0.32940  0.20270  0.82600  Biso   1.000  F
  F6       1.0000 0.67060  0.79730  0.32600  Biso   1.000  F
  F7       1.0000 0.82940  0.79730  0.82600  Biso   1.000  F
  F8       1.0000 0.17060  0.20270  0.32600  Biso   1.000  F
  F9       1.0000 0.38910  0.13000  0.92710  Biso   1.000  F
  F10      1.0000 0.61090  0.87000  0.42710  Biso   1.000  F
  F11      1.0000 0.88910  0.87000  0.92710  Biso   1.000  F
  F12      1.0000 0.11090  0.13000  0.42710  Biso   1.000  F
  C89      1.0000 0.39470  0.10300  0.86110  Biso   1.000  C
  C90      1.0000 0.60530  0.89700  0.36110  Biso   1.000  C
  C91      1.0000 0.89470  0.89700  0.86110  Biso   1.000  C
  C92      1.0000 0.10530  0.10300  0.36110  Biso   1.000  C
  O13      1.0000 0.38210  0.83610  0.87610  Biso   1.000  O
  O14      1.0000 0.61790  0.16390  0.37610  Biso   1.000  O
  O15      1.0000 0.88210  0.16390  0.87610  Biso   1.000  O
  O16      1.0000 0.11790  0.83610  0.37610  Biso   1.000  O
  O17      1.0000 0.37620  0.92400  0.75350  Biso   1.000  O
  O18      1.0000 0.62380  0.07600  0.25350  Biso   1.000  O
  O19      1.0000 0.87620  0.07600  0.75350  Biso   1.000  O
  O20      1.0000 0.12380  0.92400  0.25350  Biso   1.000  O
  O21      1.0000 0.24720  0.96600  0.83640  Biso   1.000  O
  O22      1.0000 0.75280  0.03400  0.33640  Biso   1.000  O
  O23      1.0000 0.74720  0.03400  0.83640  Biso   1.000  O
  O24      1.0000 0.25280  0.96600  0.33640  Biso   1.000  O
  F13      1.0000 0.49130  0.08830  0.85670  Biso   1.000  F
  F14      1.0000 0.50870  0.91170  0.35670  Biso   1.000  F
  F15      1.0000 0.99130  0.91170  0.85670  Biso   1.000  F
  F16      1.0000 0.00870  0.08830  0.35670  Biso   1.000  F
  F17      1.0000 0.37490  0.20720  0.82220  Biso   1.000  F
  F18      1.0000 0.62510  0.79280  0.32220  Biso   1.000  F
  F19      1.0000 0.87490  0.79280  0.82220  Biso   1.000  F
  F20      1.0000 0.12510  0.20720  0.32220  Biso   1.000  F
  F21      1.0000 0.37490  0.12240  0.93100  Biso   1.000  F
  F22      1.0000 0.62510  0.87760  0.43100  Biso   1.000  F
  F23      1.0000 0.87490  0.87760  0.93100  Biso   1.000  F
  F24      1.0000 0.12510  0.12240  0.43100  Biso   1.000  F
