data_image0
_cell_length_a       14.098
_cell_length_b       10.6116
_cell_length_c       13.2446
_cell_angle_alpha    90
_cell_angle_beta     90.985
_cell_angle_gamma    90

_symmetry_space_group_name_H-M    "P 1"
_symmetry_int_tables_number       1

loop_
  _symmetry_equiv_pos_as_xyz
  'x, y, z'

loop_
  _atom_site_label
  _atom_site_occupancy
  _atom_site_fract_x
  _atom_site_fract_y
  _atom_site_fract_z
  _atom_site_thermal_displace_type
  _atom_site_B_iso_or_equiv
  _atom_site_type_symbol
  Cu1      1.0000 0.32470  0.60285  0.18018  Biso   1.000  Cu
  Cu2      1.0000 0.67530  0.60285  0.81982  Biso   1.000  Cu
  Cu3      1.0000 0.82470  0.10285  0.18018  Biso   1.000  Cu
  Cu4      1.0000 0.17530  0.10285  0.81982  Biso   1.000  Cu
  N1       1.0000 0.28261  0.37890  0.21783  Biso   1.000  N
  N2       1.0000 0.71739  0.37890  0.78217  Biso   1.000  N
  N3       1.0000 0.78261  0.87890  0.21783  Biso   1.000  N
  N4       1.0000 0.21739  0.87890  0.78217  Biso   1.000  N
  C1       1.0000 0.37164  0.34340  0.27007  Biso   1.000  C
  C2       1.0000 0.62836  0.34340  0.72993  Biso   1.000  C
  C3       1.0000 0.87164  0.84340  0.27007  Biso   1.000  C
  C4       1.0000 0.12836  0.84340  0.72993  Biso   1.000  C
  H1       1.0000 0.37670  0.25040  0.27140  Biso   1.000  H
  H2       1.0000 0.62330  0.25040  0.72860  Biso   1.000  H
  H3       1.0000 0.87670  0.75040  0.27140  Biso   1.000  H
  H4       1.0000 0.12330  0.75040  0.72860  Biso   1.000  H
  H5       1.0000 0.36950  0.37310  0.34080  Biso   1.000  H
  H6       1.0000 0.63050  0.37310  0.65920  Biso   1.000  H
  H7       1.0000 0.86950  0.87310  0.34080  Biso   1.000  H
  H8       1.0000 0.13050  0.87310  0.65920  Biso   1.000  H
  C5       1.0000 0.45900  0.39690  0.22140  Biso   1.000  C
  C6       1.0000 0.54100  0.39690  0.77860  Biso   1.000  C
  C7       1.0000 0.95900  0.89690  0.22140  Biso   1.000  C
  C8       1.0000 0.04100  0.89690  0.77860  Biso   1.000  C
  C9       1.0000 0.54420  0.33270  0.22570  Biso   1.000  C
  C10      1.0000 0.45580  0.33270  0.77430  Biso   1.000  C
  C11      1.0000 0.04420  0.83270  0.22570  Biso   1.000  C
  C12      1.0000 0.95580  0.83270  0.77430  Biso   1.000  C
  H9       1.0000 0.54760  0.25090  0.25470  Biso   1.000  H
  H10      1.0000 0.45240  0.25090  0.74530  Biso   1.000  H
  H11      1.0000 0.04760  0.75090  0.25470  Biso   1.000  H
  H12      1.0000 0.95240  0.75090  0.74530  Biso   1.000  H
  C13      1.0000 0.62440  0.38880  0.18750  Biso   1.000  C
  C14      1.0000 0.37560  0.38880  0.81250  Biso   1.000  C
  C15      1.0000 0.12440  0.88880  0.18750  Biso   1.000  C
  C16      1.0000 0.87560  0.88880  0.81250  Biso   1.000  C
  H13      1.0000 0.68370  0.34620  0.18980  Biso   1.000  H
  H14      1.0000 0.31630  0.34620  0.81020  Biso   1.000  H
  H15      1.0000 0.18370  0.84620  0.18980  Biso   1.000  H
  H16      1.0000 0.81630  0.84620  0.81020  Biso   1.000  H
  C17      1.0000 0.61690  0.50770  0.14600  Biso   1.000  C
  C18      1.0000 0.38310  0.50770  0.85400  Biso   1.000  C
  C19      1.0000 0.11690  0.00770  0.14600  Biso   1.000  C
  C20      1.0000 0.88310  0.00770  0.85400  Biso   1.000  C
  H17      1.0000 0.67100  0.54820  0.11890  Biso   1.000  H
  H18      1.0000 0.32900  0.54820  0.88110  Biso   1.000  H
  H19      1.0000 0.17100  0.04820  0.11890  Biso   1.000  H
  H20      1.0000 0.82900  0.04820  0.88110  Biso   1.000  H
  C21      1.0000 0.53010  0.56680  0.14450  Biso   1.000  C
  C22      1.0000 0.46990  0.56680  0.85550  Biso   1.000  C
  C23      1.0000 0.03010  0.06680  0.14450  Biso   1.000  C
  C24      1.0000 0.96990  0.06680  0.85550  Biso   1.000  C
  H21      1.0000 0.52550  0.64870  0.11580  Biso   1.000  H
  H22      1.0000 0.47450  0.64870  0.88420  Biso   1.000  H
  H23      1.0000 0.02550  0.14870  0.11580  Biso   1.000  H
  H24      1.0000 0.97450  0.14870  0.88420  Biso   1.000  H
  N5       1.0000 0.45136  0.51400  0.18177  Biso   1.000  N
  N6       1.0000 0.54864  0.51400  0.81823  Biso   1.000  N
  N7       1.0000 0.95136  0.01400  0.18177  Biso   1.000  N
  N8       1.0000 0.04864  0.01400  0.81823  Biso   1.000  N
  C25      1.0000 0.20440  0.39640  0.28790  Biso   1.000  C
  C26      1.0000 0.79560  0.39640  0.71210  Biso   1.000  C
  C27      1.0000 0.70440  0.89640  0.28790  Biso   1.000  C
  C28      1.0000 0.29560  0.89640  0.71210  Biso   1.000  C
  H25      1.0000 0.20280  0.32350  0.33460  Biso   1.000  H
  H26      1.0000 0.79720  0.32350  0.66540  Biso   1.000  H
  H27      1.0000 0.70280  0.82350  0.33460  Biso   1.000  H
  H28      1.0000 0.29720  0.82350  0.66540  Biso   1.000  H
  H29      1.0000 0.14380  0.39710  0.24890  Biso   1.000  H
  H30      1.0000 0.85620  0.39710  0.75110  Biso   1.000  H
  H31      1.0000 0.64380  0.89710  0.24890  Biso   1.000  H
  H32      1.0000 0.35620  0.89710  0.75110  Biso   1.000  H
  C29      1.0000 0.21130  0.51640  0.34950  Biso   1.000  C
  C30      1.0000 0.78870  0.51640  0.65050  Biso   1.000  C
  C31      1.0000 0.71130  0.01640  0.34950  Biso   1.000  C
  C32      1.0000 0.28870  0.01640  0.65050  Biso   1.000  C
  C33      1.0000 0.16140  0.52520  0.43900  Biso   1.000  C
  C34      1.0000 0.83860  0.52520  0.56100  Biso   1.000  C
  C35      1.0000 0.66140  0.02520  0.43900  Biso   1.000  C
  C36      1.0000 0.33860  0.02520  0.56100  Biso   1.000  C
  H33      1.0000 0.12960  0.45360  0.46500  Biso   1.000  H
  H34      1.0000 0.87040  0.45360  0.53500  Biso   1.000  H
  H35      1.0000 0.62960  0.95360  0.46500  Biso   1.000  H
  H36      1.0000 0.37040  0.95360  0.53500  Biso   1.000  H
  C37      1.0000 0.15860  0.63860  0.48950  Biso   1.000  C
  C38      1.0000 0.84140  0.63860  0.51050  Biso   1.000  C
  C39      1.0000 0.65860  0.13860  0.48950  Biso   1.000  C
  C40      1.0000 0.34140  0.13860  0.51050  Biso   1.000  C
  H37      1.0000 0.12300  0.64710  0.54930  Biso   1.000  H
  H38      1.0000 0.87700  0.64710  0.45070  Biso   1.000  H
  H39      1.0000 0.62300  0.14710  0.54930  Biso   1.000  H
  H40      1.0000 0.37700  0.14710  0.45070  Biso   1.000  H
  C41      1.0000 0.20810  0.73940  0.45200  Biso   1.000  C
  C42      1.0000 0.79190  0.73940  0.54800  Biso   1.000  C
  C43      1.0000 0.70810  0.23940  0.45200  Biso   1.000  C
  C44      1.0000 0.29190  0.23940  0.54800  Biso   1.000  C
  H41      1.0000 0.20700  0.81870  0.48540  Biso   1.000  H
  H42      1.0000 0.79300  0.81870  0.51460  Biso   1.000  H
  H43      1.0000 0.70700  0.31870  0.48540  Biso   1.000  H
  H44      1.0000 0.29300  0.31870  0.51460  Biso   1.000  H
  C45      1.0000 0.25940  0.72340  0.36520  Biso   1.000  C
  C46      1.0000 0.74060  0.72340  0.63480  Biso   1.000  C
  C47      1.0000 0.75940  0.22340  0.36520  Biso   1.000  C
  C48      1.0000 0.24060  0.22340  0.63480  Biso   1.000  C
  H45      1.0000 0.29600  0.79200  0.34120  Biso   1.000  H
  H46      1.0000 0.70400  0.79200  0.65880  Biso   1.000  H
  H47      1.0000 0.79600  0.29200  0.34120  Biso   1.000  H
  H48      1.0000 0.20400  0.29200  0.65880  Biso   1.000  H
  N9       1.0000 0.25962  0.61380  0.31286  Biso   1.000  N
  N10      1.0000 0.74038  0.61380  0.68714  Biso   1.000  N
  N11      1.0000 0.75962  0.11380  0.31286  Biso   1.000  N
  N12      1.0000 0.24038  0.11380  0.68714  Biso   1.000  N
  C49      1.0000 0.26113  0.31900  0.12573  Biso   1.000  C
  C50      1.0000 0.73887  0.31900  0.87427  Biso   1.000  C
  C51      1.0000 0.76113  0.81900  0.12573  Biso   1.000  C
  C52      1.0000 0.23887  0.81900  0.87427  Biso   1.000  C
  C53      1.0000 0.17590  0.34240  0.07360  Biso   1.000  C
  C54      1.0000 0.82410  0.34240  0.92640  Biso   1.000  C
  C55      1.0000 0.67590  0.84240  0.07360  Biso   1.000  C
  C56      1.0000 0.32410  0.84240  0.92640  Biso   1.000  C
  H49      1.0000 0.13130  0.40080  0.09950  Biso   1.000  H
  H50      1.0000 0.86870  0.40080  0.90050  Biso   1.000  H
  H51      1.0000 0.63130  0.90080  0.09950  Biso   1.000  H
  H52      1.0000 0.36870  0.90080  0.90050  Biso   1.000  H
  C57      1.0000 0.15720  0.28010  0.98441  Biso   1.000  C
  C58      1.0000 0.84280  0.28010  0.01559  Biso   1.000  C
  C59      1.0000 0.65720  0.78010  0.98441  Biso   1.000  C
  C60      1.0000 0.34280  0.78010  0.01559  Biso   1.000  C
  H53      1.0000 0.09830  0.29650  0.95120  Biso   1.000  H
  H54      1.0000 0.90170  0.29650  0.04880  Biso   1.000  H
  H55      1.0000 0.59830  0.79650  0.95120  Biso   1.000  H
  H56      1.0000 0.40170  0.79650  0.04880  Biso   1.000  H
  C61      1.0000 0.30040  0.18060  0.98950  Biso   1.000  C
  C62      1.0000 0.69960  0.18060  0.01050  Biso   1.000  C
  C63      1.0000 0.80040  0.68060  0.98950  Biso   1.000  C
  C64      1.0000 0.19960  0.68060  0.01050  Biso   1.000  C
  H57      1.0000 0.34510  0.12510  0.96020  Biso   1.000  H
  H58      1.0000 0.65490  0.12510  0.03980  Biso   1.000  H
  H59      1.0000 0.84510  0.62510  0.96020  Biso   1.000  H
  H60      1.0000 0.15490  0.62510  0.03980  Biso   1.000  H
  C65      1.0000 0.32527  0.23880  0.07903  Biso   1.000  C
  C66      1.0000 0.67473  0.23880  0.92097  Biso   1.000  C
  C67      1.0000 0.82527  0.73880  0.07903  Biso   1.000  C
  C68      1.0000 0.17473  0.73880  0.92097  Biso   1.000  C
  H61      1.0000 0.38600  0.22420  0.10890  Biso   1.000  H
  H62      1.0000 0.61400  0.22420  0.89110  Biso   1.000  H
  H63      1.0000 0.88600  0.72420  0.10890  Biso   1.000  H
  H64      1.0000 0.11400  0.72420  0.89110  Biso   1.000  H
  N13      1.0000 0.21648  0.19740  0.94061  Biso   1.000  N
  N14      1.0000 0.78352  0.19740  0.05939  Biso   1.000  N
  N15      1.0000 0.71648  0.69740  0.94061  Biso   1.000  N
  N16      1.0000 0.28352  0.69740  0.05939  Biso   1.000  N
  Cl1      1.0000 0.43898  0.96216  0.23683  Biso   1.000  Cl
  Cl2      1.0000 0.56102  0.96216  0.76317  Biso   1.000  Cl
  Cl3      1.0000 0.93898  0.46216  0.23683  Biso   1.000  Cl
  Cl4      1.0000 0.06102  0.46216  0.76317  Biso   1.000  Cl
  O1       1.0000 0.45990  0.82970  0.23570  Biso   1.000  O
  O2       1.0000 0.54010  0.82970  0.76430  Biso   1.000  O
  O3       1.0000 0.95990  0.32970  0.23570  Biso   1.000  O
  O4       1.0000 0.04010  0.32970  0.76430  Biso   1.000  O
  O5       1.0000 0.48850  0.02070  0.15690  Biso   1.000  O
  O6       1.0000 0.51150  0.02070  0.84310  Biso   1.000  O
  O7       1.0000 0.98850  0.52070  0.15690  Biso   1.000  O
  O8       1.0000 0.01150  0.52070  0.84310  Biso   1.000  O
  O9       1.0000 0.46990  0.01510  0.32930  Biso   1.000  O
  O10      1.0000 0.53010  0.01510  0.67070  Biso   1.000  O
  O11      1.0000 0.96990  0.51510  0.32930  Biso   1.000  O
  O12      1.0000 0.03010  0.51510  0.67070  Biso   1.000  O
  O13      1.0000 0.34007  0.98350  0.22390  Biso   1.000  O
  O14      1.0000 0.65993  0.98350  0.77610  Biso   1.000  O
  O15      1.0000 0.84007  0.48350  0.22390  Biso   1.000  O
  O16      1.0000 0.15993  0.48350  0.77610  Biso   1.000  O
  O17      1.0000 0.50000  0.38430  0.50000  Biso   1.000  O
  O18      1.0000 0.00000  0.88430  0.50000  Biso   1.000  O
  N17      1.0000 0.50000  0.59470  0.50000  Biso   1.000  N
  N18      1.0000 0.00000  0.09470  0.50000  Biso   1.000  N
  C69      1.0000 0.53050  0.48780  0.47250  Biso   1.000  C
  C70      1.0000 0.46950  0.48780  0.52750  Biso   1.000  C
  C71      1.0000 0.03050  0.98780  0.47250  Biso   1.000  C
  C72      1.0000 0.96950  0.98780  0.52750  Biso   1.000  C
  H65      1.0000 0.58150  0.48720  0.42650  Biso   1.000  H
  H66      1.0000 0.41850  0.48720  0.57350  Biso   1.000  H
  H67      1.0000 0.08150  0.98720  0.42650  Biso   1.000  H
  H68      1.0000 0.91850  0.98720  0.57350  Biso   1.000  H
  C73      1.0000 0.51380  0.71390  0.46430  Biso   1.000  C
  C74      1.0000 0.48620  0.71390  0.53570  Biso   1.000  C
  C75      1.0000 0.01380  0.21390  0.46430  Biso   1.000  C
  C76      1.0000 0.98620  0.21390  0.53570  Biso   1.000  C
  H69      1.0000 0.47830  0.77400  0.50520  Biso   1.000  H
  H70      1.0000 0.52170  0.77400  0.49480  Biso   1.000  H
  H71      1.0000 0.97830  0.27400  0.50520  Biso   1.000  H
  H72      1.0000 0.02170  0.27400  0.49480  Biso   1.000  H
  H73      1.0000 0.58160  0.73450  0.46810  Biso   1.000  H
  H74      1.0000 0.41840  0.73450  0.53190  Biso   1.000  H
  H75      1.0000 0.08160  0.23450  0.46810  Biso   1.000  H
  H76      1.0000 0.91840  0.23450  0.53190  Biso   1.000  H
  H77      1.0000 0.49150  0.71880  0.39390  Biso   1.000  H
  H78      1.0000 0.50850  0.71880  0.60610  Biso   1.000  H
  H79      1.0000 0.99150  0.21880  0.39390  Biso   1.000  H
  H80      1.0000 0.00850  0.21880  0.60610  Biso   1.000  H
  C77      1.0000 0.42490  0.59410  0.58530  Biso   1.000  C
  C78      1.0000 0.57510  0.59410  0.41470  Biso   1.000  C
  C79      1.0000 0.92490  0.09410  0.58530  Biso   1.000  C
  C80      1.0000 0.07510  0.09410  0.41470  Biso   1.000  C
  H81      1.0000 0.40630  0.68090  0.60070  Biso   1.000  H
  H82      1.0000 0.59370  0.68090  0.39930  Biso   1.000  H
  H83      1.0000 0.90630  0.18090  0.60070  Biso   1.000  H
  H84      1.0000 0.09370  0.18090  0.39930  Biso   1.000  H
  H85      1.0000 0.36900  0.54630  0.56280  Biso   1.000  H
  H86      1.0000 0.63100  0.54630  0.43720  Biso   1.000  H
  H87      1.0000 0.86900  0.04630  0.56280  Biso   1.000  H
  H88      1.0000 0.13100  0.04630  0.43720  Biso   1.000  H
  H89      1.0000 0.45240  0.55480  0.64610  Biso   1.000  H
  H90      1.0000 0.54760  0.55480  0.35390  Biso   1.000  H
  H91      1.0000 0.95240  0.05480  0.64610  Biso   1.000  H
  H92      1.0000 0.04760  0.05480  0.35390  Biso   1.000  H
