data_image0
_cell_length_a       10.9841
_cell_length_b       11.7707
_cell_length_c       11.3163
_cell_angle_alpha    90
_cell_angle_beta     114.35
_cell_angle_gamma    90

_symmetry_space_group_name_H-M    "P 1"
_symmetry_int_tables_number       1

loop_
  _symmetry_equiv_pos_as_xyz
  'x, y, z'

loop_
  _atom_site_label
  _atom_site_occupancy
  _atom_site_fract_x
  _atom_site_fract_y
  _atom_site_fract_z
  _atom_site_thermal_displace_type
  _atom_site_B_iso_or_equiv
  _atom_site_type_symbol
  Cu1      1.0000 0.71852  0.19276  0.19778  Biso   1.000  Cu
  Cu2      1.0000 0.21852  0.69276  0.19778  Biso   1.000  Cu
  Cu3      1.0000 0.28148  0.19276  0.30222  Biso   1.000  Cu
  Cu4      1.0000 0.78148  0.69276  0.30222  Biso   1.000  Cu
  Cu5      1.0000 0.28148  0.80724  0.80222  Biso   1.000  Cu
  Cu6      1.0000 0.78148  0.30724  0.80222  Biso   1.000  Cu
  Cu7      1.0000 0.71852  0.80724  0.69778  Biso   1.000  Cu
  Cu8      1.0000 0.21852  0.30724  0.69778  Biso   1.000  Cu
  S1       1.0000 0.00000  0.08832  0.25000  Biso   1.000  S
  S2       1.0000 0.50000  0.58832  0.25000  Biso   1.000  S
  S3       1.0000 0.00000  0.91168  0.75000  Biso   1.000  S
  S4       1.0000 0.50000  0.41168  0.75000  Biso   1.000  S
  N1       1.0000 0.58918  0.08149  0.07994  Biso   1.000  N
  N2       1.0000 0.08918  0.58149  0.07994  Biso   1.000  N
  N3       1.0000 0.41082  0.08149  0.42006  Biso   1.000  N
  N4       1.0000 0.91082  0.58149  0.42006  Biso   1.000  N
  N5       1.0000 0.41082  0.91851  0.92006  Biso   1.000  N
  N6       1.0000 0.91082  0.41851  0.92006  Biso   1.000  N
  N7       1.0000 0.58918  0.91851  0.57994  Biso   1.000  N
  N8       1.0000 0.08918  0.41851  0.57994  Biso   1.000  N
  N9       1.0000 0.74140  0.22695  0.37478  Biso   1.000  N
  N10      1.0000 0.24140  0.72695  0.37478  Biso   1.000  N
  N11      1.0000 0.25860  0.22695  0.12522  Biso   1.000  N
  N12      1.0000 0.75860  0.72695  0.12522  Biso   1.000  N
  N13      1.0000 0.25860  0.77305  0.62522  Biso   1.000  N
  N14      1.0000 0.75860  0.27305  0.62522  Biso   1.000  N
  N15      1.0000 0.74140  0.77305  0.87478  Biso   1.000  N
  N16      1.0000 0.24140  0.27305  0.87478  Biso   1.000  N
  O1       1.0000 0.89009  0.16230  0.16291  Biso   1.000  O
  O2       1.0000 0.39009  0.66230  0.16291  Biso   1.000  O
  O3       1.0000 0.10991  0.16230  0.33709  Biso   1.000  O
  O4       1.0000 0.60991  0.66230  0.33709  Biso   1.000  O
  O5       1.0000 0.10991  0.83770  0.83709  Biso   1.000  O
  O6       1.0000 0.60991  0.33770  0.83709  Biso   1.000  O
  O7       1.0000 0.89009  0.83770  0.66291  Biso   1.000  O
  O8       1.0000 0.39009  0.33770  0.66291  Biso   1.000  O
  O9       1.0000 0.68860  0.35683  0.10119  Biso   1.000  O
  O10      1.0000 0.18860  0.85683  0.10119  Biso   1.000  O
  O11      1.0000 0.31140  0.35683  0.39881  Biso   1.000  O
  O12      1.0000 0.81140  0.85683  0.39881  Biso   1.000  O
  O13      1.0000 0.31140  0.64317  0.89881  Biso   1.000  O
  O14      1.0000 0.81140  0.14317  0.89881  Biso   1.000  O
  O15      1.0000 0.68860  0.64317  0.60119  Biso   1.000  O
  O16      1.0000 0.18860  0.14317  0.60119  Biso   1.000  O
  O17      1.0000 0.04724  0.01782  0.17029  Biso   1.000  O
  O18      1.0000 0.54724  0.51782  0.17029  Biso   1.000  O
  O19      1.0000 0.95276  0.01782  0.32971  Biso   1.000  O
  O20      1.0000 0.45276  0.51782  0.32971  Biso   1.000  O
  O21      1.0000 0.95276  0.98218  0.82971  Biso   1.000  O
  O22      1.0000 0.45276  0.48218  0.82971  Biso   1.000  O
  O23      1.0000 0.04724  0.98218  0.67029  Biso   1.000  O
  O24      1.0000 0.54724  0.48218  0.67029  Biso   1.000  O
  C1       1.0000 0.56970  0.98071  0.12610  Biso   1.000  C
  C2       1.0000 0.06970  0.48071  0.12610  Biso   1.000  C
  C3       1.0000 0.43030  0.98071  0.37390  Biso   1.000  C
  C4       1.0000 0.93030  0.48071  0.37390  Biso   1.000  C
  C5       1.0000 0.43030  0.01929  0.87390  Biso   1.000  C
  C6       1.0000 0.93030  0.51929  0.87390  Biso   1.000  C
  C7       1.0000 0.56970  0.01929  0.62610  Biso   1.000  C
  C8       1.0000 0.06970  0.51929  0.62610  Biso   1.000  C
  C9       1.0000 0.51880  0.09921  0.95250  Biso   1.000  C
  C10      1.0000 0.01880  0.59921  0.95250  Biso   1.000  C
  C11      1.0000 0.48120  0.09921  0.54750  Biso   1.000  C
  C12      1.0000 0.98120  0.59921  0.54750  Biso   1.000  C
  C13      1.0000 0.48120  0.90079  0.04750  Biso   1.000  C
  C14      1.0000 0.98120  0.40079  0.04750  Biso   1.000  C
  C15      1.0000 0.51880  0.90079  0.45250  Biso   1.000  C
  C16      1.0000 0.01880  0.40079  0.45250  Biso   1.000  C
  C17      1.0000 0.81570  0.16284  0.47800  Biso   1.000  C
  C18      1.0000 0.31570  0.66284  0.47800  Biso   1.000  C
  C19      1.0000 0.18430  0.16284  0.02200  Biso   1.000  C
  C20      1.0000 0.68430  0.66284  0.02200  Biso   1.000  C
  C21      1.0000 0.18430  0.83716  0.52200  Biso   1.000  C
  C22      1.0000 0.68430  0.33716  0.52200  Biso   1.000  C
  C23      1.0000 0.81570  0.83716  0.97800  Biso   1.000  C
  C24      1.0000 0.31570  0.33716  0.97800  Biso   1.000  C
  C25      1.0000 0.67610  0.31451  0.39910  Biso   1.000  C
  C26      1.0000 0.17610  0.81451  0.39910  Biso   1.000  C
  C27      1.0000 0.32390  0.31451  0.10090  Biso   1.000  C
  C28      1.0000 0.82390  0.81451  0.10090  Biso   1.000  C
  C29      1.0000 0.32390  0.68549  0.60090  Biso   1.000  C
  C30      1.0000 0.82390  0.18549  0.60090  Biso   1.000  C
  C31      1.0000 0.67610  0.68549  0.89910  Biso   1.000  C
  C32      1.0000 0.17610  0.18549  0.89910  Biso   1.000  C
  H1       1.0000 0.53200  0.17000  0.91700  Biso   1.000  H
  H2       1.0000 0.03200  0.67000  0.91700  Biso   1.000  H
  H3       1.0000 0.46800  0.17000  0.58300  Biso   1.000  H
  H4       1.0000 0.96800  0.67000  0.58300  Biso   1.000  H
  H5       1.0000 0.46800  0.83000  0.08300  Biso   1.000  H
  H6       1.0000 0.96800  0.33000  0.08300  Biso   1.000  H
  H7       1.0000 0.53200  0.83000  0.41700  Biso   1.000  H
  H8       1.0000 0.03200  0.33000  0.41700  Biso   1.000  H
  H9       1.0000 0.86300  0.10400  0.46600  Biso   1.000  H
  H10      1.0000 0.36300  0.60400  0.46600  Biso   1.000  H
  H11      1.0000 0.13700  0.10400  0.03400  Biso   1.000  H
  H12      1.0000 0.63700  0.60400  0.03400  Biso   1.000  H
  H13      1.0000 0.13700  0.89600  0.53400  Biso   1.000  H
  H14      1.0000 0.63700  0.39600  0.53400  Biso   1.000  H
  H15      1.0000 0.86300  0.89600  0.96600  Biso   1.000  H
  H16      1.0000 0.36300  0.39600  0.96600  Biso   1.000  H
  H17      1.0000 0.62100  0.96600  0.21500  Biso   1.000  H
  H18      1.0000 0.12100  0.46600  0.21500  Biso   1.000  H
  H19      1.0000 0.37900  0.96600  0.28500  Biso   1.000  H
  H20      1.0000 0.87900  0.46600  0.28500  Biso   1.000  H
  H21      1.0000 0.37900  0.03400  0.78500  Biso   1.000  H
  H22      1.0000 0.87900  0.53400  0.78500  Biso   1.000  H
  H23      1.0000 0.62100  0.03400  0.71500  Biso   1.000  H
  H24      1.0000 0.12100  0.53400  0.71500  Biso   1.000  H
  H25      1.0000 0.62500  0.36000  0.33000  Biso   1.000  H
  H26      1.0000 0.12500  0.86000  0.33000  Biso   1.000  H
  H27      1.0000 0.37500  0.36000  0.17000  Biso   1.000  H
  H28      1.0000 0.87500  0.86000  0.17000  Biso   1.000  H
  H29      1.0000 0.37500  0.64000  0.67000  Biso   1.000  H
  H30      1.0000 0.87500  0.14000  0.67000  Biso   1.000  H
  H31      1.0000 0.62500  0.64000  0.83000  Biso   1.000  H
  H32      1.0000 0.12500  0.14000  0.83000  Biso   1.000  H
  H33      1.0000 0.64700  0.40300  0.12000  Biso   1.000  H
  H34      1.0000 0.14700  0.90300  0.12000  Biso   1.000  H
  H35      1.0000 0.35300  0.40300  0.38000  Biso   1.000  H
  H36      1.0000 0.85300  0.90300  0.38000  Biso   1.000  H
  H37      1.0000 0.35300  0.59700  0.88000  Biso   1.000  H
  H38      1.0000 0.85300  0.09700  0.88000  Biso   1.000  H
  H39      1.0000 0.64700  0.59700  0.62000  Biso   1.000  H
  H40      1.0000 0.14700  0.09700  0.62000  Biso   1.000  H
  H41      1.0000 0.66800  0.35600  0.02800  Biso   1.000  H
  H42      1.0000 0.16800  0.85600  0.02800  Biso   1.000  H
  H43      1.0000 0.33200  0.35600  0.47200  Biso   1.000  H
  H44      1.0000 0.83200  0.85600  0.47200  Biso   1.000  H
  H45      1.0000 0.33200  0.64400  0.97200  Biso   1.000  H
  H46      1.0000 0.83200  0.14400  0.97200  Biso   1.000  H
  H47      1.0000 0.66800  0.64400  0.52800  Biso   1.000  H
  H48      1.0000 0.16800  0.14400  0.52800  Biso   1.000  H
