data_image0
_cell_length_a       10.952
_cell_length_b       11.844
_cell_length_c       11.323
_cell_angle_alpha    90
_cell_angle_beta     113.98
_cell_angle_gamma    90

_symmetry_space_group_name_H-M    "P 1"
_symmetry_int_tables_number       1

loop_
  _symmetry_equiv_pos_as_xyz
  'x, y, z'

loop_
  _atom_site_label
  _atom_site_occupancy
  _atom_site_fract_x
  _atom_site_fract_y
  _atom_site_fract_z
  _atom_site_thermal_displace_type
  _atom_site_B_iso_or_equiv
  _atom_site_type_symbol
  Cu1      1.0000 0.21787  0.19122  0.19817  Biso   1.000  Cu
  Cu2      1.0000 0.71787  0.69122  0.19817  Biso   1.000  Cu
  Cu3      1.0000 0.78213  0.19122  0.30183  Biso   1.000  Cu
  Cu4      1.0000 0.28213  0.69122  0.30183  Biso   1.000  Cu
  Cu5      1.0000 0.78213  0.80878  0.80183  Biso   1.000  Cu
  Cu6      1.0000 0.28213  0.30878  0.80183  Biso   1.000  Cu
  Cu7      1.0000 0.21787  0.80878  0.69817  Biso   1.000  Cu
  Cu8      1.0000 0.71787  0.30878  0.69817  Biso   1.000  Cu
  S1       1.0000 0.50000  0.08870  0.25000  Biso   1.000  S
  S2       1.0000 0.00000  0.58870  0.25000  Biso   1.000  S
  S3       1.0000 0.50000  0.91130  0.75000  Biso   1.000  S
  S4       1.0000 0.00000  0.41130  0.75000  Biso   1.000  S
  N1       1.0000 0.23960  0.22530  0.37570  Biso   1.000  N
  N2       1.0000 0.73960  0.72530  0.37570  Biso   1.000  N
  N3       1.0000 0.76040  0.22530  0.12430  Biso   1.000  N
  N4       1.0000 0.26040  0.72530  0.12430  Biso   1.000  N
  N5       1.0000 0.76040  0.77470  0.62430  Biso   1.000  N
  N6       1.0000 0.26040  0.27470  0.62430  Biso   1.000  N
  N7       1.0000 0.23960  0.77470  0.87570  Biso   1.000  N
  N8       1.0000 0.73960  0.27470  0.87570  Biso   1.000  N
  N9       1.0000 0.08770  0.07980  0.08030  Biso   1.000  N
  N10      1.0000 0.58770  0.57980  0.08030  Biso   1.000  N
  N11      1.0000 0.91230  0.07980  0.41970  Biso   1.000  N
  N12      1.0000 0.41230  0.57980  0.41970  Biso   1.000  N
  N13      1.0000 0.91230  0.92020  0.91970  Biso   1.000  N
  N14      1.0000 0.41230  0.42020  0.91970  Biso   1.000  N
  N15      1.0000 0.08770  0.92020  0.58030  Biso   1.000  N
  N16      1.0000 0.58770  0.42020  0.58030  Biso   1.000  N
  C1       1.0000 0.17700  0.31530  0.39960  Biso   1.000  C
  C2       1.0000 0.67700  0.81530  0.39960  Biso   1.000  C
  C3       1.0000 0.82300  0.31530  0.10040  Biso   1.000  C
  C4       1.0000 0.32300  0.81530  0.10040  Biso   1.000  C
  C5       1.0000 0.82300  0.68470  0.60040  Biso   1.000  C
  C6       1.0000 0.32300  0.18470  0.60040  Biso   1.000  C
  C7       1.0000 0.17700  0.68470  0.89960  Biso   1.000  C
  C8       1.0000 0.67700  0.18470  0.89960  Biso   1.000  C
  H1       1.0000 0.12570  0.36240  0.33180  Biso   1.000  H
  H2       1.0000 0.62570  0.86240  0.33180  Biso   1.000  H
  H3       1.0000 0.87430  0.36240  0.16820  Biso   1.000  H
  H4       1.0000 0.37430  0.86240  0.16820  Biso   1.000  H
  H5       1.0000 0.87430  0.63760  0.66820  Biso   1.000  H
  H6       1.0000 0.37430  0.13760  0.66820  Biso   1.000  H
  H7       1.0000 0.12570  0.63760  0.83180  Biso   1.000  H
  H8       1.0000 0.62570  0.13760  0.83180  Biso   1.000  H
  O1       1.0000 0.54640  0.01870  0.17050  Biso   1.000  O
  O2       1.0000 0.04640  0.51870  0.17050  Biso   1.000  O
  O3       1.0000 0.45360  0.01870  0.32950  Biso   1.000  O
  O4       1.0000 0.95360  0.51870  0.32950  Biso   1.000  O
  O5       1.0000 0.45360  0.98130  0.82950  Biso   1.000  O
  O6       1.0000 0.95360  0.48130  0.82950  Biso   1.000  O
  O7       1.0000 0.54640  0.98130  0.67050  Biso   1.000  O
  O8       1.0000 0.04640  0.48130  0.67050  Biso   1.000  O
  O9       1.0000 0.39050  0.16170  0.16490  Biso   1.000  O
  O10      1.0000 0.89050  0.66170  0.16490  Biso   1.000  O
  O11      1.0000 0.60950  0.16170  0.33510  Biso   1.000  O
  O12      1.0000 0.10950  0.66170  0.33510  Biso   1.000  O
  O13      1.0000 0.60950  0.83830  0.83510  Biso   1.000  O
  O14      1.0000 0.10950  0.33830  0.83510  Biso   1.000  O
  O15      1.0000 0.39050  0.83830  0.66490  Biso   1.000  O
  O16      1.0000 0.89050  0.33830  0.66490  Biso   1.000  O
  C9       1.0000 0.01810  0.09830  0.95240  Biso   1.000  C
  C10      1.0000 0.51810  0.59830  0.95240  Biso   1.000  C
  C11      1.0000 0.98190  0.09830  0.54760  Biso   1.000  C
  C12      1.0000 0.48190  0.59830  0.54760  Biso   1.000  C
  C13      1.0000 0.98190  0.90170  0.04760  Biso   1.000  C
  C14      1.0000 0.48190  0.40170  0.04760  Biso   1.000  C
  C15      1.0000 0.01810  0.90170  0.45240  Biso   1.000  C
  C16      1.0000 0.51810  0.40170  0.45240  Biso   1.000  C
  H9       1.0000 0.02920  0.16610  0.91660  Biso   1.000  H
  H10      1.0000 0.52920  0.66610  0.91660  Biso   1.000  H
  H11      1.0000 0.97080  0.16610  0.58340  Biso   1.000  H
  H12      1.0000 0.47080  0.66610  0.58340  Biso   1.000  H
  H13      1.0000 0.97080  0.83390  0.08340  Biso   1.000  H
  H14      1.0000 0.47080  0.33390  0.08340  Biso   1.000  H
  H15      1.0000 0.02920  0.83390  0.41660  Biso   1.000  H
  H16      1.0000 0.52920  0.33390  0.41660  Biso   1.000  H
  C17      1.0000 0.06730  0.98000  0.12440  Biso   1.000  C
  C18      1.0000 0.56730  0.48000  0.12440  Biso   1.000  C
  C19      1.0000 0.93270  0.98000  0.37560  Biso   1.000  C
  C20      1.0000 0.43270  0.48000  0.37560  Biso   1.000  C
  C21      1.0000 0.93270  0.02000  0.87560  Biso   1.000  C
  C22      1.0000 0.43270  0.52000  0.87560  Biso   1.000  C
  C23      1.0000 0.06730  0.02000  0.62440  Biso   1.000  C
  C24      1.0000 0.56730  0.52000  0.62440  Biso   1.000  C
  H17      1.0000 0.11370  0.96360  0.21170  Biso   1.000  H
  H18      1.0000 0.61370  0.46360  0.21170  Biso   1.000  H
  H19      1.0000 0.88630  0.96360  0.28830  Biso   1.000  H
  H20      1.0000 0.38630  0.46360  0.28830  Biso   1.000  H
  H21      1.0000 0.88630  0.03640  0.78830  Biso   1.000  H
  H22      1.0000 0.38630  0.53640  0.78830  Biso   1.000  H
  H23      1.0000 0.11370  0.03640  0.71170  Biso   1.000  H
  H24      1.0000 0.61370  0.53640  0.71170  Biso   1.000  H
  C25      1.0000 0.31200  0.16150  0.47630  Biso   1.000  C
  C26      1.0000 0.81200  0.66150  0.47630  Biso   1.000  C
  C27      1.0000 0.68800  0.16150  0.02370  Biso   1.000  C
  C28      1.0000 0.18800  0.66150  0.02370  Biso   1.000  C
  C29      1.0000 0.68800  0.83850  0.52370  Biso   1.000  C
  C30      1.0000 0.18800  0.33850  0.52370  Biso   1.000  C
  C31      1.0000 0.31200  0.83850  0.97630  Biso   1.000  C
  C32      1.0000 0.81200  0.33850  0.97630  Biso   1.000  C
  H25      1.0000 0.35670  0.09920  0.46310  Biso   1.000  H
  H26      1.0000 0.85670  0.59920  0.46310  Biso   1.000  H
  H27      1.0000 0.64330  0.09920  0.03690  Biso   1.000  H
  H28      1.0000 0.14330  0.59920  0.03690  Biso   1.000  H
  H29      1.0000 0.64330  0.90080  0.53690  Biso   1.000  H
  H30      1.0000 0.14330  0.40080  0.53690  Biso   1.000  H
  H31      1.0000 0.35670  0.90080  0.96310  Biso   1.000  H
  H32      1.0000 0.85670  0.40080  0.96310  Biso   1.000  H
  O17      1.0000 0.18360  0.35580  0.09940  Biso   1.000  O
  O18      1.0000 0.68360  0.85580  0.09940  Biso   1.000  O
  O19      1.0000 0.81640  0.35580  0.40060  Biso   1.000  O
  O20      1.0000 0.31640  0.85580  0.40060  Biso   1.000  O
  O21      1.0000 0.81640  0.64420  0.90060  Biso   1.000  O
  O22      1.0000 0.31640  0.14420  0.90060  Biso   1.000  O
  O23      1.0000 0.18360  0.64420  0.59940  Biso   1.000  O
  O24      1.0000 0.68360  0.14420  0.59940  Biso   1.000  O
