data_image0
_cell_length_a       10.92
_cell_length_b       12.3981
_cell_length_c       13.0399
_cell_angle_alpha    113.355
_cell_angle_beta     93.775
_cell_angle_gamma    99.135

_symmetry_space_group_name_H-M    "P 1"
_symmetry_int_tables_number       1

loop_
  _symmetry_equiv_pos_as_xyz
  'x, y, z'

loop_
  _atom_site_label
  _atom_site_occupancy
  _atom_site_fract_x
  _atom_site_fract_y
  _atom_site_fract_z
  _atom_site_thermal_displace_type
  _atom_site_B_iso_or_equiv
  _atom_site_type_symbol
  P1       1.0000 0.00000  0.00000  0.50000  Biso   1.000  P
  W1       1.0000 0.70470  0.05952  0.58347  Biso   1.000  W
  W2       1.0000 0.29530  0.94048  0.41653  Biso   1.000  W
  W3       1.0000 0.97281  0.77465  0.60523  Biso   1.000  W
  W4       1.0000 0.02719  0.22535  0.39477  Biso   1.000  W
  W5       1.0000 0.75693  0.98757  0.29684  Biso   1.000  W
  W6       1.0000 0.24307  0.01243  0.70316  Biso   1.000  W
  W7       1.0000 0.94766  0.06915  0.78392  Biso   1.000  W
  W8       1.0000 0.05234  0.93085  0.21608  Biso   1.000  W
  W9       1.0000 0.73054  0.76429  0.40293  Biso   1.000  W
  W10      1.0000 0.26946  0.23571  0.59707  Biso   1.000  W
  W11      1.0000 0.97336  0.29506  0.67777  Biso   1.000  W
  W12      1.0000 0.02664  0.70494  0.32223  Biso   1.000  W
  Cu1      1.0000 0.98260  0.28210  0.12970  Biso   1.000  Cu
  Cu2      1.0000 0.01740  0.71790  0.87030  Biso   1.000  Cu
  Cu3      1.0000 0.00000  0.50000  0.00000  Biso   1.000  Cu
  O1       1.0000 0.67090  0.88920  0.51230  Biso   1.000  O
  O2       1.0000 0.32910  0.11080  0.48770  Biso   1.000  O
  O3       1.0000 0.96190  0.66520  0.65210  Biso   1.000  O
  O4       1.0000 0.03810  0.33480  0.34790  Biso   1.000  O
  O5       1.0000 0.80330  0.21760  0.63300  Biso   1.000  O
  O6       1.0000 0.19670  0.78240  0.36700  Biso   1.000  O
  O7       1.0000 0.92660  0.10400  0.91930  Biso   1.000  O
  O8       1.0000 0.07340  0.89600  0.08070  Biso   1.000  O
  O9       1.0000 0.69220  0.05850  0.43560  Biso   1.000  O
  O10      1.0000 0.30780  0.94150  0.56440  Biso   1.000  O
  O11      1.0000 0.60440  0.65010  0.35590  Biso   1.000  O
  O12      1.0000 0.39560  0.34990  0.64410  Biso   1.000  O
  O13      1.0000 0.96100  0.43530  0.76300  Biso   1.000  O
  O14      1.0000 0.03900  0.56470  0.23700  Biso   1.000  O
  O15      1.0000 0.70670  0.83540  0.30090  Biso   1.000  O
  O16      1.0000 0.29330  0.16460  0.69910  Biso   1.000  O
  O17      1.0000 0.56950  0.09080  0.62500  Biso   1.000  O
  O18      1.0000 0.43050  0.90920  0.37500  Biso   1.000  O
  O19      1.0000 0.64170  0.98250  0.20270  Biso   1.000  O
  O20      1.0000 0.35830  0.01750  0.79730  Biso   1.000  O
  O21      1.0000 0.92360  0.89970  0.72430  Biso   1.000  O
  O22      1.0000 0.07640  0.10030  0.27570  Biso   1.000  O
  O23      1.0000 0.84930  0.68630  0.31540  Biso   1.000  O
  O24      1.0000 0.15070  0.31370  0.68460  Biso   1.000  O
  O25      1.0000 0.87950  0.92200  0.20560  Biso   1.000  O
  O26      1.0000 0.12050  0.07800  0.79440  Biso   1.000  O
  O27      1.0000 0.03050  0.69540  0.46410  Biso   1.000  O
  O28      1.0000 0.96950  0.30460  0.53590  Biso   1.000  O
  O29      1.0000 0.98030  0.22250  0.78090  Biso   1.000  O
  O30      1.0000 0.01970  0.77750  0.21910  Biso   1.000  O
  O31      1.0000 0.78340  0.05110  0.71340  Biso   1.000  O
  O32      1.0000 0.21660  0.94890  0.28660  Biso   1.000  O
  O33      1.0000 0.92590  0.07110  0.59320  Biso   1.000  O
  O34      1.0000 0.07410  0.92890  0.40680  Biso   1.000  O
  O35      1.0000 0.94810  0.86640  0.46810  Biso   1.000  O
  O36      1.0000 0.05190  0.13360  0.53190  Biso   1.000  O
  O37      1.0000 0.80900  0.73800  0.52450  Biso   1.000  O
  O38      1.0000 0.19100  0.26200  0.47550  Biso   1.000  O
  O39      1.0000 0.14380  0.85610  0.65920  Biso   1.000  O
  O40      1.0000 0.85620  0.14390  0.34080  Biso   1.000  O
  O41      1.0000 0.86040  0.96440  0.46400  Biso   1.000  O
  O42      1.0000 0.13960  0.03560  0.53600  Biso   1.000  O
  O43      1.0000 0.03240  0.97300  0.60410  Biso   1.000  O
  O44      1.0000 0.96760  0.02700  0.39590  Biso   1.000  O
  O45      1.0000 0.59700  0.97800  0.81900  Biso   1.000  O
  O46      1.0000 0.40300  0.02200  0.18100  Biso   1.000  O
  N1       1.0000 0.30210  0.70200  0.54450  Biso   1.000  N
  N2       1.0000 0.69790  0.29800  0.45550  Biso   1.000  N
  N3       1.0000 0.82480  0.49630  0.99410  Biso   1.000  N
  N4       1.0000 0.17520  0.50370  0.00590  Biso   1.000  N
  N5       1.0000 0.15850  0.28510  0.12860  Biso   1.000  N
  N6       1.0000 0.84150  0.71490  0.87140  Biso   1.000  N
  N7       1.0000 0.80650  0.28020  0.13240  Biso   1.000  N
  N8       1.0000 0.19350  0.71980  0.86760  Biso   1.000  N
  C1       1.0000 0.33030  0.50340  0.47510  Biso   1.000  C
  C2       1.0000 0.66970  0.49660  0.52490  Biso   1.000  C
  H1       1.0000 0.29760  0.42140  0.43970  Biso   1.000  H
  H2       1.0000 0.70240  0.57860  0.56030  Biso   1.000  H
  C3       1.0000 0.25270  0.58210  0.49070  Biso   1.000  C
  C4       1.0000 0.74730  0.41790  0.50930  Biso   1.000  C
  H3       1.0000 0.16720  0.55480  0.46520  Biso   1.000  H
  H4       1.0000 0.83280  0.44520  0.53480  Biso   1.000  H
  C5       1.0000 0.45760  0.54400  0.51120  Biso   1.000  C
  C6       1.0000 0.54240  0.45600  0.48880  Biso   1.000  C
  C7       1.0000 0.42050  0.74200  0.57960  Biso   1.000  C
  C8       1.0000 0.57950  0.25800  0.42040  Biso   1.000  C
  H5       1.0000 0.45070  0.82440  0.61440  Biso   1.000  H
  H6       1.0000 0.54930  0.17560  0.38560  Biso   1.000  H
  C9       1.0000 0.50240  0.66720  0.56720  Biso   1.000  C
  C10      1.0000 0.49760  0.33280  0.43280  Biso   1.000  C
  H7       1.0000 0.58690  0.69790  0.59560  Biso   1.000  H
  H8       1.0000 0.41310  0.30210  0.40440  Biso   1.000  H
  C11      1.0000 0.73800  0.39660  0.92820  Biso   1.000  C
  C12      1.0000 0.26200  0.60340  0.07180  Biso   1.000  C
  H9       1.0000 0.76410  0.32740  0.88290  Biso   1.000  H
  H10      1.0000 0.23590  0.67260  0.11710  Biso   1.000  H
  C13      1.0000 0.60910  0.39640  0.92720  Biso   1.000  C
  C14      1.0000 0.39090  0.60360  0.07280  Biso   1.000  C
  H11      1.0000 0.55120  0.32800  0.87960  Biso   1.000  H
  H12      1.0000 0.44880  0.67200  0.12040  Biso   1.000  H
  C15      1.0000 0.56670  0.49900  0.99800  Biso   1.000  C
  C16      1.0000 0.43330  0.50100  0.00200  Biso   1.000  C
  C17      1.0000 0.65840  0.59850  0.06480  Biso   1.000  C
  C18      1.0000 0.34160  0.40150  0.93520  Biso   1.000  C
  H13      1.0000 0.63540  0.66840  0.11270  Biso   1.000  H
  H14      1.0000 0.36460  0.33160  0.88730  Biso   1.000  H
  C19      1.0000 0.78370  0.59430  0.06050  Biso   1.000  C
  C20      1.0000 0.21630  0.40570  0.93950  Biso   1.000  C
  H15      1.0000 0.84290  0.66270  0.10590  Biso   1.000  H
  H16      1.0000 0.15710  0.33730  0.89410  Biso   1.000  H
  C21      1.0000 0.24140  0.38210  0.18650  Biso   1.000  C
  C22      1.0000 0.75860  0.61790  0.81350  Biso   1.000  C
  H17      1.0000 0.21400  0.45290  0.22470  Biso   1.000  H
  H18      1.0000 0.78600  0.54710  0.77530  Biso   1.000  H
  C23      1.0000 0.37090  0.38480  0.19380  Biso   1.000  C
  C24      1.0000 0.62910  0.61520  0.80620  Biso   1.000  C
  H19      1.0000 0.42680  0.45580  0.23900  Biso   1.000  H
  H20      1.0000 0.57320  0.54420  0.76100  Biso   1.000  H
  C25      1.0000 0.41620  0.28190  0.13390  Biso   1.000  C
  C26      1.0000 0.58380  0.71810  0.86610  Biso   1.000  C
  C27      1.0000 0.32500  0.17920  0.06980  Biso   1.000  C
  C28      1.0000 0.67500  0.82080  0.93020  Biso   1.000  C
  H21      1.0000 0.34920  0.10810  0.02640  Biso   1.000  H
  H22      1.0000 0.65080  0.89190  0.97360  Biso   1.000  H
  C29      1.0000 0.19920  0.18240  0.07060  Biso   1.000  C
  C30      1.0000 0.80080  0.81760  0.92940  Biso   1.000  C
  H23      1.0000 0.14030  0.11210  0.03000  Biso   1.000  H
  H24      1.0000 0.85970  0.88790  0.97000  Biso   1.000  H
  C31      1.0000 0.55060  0.27890  0.13460  Biso   1.000  C
  C32      1.0000 0.44940  0.72110  0.86540  Biso   1.000  C
  C33      1.0000 0.64340  0.37800  0.20560  Biso   1.000  C
  C34      1.0000 0.35660  0.62200  0.79440  Biso   1.000  C
  H25      1.0000 0.61920  0.44630  0.25540  Biso   1.000  H
  H26      1.0000 0.38080  0.55370  0.74460  Biso   1.000  H
  C35      1.0000 0.59080  0.18180  0.06180  Biso   1.000  C
  C36      1.0000 0.40920  0.81820  0.93820  Biso   1.000  C
  H27      1.0000 0.53370  0.11290  0.01400  Biso   1.000  H
  H28      1.0000 0.46630  0.88710  0.98600  Biso   1.000  H
  C37      1.0000 0.76760  0.37680  0.20350  Biso   1.000  C
  C38      1.0000 0.23240  0.62320  0.79650  Biso   1.000  C
  H29      1.0000 0.82640  0.44390  0.25200  Biso   1.000  H
  H30      1.0000 0.17360  0.55610  0.74800  Biso   1.000  H
  C39      1.0000 0.72060  0.18820  0.06040  Biso   1.000  C
  C40      1.0000 0.27940  0.81180  0.93960  Biso   1.000  C
  H31      1.0000 0.74740  0.12460  0.00620  Biso   1.000  H
  H32      1.0000 0.25260  0.87540  0.99380  Biso   1.000  H
