data_image0
_cell_length_a       10.881
_cell_length_b       12.401
_cell_length_c       13.025
_cell_angle_alpha    113.822
_cell_angle_beta     93.527
_cell_angle_gamma    98.944

_symmetry_space_group_name_H-M    "P 1"
_symmetry_int_tables_number       1

loop_
  _symmetry_equiv_pos_as_xyz
  'x, y, z'

loop_
  _atom_site_label
  _atom_site_occupancy
  _atom_site_fract_x
  _atom_site_fract_y
  _atom_site_fract_z
  _atom_site_thermal_displace_type
  _atom_site_B_iso_or_equiv
  _atom_site_type_symbol
  Si1      1.0000 0.50000  0.00000  0.50000  Biso   1.000  Si
  Cu1      1.0000 0.51830  0.71440  0.86880  Biso   1.000  Cu
  Cu2      1.0000 0.48170  0.28560  0.13120  Biso   1.000  Cu
  Cu3      1.0000 0.50000  0.50000  0.00000  Biso   1.000  Cu
  W1       1.0000 0.52872  0.22072  0.39441  Biso   1.000  W
  W2       1.0000 0.47128  0.77928  0.60559  Biso   1.000  W
  W3       1.0000 0.26104  0.98643  0.29860  Biso   1.000  W
  W4       1.0000 0.73896  0.01357  0.70140  Biso   1.000  W
  W5       1.0000 0.55399  0.92733  0.21833  Biso   1.000  W
  W6       1.0000 0.44601  0.07267  0.78167  Biso   1.000  W
  W7       1.0000 0.23266  0.76879  0.40533  Biso   1.000  W
  W8       1.0000 0.76734  0.23121  0.59467  Biso   1.000  W
  W9       1.0000 0.47388  0.29343  0.67493  Biso   1.000  W
  W10      1.0000 0.52612  0.70657  0.32507  Biso   1.000  W
  W11      1.0000 0.20754  0.06203  0.58172  Biso   1.000  W
  W12      1.0000 0.79246  0.93797  0.41828  Biso   1.000  W
  O1       1.0000 0.46500  0.29200  0.53100  Biso   1.000  O
  O2       1.0000 0.53500  0.70800  0.46900  Biso   1.000  O
  O3       1.0000 0.21300  0.84100  0.30500  Biso   1.000  O
  O4       1.0000 0.78700  0.15900  0.69500  Biso   1.000  O
  O5       1.0000 0.72000  0.94100  0.28600  Biso   1.000  O
  O6       1.0000 0.28000  0.05900  0.71400  Biso   1.000  O
  O7       1.0000 0.35600  0.96400  0.46400  Biso   1.000  O
  O8       1.0000 0.64400  0.03600  0.53600  Biso   1.000  O
  O9       1.0000 0.57700  0.91500  0.40400  Biso   1.000  O
  O10      1.0000 0.42300  0.08500  0.59600  Biso   1.000  O
  O11      1.0000 0.52100  0.77600  0.21900  Biso   1.000  O
  O12      1.0000 0.47900  0.22400  0.78100  Biso   1.000  O
  O13      1.0000 0.57800  0.09900  0.27600  Biso   1.000  O
  O14      1.0000 0.42200  0.90100  0.72400  Biso   1.000  O
  O15      1.0000 0.46200  0.02500  0.38600  Biso   1.000  O
  O16      1.0000 0.53800  0.97500  0.61400  Biso   1.000  O
  O17      1.0000 0.35400  0.14500  0.33400  Biso   1.000  O
  O18      1.0000 0.64600  0.85500  0.66600  Biso   1.000  O
  O19      1.0000 0.19600  0.05800  0.43500  Biso   1.000  O
  O20      1.0000 0.80400  0.94200  0.56500  Biso   1.000  O
  O21      1.0000 0.14500  0.98100  0.20030  Biso   1.000  O
  O22      1.0000 0.85500  0.01900  0.79970  Biso   1.000  O
  O23      1.0000 0.17000  0.88900  0.51220  Biso   1.000  O
  O24      1.0000 0.83000  0.11100  0.48780  Biso   1.000  O
  O25      1.0000 0.30100  0.22000  0.63700  Biso   1.000  O
  O26      1.0000 0.69900  0.78000  0.36300  Biso   1.000  O
  O27      1.0000 0.37600  0.92000  0.20000  Biso   1.000  O
  O28      1.0000 0.62400  0.08000  0.80000  Biso   1.000  O
  O29      1.0000 0.35000  0.69500  0.31900  Biso   1.000  O
  O30      1.0000 0.65000  0.30500  0.68100  Biso   1.000  O
  O31      1.0000 0.07700  0.09700  0.62800  Biso   1.000  O
  O32      1.0000 0.92300  0.90300  0.37200  Biso   1.000  O
  O33      1.0000 0.10500  0.65500  0.36000  Biso   1.000  O
  O34      1.0000 0.89500  0.34500  0.64000  Biso   1.000  O
  O35      1.0000 0.46500  0.43350  0.75620  Biso   1.000  O
  O36      1.0000 0.53500  0.56650  0.24380  Biso   1.000  O
  O37      1.0000 0.57700  0.89300  0.08620  Biso   1.000  O
  O38      1.0000 0.42300  0.10700  0.91380  Biso   1.000  O
  O39      1.0000 0.54000  0.32900  0.35000  Biso   1.000  O
  O40      1.0000 0.46000  0.67100  0.65000  Biso   1.000  O
  O41      1.0000 0.68600  0.25300  0.47380  Biso   1.000  O
  O42      1.0000 0.31400  0.74700  0.52620  Biso   1.000  O
  O43      1.0000 0.44200  0.85500  0.46600  Biso   1.000  O
  O44      1.0000 0.55800  0.14500  0.53400  Biso   1.000  O
  O45      1.0000 0.08800  0.95800  0.81100  Biso   1.000  O
  O46      1.0000 0.91200  0.04200  0.18900  Biso   1.000  O
  N1       1.0000 0.20500  0.29900  0.45800  Biso   1.000  N
  N2       1.0000 0.79500  0.70100  0.54200  Biso   1.000  N
  H1       1.0000 0.25450  0.24940  0.45220  Biso   1.000  H
  H2       1.0000 0.74550  0.75060  0.54780  Biso   1.000  H
  N3       1.0000 0.34500  0.72000  0.87500  Biso   1.000  N
  N4       1.0000 0.65500  0.28000  0.12500  Biso   1.000  N
  N5       1.0000 0.69400  0.71700  0.86500  Biso   1.000  N
  N6       1.0000 0.30600  0.28300  0.13500  Biso   1.000  N
  N7       1.0000 0.67500  0.50200  0.00200  Biso   1.000  N
  N8       1.0000 0.32500  0.49800  0.99800  Biso   1.000  N
  C1       1.0000 0.95200  0.72200  0.86600  Biso   1.000  C
  C2       1.0000 0.04800  0.27800  0.13400  Biso   1.000  C
  C3       1.0000 0.08400  0.25700  0.41900  Biso   1.000  C
  C4       1.0000 0.91600  0.74300  0.58100  Biso   1.000  C
  H3       1.0000 0.05540  0.17460  0.38120  Biso   1.000  H
  H4       1.0000 0.94460  0.82540  0.61880  Biso   1.000  H
  C5       1.0000 0.25000  0.41700  0.50700  Biso   1.000  C
  C6       1.0000 0.75000  0.58300  0.49300  Biso   1.000  C
  H5       1.0000 0.33610  0.44510  0.53110  Biso   1.000  H
  H6       1.0000 0.66390  0.55490  0.46890  Biso   1.000  H
  C7       1.0000 0.76700  0.60200  0.07100  Biso   1.000  C
  C8       1.0000 0.23300  0.39800  0.92900  Biso   1.000  C
  H7       1.0000 0.74250  0.67130  0.12050  Biso   1.000  H
  H8       1.0000 0.25750  0.32870  0.87950  Biso   1.000  H
  C9       1.0000 0.17400  0.50000  0.52300  Biso   1.000  C
  C10      1.0000 0.82600  0.50000  0.47700  Biso   1.000  C
  H9       1.0000 0.20820  0.58210  0.55430  Biso   1.000  H
  H10      1.0000 0.79180  0.41790  0.44570  Biso   1.000  H
  C11      1.0000 0.89100  0.60100  0.06800  Biso   1.000  C
  C12      1.0000 0.10900  0.39900  0.93200  Biso   1.000  C
  H11      1.0000 0.94930  0.67060  0.11380  Biso   1.000  H
  H12      1.0000 0.05070  0.32940  0.88620  Biso   1.000  H
  C13      1.0000 0.78000  0.81300  0.92800  Biso   1.000  C
  C14      1.0000 0.22000  0.18700  0.07200  Biso   1.000  C
  H13      1.0000 0.75220  0.88310  0.97030  Biso   1.000  H
  H14      1.0000 0.24780  0.11690  0.02970  Biso   1.000  H
  C15      1.0000 0.25400  0.61400  0.81000  Biso   1.000  C
  C16      1.0000 0.74600  0.38600  0.19000  Biso   1.000  C
  H15      1.0000 0.28130  0.54340  0.76880  Biso   1.000  H
  H16      1.0000 0.71870  0.45660  0.23120  Biso   1.000  H
  C17      1.0000 0.73700  0.62000  0.79700  Biso   1.000  C
  C18      1.0000 0.26300  0.38000  0.20300  Biso   1.000  C
  H17      1.0000 0.67830  0.55050  0.75250  Biso   1.000  H
  H18      1.0000 0.32170  0.44950  0.24750  Biso   1.000  H
  C19      1.0000 0.85700  0.61700  0.79200  Biso   1.000  C
  C20      1.0000 0.14300  0.38300  0.20800  Biso   1.000  C
  H19      1.0000 0.88120  0.54940  0.74010  Biso   1.000  H
  H20      1.0000 0.11880  0.45060  0.25990  Biso   1.000  H
  C21      1.0000 0.90800  0.82000  0.93700  Biso   1.000  C
  C22      1.0000 0.09200  0.18000  0.06300  Biso   1.000  C
  H21      1.0000 0.96270  0.88850  0.98920  Biso   1.000  H
  H22      1.0000 0.03730  0.11150  0.01080  Biso   1.000  H
  C23      1.0000 0.18000  0.81700  0.92600  Biso   1.000  C
  C24      1.0000 0.82000  0.18300  0.07400  Biso   1.000  C
  H23      1.0000 0.15660  0.89030  0.96640  Biso   1.000  H
  H24      1.0000 0.84340  0.10970  0.03360  Biso   1.000  H
  C25      1.0000 0.29800  0.81200  0.93000  Biso   1.000  C
  C26      1.0000 0.70200  0.18800  0.07000  Biso   1.000  C
  H25      1.0000 0.35460  0.88170  0.97680  Biso   1.000  H
  H26      1.0000 0.64540  0.11830  0.02320  Biso   1.000  H
  C27      1.0000 0.99600  0.33300  0.43200  Biso   1.000  C
  C28      1.0000 0.00400  0.66700  0.56800  Biso   1.000  C
  H27      1.0000 0.91180  0.30090  0.40470  Biso   1.000  H
  H28      1.0000 0.08820  0.69910  0.59530  Biso   1.000  H
  C29      1.0000 0.93500  0.50000  0.99800  Biso   1.000  C
  C30      1.0000 0.06500  0.50000  0.00200  Biso   1.000  C
  C31      1.0000 0.08600  0.71500  0.86200  Biso   1.000  C
  C32      1.0000 0.91400  0.28500  0.13800  Biso   1.000  C
  C33      1.0000 0.84000  0.40400  0.93400  Biso   1.000  C
  C34      1.0000 0.16000  0.59600  0.06600  Biso   1.000  C
  H29      1.0000 0.86130  0.33200  0.88600  Biso   1.000  H
  H30      1.0000 0.13870  0.66800  0.11400  Biso   1.000  H
  C35      1.0000 0.71900  0.40900  0.93800  Biso   1.000  C
  C36      1.0000 0.28100  0.59100  0.06200  Biso   1.000  C
  H31      1.0000 0.66140  0.34000  0.89170  Biso   1.000  H
  H32      1.0000 0.33860  0.66000  0.10830  Biso   1.000  H
  C37      1.0000 0.04200  0.45900  0.49000  Biso   1.000  C
  C38      1.0000 0.95800  0.54100  0.51000  Biso   1.000  C
  C39      1.0000 0.12900  0.61300  0.80600  Biso   1.000  C
  C40      1.0000 0.87100  0.38700  0.19400  Biso   1.000  C
  H33      1.0000 0.07180  0.54080  0.76510  Biso   1.000  H
  H34      1.0000 0.92820  0.45920  0.23490  Biso   1.000  H
