data_image0
_cell_length_a       8.857
_cell_length_b       8.002
_cell_length_c       9.246
_cell_angle_alpha    90
_cell_angle_beta     112.314
_cell_angle_gamma    90

_symmetry_space_group_name_H-M    "P 1"
_symmetry_int_tables_number       1

loop_
  _symmetry_equiv_pos_as_xyz
  'x, y, z'

loop_
  _atom_site_label
  _atom_site_occupancy
  _atom_site_fract_x
  _atom_site_fract_y
  _atom_site_fract_z
  _atom_site_thermal_displace_type
  _atom_site_B_iso_or_equiv
  _atom_site_type_symbol
  Cu1      1.0000 0.56560  0.13626  0.62136  Biso   1.000  Cu
  Cu2      1.0000 0.93440  0.63626  0.87864  Biso   1.000  Cu
  Cu3      1.0000 0.43440  0.86374  0.37864  Biso   1.000  Cu
  Cu4      1.0000 0.06560  0.36374  0.12136  Biso   1.000  Cu
  C1       1.0000 0.36780  0.43050  0.61570  Biso   1.000  C
  C2       1.0000 0.13220  0.93050  0.88430  Biso   1.000  C
  C3       1.0000 0.63220  0.56950  0.38430  Biso   1.000  C
  C4       1.0000 0.86780  0.06950  0.11570  Biso   1.000  C
  H1       1.0000 0.46820  0.48470  0.65410  Biso   1.000  H
  H2       1.0000 0.03180  0.98470  0.84590  Biso   1.000  H
  H3       1.0000 0.53180  0.51530  0.34590  Biso   1.000  H
  H4       1.0000 0.96820  0.01530  0.15410  Biso   1.000  H
  C5       1.0000 0.22840  0.52520  0.57920  Biso   1.000  C
  C6       1.0000 0.27160  0.02520  0.92080  Biso   1.000  C
  C7       1.0000 0.77160  0.47480  0.42080  Biso   1.000  C
  C8       1.0000 0.72840  0.97480  0.07920  Biso   1.000  C
  H5       1.0000 0.23680  0.64040  0.59380  Biso   1.000  H
  H6       1.0000 0.26320  0.14040  0.90620  Biso   1.000  H
  H7       1.0000 0.76320  0.35960  0.40620  Biso   1.000  H
  H8       1.0000 0.73680  0.85960  0.09380  Biso   1.000  H
  C9       1.0000 0.07690  0.45100  0.52140  Biso   1.000  C
  C10      1.0000 0.42310  0.95100  0.97860  Biso   1.000  C
  C11      1.0000 0.92310  0.54900  0.47860  Biso   1.000  C
  C12      1.0000 0.57690  0.04900  0.02140  Biso   1.000  C
  C13      1.0000 0.07550  0.27800  0.50430  Biso   1.000  C
  C14      1.0000 0.42450  0.77800  0.99570  Biso   1.000  C
  C15      1.0000 0.92450  0.72200  0.49570  Biso   1.000  C
  C16      1.0000 0.57550  0.22200  0.00430  Biso   1.000  C
  H9       1.0000 0.97680  0.22080  0.46620  Biso   1.000  H
  H10      1.0000 0.52320  0.72080  0.03380  Biso   1.000  H
  H11      1.0000 0.02320  0.77920  0.53380  Biso   1.000  H
  H12      1.0000 0.47680  0.27920  0.96620  Biso   1.000  H
  C17      1.0000 0.21950  0.19200  0.54340  Biso   1.000  C
  C18      1.0000 0.28050  0.69200  0.95660  Biso   1.000  C
  C19      1.0000 0.78050  0.80800  0.45660  Biso   1.000  C
  C20      1.0000 0.71950  0.30800  0.04340  Biso   1.000  C
  H13      1.0000 0.21480  0.07660  0.53050  Biso   1.000  H
  H14      1.0000 0.28520  0.57660  0.96950  Biso   1.000  H
  H15      1.0000 0.78520  0.92340  0.46950  Biso   1.000  H
  H16      1.0000 0.71480  0.42340  0.03050  Biso   1.000  H
  N1       1.0000 0.36640  0.26500  0.59900  Biso   1.000  N
  N2       1.0000 0.13360  0.76500  0.90100  Biso   1.000  N
  N3       1.0000 0.63360  0.73500  0.40100  Biso   1.000  N
  N4       1.0000 0.86640  0.23500  0.09900  Biso   1.000  N
  N5       1.0000 0.51690  0.88680  0.65410  Biso   1.000  N
  N6       1.0000 0.98310  0.38680  0.84590  Biso   1.000  N
  N7       1.0000 0.48310  0.11320  0.34590  Biso   1.000  N
  N8       1.0000 0.01690  0.61320  0.15410  Biso   1.000  N
  N9       1.0000 0.61540  0.78980  0.73020  Biso   1.000  N
  N10      1.0000 0.88460  0.28980  0.76980  Biso   1.000  N
  N11      1.0000 0.38460  0.21020  0.26980  Biso   1.000  N
  N12      1.0000 0.11540  0.71020  0.23020  Biso   1.000  N
  N13      1.0000 0.20550  0.81410  0.30390  Biso   1.000  N
  N14      1.0000 0.29450  0.31410  0.19610  Biso   1.000  N
  N15      1.0000 0.79450  0.18590  0.69610  Biso   1.000  N
  N16      1.0000 0.70550  0.68590  0.80390  Biso   1.000  N
