data_image0
_cell_length_a       8.8107
_cell_length_b       8.0616
_cell_length_c       9.2636
_cell_angle_alpha    90
_cell_angle_beta     112.53
_cell_angle_gamma    90

_symmetry_space_group_name_H-M    "P 1"
_symmetry_int_tables_number       1

loop_
  _symmetry_equiv_pos_as_xyz
  'x, y, z'

loop_
  _atom_site_label
  _atom_site_occupancy
  _atom_site_fract_x
  _atom_site_fract_y
  _atom_site_fract_z
  _atom_site_thermal_displace_type
  _atom_site_B_iso_or_equiv
  _atom_site_type_symbol
  Cu1      1.0000 0.43386  0.13310  0.37825  Biso   1.000  Cu
  Cu2      1.0000 0.06614  0.63310  0.12175  Biso   1.000  Cu
  Cu3      1.0000 0.56614  0.86690  0.62175  Biso   1.000  Cu
  Cu4      1.0000 0.93386  0.36690  0.87825  Biso   1.000  Cu
  N1       1.0000 0.63340  0.26280  0.40120  Biso   1.000  N
  N2       1.0000 0.86660  0.76280  0.09880  Biso   1.000  N
  N3       1.0000 0.36660  0.73720  0.59880  Biso   1.000  N
  N4       1.0000 0.13340  0.23720  0.90120  Biso   1.000  N
  N5       1.0000 0.70440  0.31240  0.80360  Biso   1.000  N
  N6       1.0000 0.79560  0.81240  0.69640  Biso   1.000  N
  N7       1.0000 0.29560  0.68760  0.19640  Biso   1.000  N
  N8       1.0000 0.20440  0.18760  0.30360  Biso   1.000  N
  N9       1.0000 0.61450  0.20970  0.72950  Biso   1.000  N
  N10      1.0000 0.88550  0.70970  0.77050  Biso   1.000  N
  N11      1.0000 0.38550  0.79030  0.27050  Biso   1.000  N
  N12      1.0000 0.11450  0.29030  0.22950  Biso   1.000  N
  N13      1.0000 0.51610  0.11280  0.65420  Biso   1.000  N
  N14      1.0000 0.98390  0.61280  0.84580  Biso   1.000  N
  N15      1.0000 0.48390  0.88720  0.34580  Biso   1.000  N
  N16      1.0000 0.01610  0.38720  0.15420  Biso   1.000  N
  C1       1.0000 0.63000  0.42720  0.38390  Biso   1.000  C
  C2       1.0000 0.87000  0.92720  0.11610  Biso   1.000  C
  C3       1.0000 0.37000  0.57280  0.61610  Biso   1.000  C
  C4       1.0000 0.13000  0.07280  0.88390  Biso   1.000  C
  H1       1.0000 0.52820  0.47960  0.34490  Biso   1.000  H
  H2       1.0000 0.97180  0.97960  0.15510  Biso   1.000  H
  H3       1.0000 0.47180  0.52040  0.65510  Biso   1.000  H
  H4       1.0000 0.02820  0.02040  0.84490  Biso   1.000  H
  C5       1.0000 0.76940  0.52430  0.42070  Biso   1.000  C
  C6       1.0000 0.73060  0.02430  0.07930  Biso   1.000  C
  C7       1.0000 0.23060  0.47570  0.57930  Biso   1.000  C
  C8       1.0000 0.26940  0.97570  0.92070  Biso   1.000  C
  H5       1.0000 0.75980  0.63860  0.40690  Biso   1.000  H
  H6       1.0000 0.74020  0.13860  0.09310  Biso   1.000  H
  H7       1.0000 0.24020  0.36140  0.59310  Biso   1.000  H
  H8       1.0000 0.25980  0.86140  0.90690  Biso   1.000  H
  C9       1.0000 0.92330  0.45060  0.47840  Biso   1.000  C
  C10      1.0000 0.57670  0.95060  0.02160  Biso   1.000  C
  C11      1.0000 0.07670  0.54940  0.52160  Biso   1.000  C
  C12      1.0000 0.42330  0.04940  0.97840  Biso   1.000  C
  C13      1.0000 0.92640  0.27880  0.49540  Biso   1.000  C
  C14      1.0000 0.57360  0.77880  0.00460  Biso   1.000  C
  C15      1.0000 0.07360  0.72120  0.50460  Biso   1.000  C
  C16      1.0000 0.42640  0.22120  0.99540  Biso   1.000  C
  H9       1.0000 0.02630  0.22290  0.53360  Biso   1.000  H
  H10      1.0000 0.47370  0.72290  0.96640  Biso   1.000  H
  H11      1.0000 0.97370  0.77710  0.46640  Biso   1.000  H
  H12      1.0000 0.52630  0.27710  0.03360  Biso   1.000  H
  C17      1.0000 0.78140  0.19140  0.45560  Biso   1.000  C
  C18      1.0000 0.71860  0.69140  0.04440  Biso   1.000  C
  C19      1.0000 0.21860  0.80860  0.54440  Biso   1.000  C
  C20      1.0000 0.28140  0.30860  0.95560  Biso   1.000  C
  H13      1.0000 0.78710  0.07680  0.46740  Biso   1.000  H
  H14      1.0000 0.71290  0.57680  0.03260  Biso   1.000  H
  H15      1.0000 0.21290  0.92320  0.53260  Biso   1.000  H
  H16      1.0000 0.28710  0.42320  0.96740  Biso   1.000  H
