data_image0
_cell_length_a       10.033
_cell_length_b       8.7293
_cell_length_c       12.3735
_cell_angle_alpha    90
_cell_angle_beta     91.421
_cell_angle_gamma    90

_symmetry_space_group_name_H-M    "P 1"
_symmetry_int_tables_number       1

loop_
  _symmetry_equiv_pos_as_xyz
  'x, y, z'

loop_
  _atom_site_label
  _atom_site_occupancy
  _atom_site_fract_x
  _atom_site_fract_y
  _atom_site_fract_z
  _atom_site_thermal_displace_type
  _atom_site_B_iso_or_equiv
  _atom_site_type_symbol
  I1       1.0000 0.40888  0.99746  0.83354  Biso   1.000  I
  I2       1.0000 0.90888  0.50254  0.33354  Biso   1.000  I
  I3       1.0000 0.59112  0.00254  0.16646  Biso   1.000  I
  I4       1.0000 0.09112  0.49746  0.66646  Biso   1.000  I
  Cu1      1.0000 0.59143  0.88416  0.96763  Biso   1.000  Cu
  Cu2      1.0000 0.09143  0.61584  0.46763  Biso   1.000  Cu
  Cu3      1.0000 0.40857  0.11584  0.03237  Biso   1.000  Cu
  Cu4      1.0000 0.90857  0.38416  0.53237  Biso   1.000  Cu
  S1       1.0000 0.86523  0.55424  0.91274  Biso   1.000  S
  S2       1.0000 0.36523  0.94576  0.41274  Biso   1.000  S
  S3       1.0000 0.13477  0.44576  0.08726  Biso   1.000  S
  S4       1.0000 0.63477  0.05424  0.58726  Biso   1.000  S
  N1       1.0000 0.77860  0.94080  0.91100  Biso   1.000  N
  N2       1.0000 0.27860  0.55920  0.41100  Biso   1.000  N
  N3       1.0000 0.22140  0.05920  0.08900  Biso   1.000  N
  N4       1.0000 0.72140  0.44080  0.58900  Biso   1.000  N
  N5       1.0000 0.53920  0.65180  0.98230  Biso   1.000  N
  N6       1.0000 0.03920  0.84820  0.48230  Biso   1.000  N
  N7       1.0000 0.46080  0.34820  0.01770  Biso   1.000  N
  N8       1.0000 0.96080  0.15180  0.51770  Biso   1.000  N
  C1       1.0000 0.82890  0.07850  0.93620  Biso   1.000  C
  C2       1.0000 0.32890  0.42150  0.43620  Biso   1.000  C
  C3       1.0000 0.17110  0.92150  0.06380  Biso   1.000  C
  C4       1.0000 0.67110  0.57850  0.56380  Biso   1.000  C
  H1       1.0000 0.78260  0.13850  0.98470  Biso   1.000  H
  H2       1.0000 0.28260  0.36150  0.48470  Biso   1.000  H
  H3       1.0000 0.21740  0.86150  0.01530  Biso   1.000  H
  H4       1.0000 0.71740  0.63850  0.51530  Biso   1.000  H
  C5       1.0000 0.94470  0.13770  0.89520  Biso   1.000  C
  C6       1.0000 0.44470  0.36230  0.39520  Biso   1.000  C
  C7       1.0000 0.05530  0.86230  0.10480  Biso   1.000  C
  C8       1.0000 0.55530  0.63770  0.60480  Biso   1.000  C
  H5       1.0000 0.97460  0.23480  0.91490  Biso   1.000  H
  H6       1.0000 0.47460  0.26520  0.41490  Biso   1.000  H
  H7       1.0000 0.02540  0.76520  0.08510  Biso   1.000  H
  H8       1.0000 0.52540  0.73480  0.58510  Biso   1.000  H
  C9       1.0000 0.01480  0.04860  0.82420  Biso   1.000  C
  C10      1.0000 0.51480  0.45140  0.32420  Biso   1.000  C
  C11      1.0000 0.98520  0.95140  0.17580  Biso   1.000  C
  C12      1.0000 0.48520  0.54860  0.67580  Biso   1.000  C
  H9       1.0000 0.09310  0.08450  0.79450  Biso   1.000  H
  H10      1.0000 0.59310  0.41550  0.29450  Biso   1.000  H
  H11      1.0000 0.90690  0.91550  0.20550  Biso   1.000  H
  H12      1.0000 0.40690  0.58450  0.70550  Biso   1.000  H
  C13      1.0000 0.96670  0.90590  0.79830  Biso   1.000  C
  C14      1.0000 0.46670  0.59410  0.29830  Biso   1.000  C
  C15      1.0000 0.03330  0.09410  0.20170  Biso   1.000  C
  C16      1.0000 0.53330  0.40590  0.70170  Biso   1.000  C
  H13      1.0000 0.01290  0.84360  0.75120  Biso   1.000  H
  H14      1.0000 0.51290  0.65640  0.25120  Biso   1.000  H
  H15      1.0000 0.98710  0.15640  0.24880  Biso   1.000  H
  H16      1.0000 0.48710  0.34360  0.74880  Biso   1.000  H
  C17      1.0000 0.84780  0.85390  0.84270  Biso   1.000  C
  C18      1.0000 0.34780  0.64610  0.34270  Biso   1.000  C
  C19      1.0000 0.15220  0.14610  0.15730  Biso   1.000  C
  C20      1.0000 0.65220  0.35390  0.65730  Biso   1.000  C
  C21      1.0000 0.79720  0.69600  0.81850  Biso   1.000  C
  C22      1.0000 0.29720  0.80400  0.31850  Biso   1.000  C
  C23      1.0000 0.20280  0.30400  0.18150  Biso   1.000  C
  C24      1.0000 0.70280  0.19600  0.68150  Biso   1.000  C
  H17      1.0000 0.29930  0.30440  0.17800  Biso   1.000  H
  H18      1.0000 0.79930  0.19560  0.67800  Biso   1.000  H
  H19      1.0000 0.70070  0.69560  0.82200  Biso   1.000  H
  H20      1.0000 0.20070  0.80440  0.32200  Biso   1.000  H
  H21      1.0000 0.17920  0.33200  0.25440  Biso   1.000  H
  H22      1.0000 0.67920  0.16800  0.75440  Biso   1.000  H
  H23      1.0000 0.82080  0.66800  0.74560  Biso   1.000  H
  H24      1.0000 0.32080  0.83200  0.24560  Biso   1.000  H
  C25      1.0000 0.76990  0.59290  0.03460  Biso   1.000  C
  C26      1.0000 0.26990  0.90710  0.53460  Biso   1.000  C
  C27      1.0000 0.23010  0.40710  0.96540  Biso   1.000  C
  C28      1.0000 0.73010  0.09290  0.46540  Biso   1.000  C
  H25      1.0000 0.77440  0.70140  0.05130  Biso   1.000  H
  H26      1.0000 0.27440  0.79860  0.55130  Biso   1.000  H
  H27      1.0000 0.22560  0.29860  0.94870  Biso   1.000  H
  H28      1.0000 0.72560  0.20140  0.44870  Biso   1.000  H
  H29      1.0000 0.80910  0.53710  0.09520  Biso   1.000  H
  H30      1.0000 0.30910  0.96290  0.59520  Biso   1.000  H
  H31      1.0000 0.19090  0.46290  0.90480  Biso   1.000  H
  H32      1.0000 0.69090  0.03710  0.40480  Biso   1.000  H
  C29      1.0000 0.62730  0.54640  0.01890  Biso   1.000  C
  C30      1.0000 0.12730  0.95360  0.51890  Biso   1.000  C
  C31      1.0000 0.37270  0.45360  0.98110  Biso   1.000  C
  C32      1.0000 0.87270  0.04640  0.48110  Biso   1.000  C
  C33      1.0000 0.41380  0.60380  0.96350  Biso   1.000  C
  C34      1.0000 0.91380  0.89620  0.46350  Biso   1.000  C
  C35      1.0000 0.58620  0.39620  0.03650  Biso   1.000  C
  C36      1.0000 0.08620  0.10380  0.53650  Biso   1.000  C
  H33      1.0000 0.64870  0.32580  0.06260  Biso   1.000  H
  H34      1.0000 0.14870  0.17420  0.56260  Biso   1.000  H
  H35      1.0000 0.35130  0.67420  0.93740  Biso   1.000  H
  H36      1.0000 0.85130  0.82580  0.43740  Biso   1.000  H
