data_image0
_cell_length_a       3.886
_cell_length_b       18.543
_cell_length_c       11.888
_cell_angle_alpha    90
_cell_angle_beta     92.659
_cell_angle_gamma    90

_symmetry_space_group_name_H-M    "P 1"
_symmetry_int_tables_number       1

loop_
  _symmetry_equiv_pos_as_xyz
  'x, y, z'

loop_
  _atom_site_label
  _atom_site_occupancy
  _atom_site_fract_x
  _atom_site_fract_y
  _atom_site_fract_z
  _atom_site_thermal_displace_type
  _atom_site_B_iso_or_equiv
  _atom_site_type_symbol
  Cu1      1.0000 0.99650  0.13120  0.07200  Biso   1.000  Cu
  Cu2      1.0000 0.00350  0.63120  0.42800  Biso   1.000  Cu
  Cu3      1.0000 0.00350  0.86880  0.92800  Biso   1.000  Cu
  Cu4      1.0000 0.99650  0.36880  0.57200  Biso   1.000  Cu
  Cu5      1.0000 0.49160  0.00990  0.13150  Biso   1.000  Cu
  Cu6      1.0000 0.50840  0.50990  0.36850  Biso   1.000  Cu
  Cu7      1.0000 0.50840  0.99010  0.86850  Biso   1.000  Cu
  Cu8      1.0000 0.49160  0.49010  0.63150  Biso   1.000  Cu
  Cl1      1.0000 0.49100  0.10000  0.95940  Biso   1.000  Cl
  Cl2      1.0000 0.50900  0.60000  0.54060  Biso   1.000  Cl
  Cl3      1.0000 0.50900  0.90000  0.04060  Biso   1.000  Cl
  Cl4      1.0000 0.49100  0.40000  0.45940  Biso   1.000  Cl
  Cl5      1.0000 0.01070  0.04210  0.22320  Biso   1.000  Cl
  Cl6      1.0000 0.98930  0.54210  0.27680  Biso   1.000  Cl
  Cl7      1.0000 0.98930  0.95790  0.77680  Biso   1.000  Cl
  Cl8      1.0000 0.01070  0.45790  0.72320  Biso   1.000  Cl
  O1       1.0000 0.82500  0.28290  0.04570  Biso   1.000  O
  O2       1.0000 0.17500  0.78290  0.45430  Biso   1.000  O
  O3       1.0000 0.17500  0.71710  0.95430  Biso   1.000  O
  O4       1.0000 0.82500  0.21710  0.54570  Biso   1.000  O
  N1       1.0000 0.98900  0.23210  0.11920  Biso   1.000  N
  N2       1.0000 0.01100  0.73210  0.38080  Biso   1.000  N
  N3       1.0000 0.01100  0.76790  0.88080  Biso   1.000  N
  N4       1.0000 0.98900  0.26790  0.61920  Biso   1.000  N
  C1       1.0000 0.09200  0.26750  0.20830  Biso   1.000  C
  C2       1.0000 0.90800  0.76750  0.29170  Biso   1.000  C
  C3       1.0000 0.90800  0.73250  0.79170  Biso   1.000  C
  C4       1.0000 0.09200  0.23250  0.70830  Biso   1.000  C
  C5       1.0000 0.00000  0.34020  0.19770  Biso   1.000  C
  C6       1.0000 0.00000  0.84020  0.30230  Biso   1.000  C
  C7       1.0000 0.00000  0.65980  0.80230  Biso   1.000  C
  C8       1.0000 0.00000  0.15980  0.69770  Biso   1.000  C
  C9       1.0000 0.83800  0.34720  0.09760  Biso   1.000  C
  C10      1.0000 0.16200  0.84720  0.40240  Biso   1.000  C
  C11      1.0000 0.16200  0.65280  0.90240  Biso   1.000  C
  C12      1.0000 0.83800  0.15280  0.59760  Biso   1.000  C
  C13      1.0000 0.68400  0.40810  0.03160  Biso   1.000  C
  C14      1.0000 0.31600  0.90810  0.46840  Biso   1.000  C
  C15      1.0000 0.31600  0.59190  0.96840  Biso   1.000  C
  C16      1.0000 0.68400  0.09190  0.53160  Biso   1.000  C
  C17      1.0000 0.27600  0.23000  0.30390  Biso   1.000  C
  C18      1.0000 0.72400  0.73000  0.19610  Biso   1.000  C
  C19      1.0000 0.72400  0.77000  0.69610  Biso   1.000  C
  C20      1.0000 0.27600  0.27000  0.80390  Biso   1.000  C
