data_image0
_cell_length_a       9.6773
_cell_length_b       21.6939
_cell_length_c       9.3825
_cell_angle_alpha    90
_cell_angle_beta     115.312
_cell_angle_gamma    90

_symmetry_space_group_name_H-M    "P 1"
_symmetry_int_tables_number       1

loop_
  _symmetry_equiv_pos_as_xyz
  'x, y, z'

loop_
  _atom_site_label
  _atom_site_occupancy
  _atom_site_fract_x
  _atom_site_fract_y
  _atom_site_fract_z
  _atom_site_thermal_displace_type
  _atom_site_B_iso_or_equiv
  _atom_site_type_symbol
  La1      1.0000 0.63832  0.00857  0.87795  Biso   1.000  La
  La2      1.0000 0.36168  0.50857  0.62205  Biso   1.000  La
  La3      1.0000 0.36168  0.99143  0.12205  Biso   1.000  La
  La4      1.0000 0.63832  0.49143  0.37795  Biso   1.000  La
  Cu1      1.0000 0.69126  0.14390  0.54358  Biso   1.000  Cu
  Cu2      1.0000 0.30874  0.64390  0.95642  Biso   1.000  Cu
  Cu3      1.0000 0.30874  0.85610  0.45642  Biso   1.000  Cu
  Cu4      1.0000 0.69126  0.35610  0.04358  Biso   1.000  Cu
  C1       1.0000 0.87210  0.13077  0.37240  Biso   1.000  C
  C2       1.0000 0.12790  0.63077  0.12760  Biso   1.000  C
  C3       1.0000 0.12790  0.86923  0.62760  Biso   1.000  C
  C4       1.0000 0.87210  0.36923  0.87240  Biso   1.000  C
  H1       1.0000 0.79320  0.15350  0.29700  Biso   1.000  H
  H2       1.0000 0.20680  0.65350  0.20300  Biso   1.000  H
  H3       1.0000 0.20680  0.84650  0.70300  Biso   1.000  H
  H4       1.0000 0.79320  0.34650  0.79700  Biso   1.000  H
  C5       1.0000 0.99210  0.11400  0.34030  Biso   1.000  C
  C6       1.0000 0.00790  0.61400  0.15970  Biso   1.000  C
  C7       1.0000 0.00790  0.88600  0.65970  Biso   1.000  C
  C8       1.0000 0.99210  0.38600  0.84030  Biso   1.000  C
  H5       1.0000 0.99270  0.12380  0.24410  Biso   1.000  H
  H6       1.0000 0.00730  0.62380  0.25590  Biso   1.000  H
  H7       1.0000 0.00730  0.87620  0.75590  Biso   1.000  H
  H8       1.0000 0.99270  0.37620  0.74410  Biso   1.000  H
  C9       1.0000 0.11290  0.08194  0.45410  Biso   1.000  C
  C10      1.0000 0.88710  0.58194  0.04590  Biso   1.000  C
  C11      1.0000 0.88710  0.91806  0.54590  Biso   1.000  C
  C12      1.0000 0.11290  0.41806  0.95410  Biso   1.000  C
  H9       1.0000 0.19710  0.07080  0.43660  Biso   1.000  H
  H10      1.0000 0.80290  0.57080  0.06340  Biso   1.000  H
  H11      1.0000 0.80290  0.92920  0.56340  Biso   1.000  H
  H12      1.0000 0.19710  0.42920  0.93660  Biso   1.000  H
  C13      1.0000 0.10620  0.06686  0.59460  Biso   1.000  C
  C14      1.0000 0.89380  0.56686  0.90540  Biso   1.000  C
  C15      1.0000 0.89380  0.93314  0.40540  Biso   1.000  C
  C16      1.0000 0.10620  0.43314  0.09460  Biso   1.000  C
  C17      1.0000 0.97830  0.08396  0.61480  Biso   1.000  C
  C18      1.0000 0.02170  0.58396  0.88520  Biso   1.000  C
  C19      1.0000 0.02170  0.91604  0.38520  Biso   1.000  C
  C20      1.0000 0.97830  0.41604  0.11480  Biso   1.000  C
  H13      1.0000 0.97230  0.07260  0.70760  Biso   1.000  H
  H14      1.0000 0.02770  0.57260  0.79240  Biso   1.000  H
  H15      1.0000 0.02770  0.92740  0.29240  Biso   1.000  H
  H16      1.0000 0.97230  0.42740  0.20760  Biso   1.000  H
  C21      1.0000 0.23650  0.03352  0.72410  Biso   1.000  C
  C22      1.0000 0.76350  0.53352  0.77590  Biso   1.000  C
  C23      1.0000 0.76350  0.96648  0.27590  Biso   1.000  C
  C24      1.0000 0.23650  0.46648  0.22410  Biso   1.000  C
  C25      1.0000 0.44470  0.30439  0.10310  Biso   1.000  C
  C26      1.0000 0.55530  0.80439  0.39690  Biso   1.000  C
  C27      1.0000 0.55530  0.69561  0.89690  Biso   1.000  C
  C28      1.0000 0.44470  0.19561  0.60310  Biso   1.000  C
  H17      1.0000 0.42560  0.34490  0.12200  Biso   1.000  H
  H18      1.0000 0.57440  0.84490  0.37800  Biso   1.000  H
  H19      1.0000 0.57440  0.65510  0.87800  Biso   1.000  H
  H20      1.0000 0.42560  0.15510  0.62200  Biso   1.000  H
  C29      1.0000 0.35580  0.25840  0.12060  Biso   1.000  C
  C30      1.0000 0.64420  0.75840  0.37940  Biso   1.000  C
  C31      1.0000 0.64420  0.74160  0.87940  Biso   1.000  C
  C32      1.0000 0.35580  0.24160  0.62060  Biso   1.000  C
  H21      1.0000 0.27870  0.26780  0.15130  Biso   1.000  H
  H22      1.0000 0.72130  0.76780  0.34870  Biso   1.000  H
  H23      1.0000 0.72130  0.73220  0.84870  Biso   1.000  H
  H24      1.0000 0.27870  0.23220  0.65130  Biso   1.000  H
  C33      1.0000 0.38180  0.19776  0.09200  Biso   1.000  C
  C34      1.0000 0.61820  0.69776  0.40800  Biso   1.000  C
  C35      1.0000 0.61820  0.80224  0.90800  Biso   1.000  C
  C36      1.0000 0.38180  0.30224  0.59200  Biso   1.000  C
  H25      1.0000 0.32340  0.16590  0.10390  Biso   1.000  H
  H26      1.0000 0.67660  0.66590  0.39610  Biso   1.000  H
  H27      1.0000 0.67660  0.83410  0.89610  Biso   1.000  H
  H28      1.0000 0.32340  0.33410  0.60390  Biso   1.000  H
  C37      1.0000 0.49690  0.18587  0.04540  Biso   1.000  C
  C38      1.0000 0.50310  0.68587  0.45460  Biso   1.000  C
  C39      1.0000 0.50310  0.81413  0.95460  Biso   1.000  C
  C40      1.0000 0.49690  0.31413  0.54540  Biso   1.000  C
  C41      1.0000 0.58110  0.23519  0.03020  Biso   1.000  C
  C42      1.0000 0.41890  0.73519  0.46980  Biso   1.000  C
  C43      1.0000 0.41890  0.76481  0.96980  Biso   1.000  C
  C44      1.0000 0.58110  0.26481  0.53020  Biso   1.000  C
  H29      1.0000 0.65760  0.22720  0.99770  Biso   1.000  H
  H30      1.0000 0.34240  0.72720  0.50230  Biso   1.000  H
  H31      1.0000 0.34240  0.77280  0.00230  Biso   1.000  H
  H32      1.0000 0.65760  0.27280  0.49770  Biso   1.000  H
  C45      1.0000 0.53530  0.12303  0.00750  Biso   1.000  C
  C46      1.0000 0.46470  0.62303  0.49250  Biso   1.000  C
  C47      1.0000 0.46470  0.87697  0.99250  Biso   1.000  C
  C48      1.0000 0.53530  0.37697  0.50750  Biso   1.000  C
  C49      1.0000 0.52320  0.03395  0.49630  Biso   1.000  C
  C50      1.0000 0.47680  0.53395  0.00370  Biso   1.000  C
  C51      1.0000 0.47680  0.96605  0.50370  Biso   1.000  C
  C52      1.0000 0.52320  0.46605  0.99630  Biso   1.000  C
  C53      1.0000 0.00800  0.03574  0.01270  Biso   1.000  C
  C54      1.0000 0.99200  0.53574  0.48730  Biso   1.000  C
  C55      1.0000 0.99200  0.96426  0.98730  Biso   1.000  C
  C56      1.0000 0.00800  0.46426  0.51270  Biso   1.000  C
  N1       1.0000 0.86190  0.11629  0.50670  Biso   1.000  N
  N2       1.0000 0.13810  0.61629  0.99330  Biso   1.000  N
  N3       1.0000 0.13810  0.88371  0.49330  Biso   1.000  N
  N4       1.0000 0.86190  0.38371  0.00670  Biso   1.000  N
  N5       1.0000 0.55760  0.29356  0.06010  Biso   1.000  N
  N6       1.0000 0.44240  0.79356  0.43990  Biso   1.000  N
  N7       1.0000 0.44240  0.70644  0.93990  Biso   1.000  N
  N8       1.0000 0.55760  0.20644  0.56010  Biso   1.000  N
  O1       1.0000 0.36110  0.03281  0.71330  Biso   1.000  O
  O2       1.0000 0.63890  0.53281  0.78670  Biso   1.000  O
  O3       1.0000 0.63890  0.96719  0.28670  Biso   1.000  O
  O4       1.0000 0.36110  0.46719  0.21330  Biso   1.000  O
  O5       1.0000 0.04430  0.26280  0.23890  Biso   1.000  O
  O6       1.0000 0.95570  0.76280  0.26110  Biso   1.000  O
  O7       1.0000 0.95570  0.73720  0.76110  Biso   1.000  O
  O8       1.0000 0.04430  0.23720  0.73890  Biso   1.000  O
  O9       1.0000 0.21150  0.01015  0.83250  Biso   1.000  O
  O10      1.0000 0.78850  0.51015  0.66750  Biso   1.000  O
  O11      1.0000 0.78850  0.98985  0.16750  Biso   1.000  O
  O12      1.0000 0.21150  0.48985  0.33250  Biso   1.000  O
  O13      1.0000 0.90760  0.20170  0.94940  Biso   1.000  O
  O14      1.0000 0.09240  0.70170  0.55060  Biso   1.000  O
  O15      1.0000 0.09240  0.79830  0.05060  Biso   1.000  O
  O16      1.0000 0.90760  0.29830  0.44940  Biso   1.000  O
  O17      1.0000 0.61920  0.11986  0.93740  Biso   1.000  O
  O18      1.0000 0.38080  0.61986  0.56260  Biso   1.000  O
  O19      1.0000 0.38080  0.88014  0.06260  Biso   1.000  O
  O20      1.0000 0.61920  0.38014  0.43740  Biso   1.000  O
  O21      1.0000 0.48210  0.07635  0.04590  Biso   1.000  O
  O22      1.0000 0.51790  0.57635  0.45410  Biso   1.000  O
  O23      1.0000 0.51790  0.92365  0.95410  Biso   1.000  O
  O24      1.0000 0.48210  0.42365  0.54590  Biso   1.000  O
  O25      1.0000 0.61820  0.05712  0.62390  Biso   1.000  O
  O26      1.0000 0.38180  0.55712  0.87610  Biso   1.000  O
  O27      1.0000 0.38180  0.94288  0.37610  Biso   1.000  O
  O28      1.0000 0.61820  0.44288  0.12390  Biso   1.000  O
  O29      1.0000 0.46450  0.06039  0.36590  Biso   1.000  O
  O30      1.0000 0.53550  0.56039  0.13410  Biso   1.000  O
  O31      1.0000 0.53550  0.93961  0.63410  Biso   1.000  O
  O32      1.0000 0.46450  0.43961  0.86590  Biso   1.000  O
  O33      1.0000 0.88730  0.06614  0.94910  Biso   1.000  O
  O34      1.0000 0.11270  0.56614  0.55090  Biso   1.000  O
  O35      1.0000 0.11270  0.93386  0.05090  Biso   1.000  O
  O36      1.0000 0.88730  0.43386  0.44910  Biso   1.000  O
  O37      1.0000 0.13920  0.05662  0.09330  Biso   1.000  O
  O38      1.0000 0.86080  0.55662  0.40670  Biso   1.000  O
  O39      1.0000 0.86080  0.94338  0.90670  Biso   1.000  O
  O40      1.0000 0.13920  0.44338  0.59330  Biso   1.000  O
