data_image0
_cell_length_a       11.7889
_cell_length_b       14.2524
_cell_length_c       16.391
_cell_angle_alpha    90
_cell_angle_beta     99.416
_cell_angle_gamma    90

_symmetry_space_group_name_H-M    "P 1"
_symmetry_int_tables_number       1

loop_
  _symmetry_equiv_pos_as_xyz
  'x, y, z'

loop_
  _atom_site_label
  _atom_site_occupancy
  _atom_site_fract_x
  _atom_site_fract_y
  _atom_site_fract_z
  _atom_site_thermal_displace_type
  _atom_site_B_iso_or_equiv
  _atom_site_type_symbol
  I1       1.0000 0.89628  0.19742  0.58232  Biso   1.000  I
  I2       1.0000 0.39628  0.69742  0.58232  Biso   1.000  I
  I3       1.0000 0.10372  0.19742  0.91768  Biso   1.000  I
  I4       1.0000 0.60372  0.69742  0.91768  Biso   1.000  I
  I5       1.0000 0.10372  0.80258  0.41768  Biso   1.000  I
  I6       1.0000 0.60372  0.30258  0.41768  Biso   1.000  I
  I7       1.0000 0.89628  0.80258  0.08232  Biso   1.000  I
  I8       1.0000 0.39628  0.30258  0.08232  Biso   1.000  I
  Cu1      1.0000 0.67439  0.23758  0.56937  Biso   1.000  Cu
  Cu2      1.0000 0.17439  0.73758  0.56937  Biso   1.000  Cu
  Cu3      1.0000 0.32561  0.23758  0.93063  Biso   1.000  Cu
  Cu4      1.0000 0.82561  0.73758  0.93063  Biso   1.000  Cu
  Cu5      1.0000 0.32561  0.76242  0.43063  Biso   1.000  Cu
  Cu6      1.0000 0.82561  0.26242  0.43063  Biso   1.000  Cu
  Cu7      1.0000 0.67439  0.76242  0.06937  Biso   1.000  Cu
  Cu8      1.0000 0.17439  0.26242  0.06937  Biso   1.000  Cu
  S1       1.0000 0.72188  0.22144  0.76750  Biso   1.000  S
  S2       1.0000 0.22188  0.72144  0.76750  Biso   1.000  S
  S3       1.0000 0.27812  0.22144  0.73250  Biso   1.000  S
  S4       1.0000 0.77812  0.72144  0.73250  Biso   1.000  S
  S5       1.0000 0.27812  0.77856  0.23250  Biso   1.000  S
  S6       1.0000 0.77812  0.27856  0.23250  Biso   1.000  S
  S7       1.0000 0.72188  0.77856  0.26750  Biso   1.000  S
  S8       1.0000 0.22188  0.27856  0.26750  Biso   1.000  S
  N1       1.0000 0.66520  0.34638  0.65154  Biso   1.000  N
  N2       1.0000 0.16520  0.84638  0.65154  Biso   1.000  N
  N3       1.0000 0.33480  0.34638  0.84846  Biso   1.000  N
  N4       1.0000 0.83480  0.84638  0.84846  Biso   1.000  N
  N5       1.0000 0.33480  0.65362  0.34846  Biso   1.000  N
  N6       1.0000 0.83480  0.15362  0.34846  Biso   1.000  N
  N7       1.0000 0.66520  0.65362  0.15154  Biso   1.000  N
  N8       1.0000 0.16520  0.15362  0.15154  Biso   1.000  N
  C1       1.0000 0.68430  0.33610  0.73416  Biso   1.000  C
  C2       1.0000 0.18430  0.83610  0.73416  Biso   1.000  C
  C3       1.0000 0.31570  0.33610  0.76584  Biso   1.000  C
  C4       1.0000 0.81570  0.83610  0.76584  Biso   1.000  C
  C5       1.0000 0.31570  0.66390  0.26584  Biso   1.000  C
  C6       1.0000 0.81570  0.16390  0.26584  Biso   1.000  C
  C7       1.0000 0.68430  0.66390  0.23416  Biso   1.000  C
  C8       1.0000 0.18430  0.16390  0.23416  Biso   1.000  C
  N9       1.0000 0.67660  0.40261  0.78930  Biso   1.000  N
  N10      1.0000 0.17660  0.90261  0.78930  Biso   1.000  N
  N11      1.0000 0.32340  0.40261  0.71070  Biso   1.000  N
  N12      1.0000 0.82340  0.90261  0.71070  Biso   1.000  N
  N13      1.0000 0.32340  0.59739  0.21070  Biso   1.000  N
  N14      1.0000 0.82340  0.09739  0.21070  Biso   1.000  N
  N15      1.0000 0.67660  0.59739  0.28930  Biso   1.000  N
  N16      1.0000 0.17660  0.09739  0.28930  Biso   1.000  N
  C9       1.0000 0.62230  0.50550  0.67590  Biso   1.000  C
  C10      1.0000 0.12230  0.00550  0.67590  Biso   1.000  C
  C11      1.0000 0.37770  0.50550  0.82410  Biso   1.000  C
  C12      1.0000 0.87770  0.00550  0.82410  Biso   1.000  C
  C13      1.0000 0.37770  0.49450  0.32410  Biso   1.000  C
  C14      1.0000 0.87770  0.99450  0.32410  Biso   1.000  C
  C15      1.0000 0.62230  0.49450  0.17590  Biso   1.000  C
  C16      1.0000 0.12230  0.99450  0.17590  Biso   1.000  C
  H1       1.0000 0.60000  0.56490  0.65580  Biso   1.000  H
  H2       1.0000 0.10000  0.06490  0.65580  Biso   1.000  H
  H3       1.0000 0.40000  0.56490  0.84420  Biso   1.000  H
  H4       1.0000 0.90000  0.06490  0.84420  Biso   1.000  H
  H5       1.0000 0.40000  0.43510  0.34420  Biso   1.000  H
  H6       1.0000 0.90000  0.93510  0.34420  Biso   1.000  H
  H7       1.0000 0.60000  0.43510  0.15580  Biso   1.000  H
  H8       1.0000 0.10000  0.93510  0.15580  Biso   1.000  H
  C17      1.0000 0.64490  0.48740  0.75860  Biso   1.000  C
  C18      1.0000 0.14490  0.98740  0.75860  Biso   1.000  C
  C19      1.0000 0.35510  0.48740  0.74140  Biso   1.000  C
  C20      1.0000 0.85510  0.98740  0.74140  Biso   1.000  C
  C21      1.0000 0.35510  0.51260  0.24140  Biso   1.000  C
  C22      1.0000 0.85510  0.01260  0.24140  Biso   1.000  C
  C23      1.0000 0.64490  0.51260  0.25860  Biso   1.000  C
  C24      1.0000 0.14490  0.01260  0.25860  Biso   1.000  C
  H9       1.0000 0.63790  0.53600  0.79530  Biso   1.000  H
  H10      1.0000 0.13790  0.03600  0.79530  Biso   1.000  H
  H11      1.0000 0.36210  0.53600  0.70470  Biso   1.000  H
  H12      1.0000 0.86210  0.03600  0.70470  Biso   1.000  H
  H13      1.0000 0.36210  0.46400  0.20470  Biso   1.000  H
  H14      1.0000 0.86210  0.96400  0.20470  Biso   1.000  H
  H15      1.0000 0.63790  0.46400  0.29530  Biso   1.000  H
  H16      1.0000 0.13790  0.96400  0.29530  Biso   1.000  H
  C25      1.0000 0.63390  0.43230  0.62370  Biso   1.000  C
  C26      1.0000 0.13390  0.93230  0.62370  Biso   1.000  C
  C27      1.0000 0.36610  0.43230  0.87630  Biso   1.000  C
  C28      1.0000 0.86610  0.93230  0.87630  Biso   1.000  C
  C29      1.0000 0.36610  0.56770  0.37630  Biso   1.000  C
  C30      1.0000 0.86610  0.06770  0.37630  Biso   1.000  C
  C31      1.0000 0.63390  0.56770  0.12370  Biso   1.000  C
  C32      1.0000 0.13390  0.06770  0.12370  Biso   1.000  C
  H17      1.0000 0.61960  0.44280  0.56690  Biso   1.000  H
  H18      1.0000 0.11960  0.94280  0.56690  Biso   1.000  H
  H19      1.0000 0.38040  0.44280  0.93310  Biso   1.000  H
  H20      1.0000 0.88040  0.94280  0.93310  Biso   1.000  H
  H21      1.0000 0.38040  0.55720  0.43310  Biso   1.000  H
  H22      1.0000 0.88040  0.05720  0.43310  Biso   1.000  H
  H23      1.0000 0.61960  0.55720  0.06690  Biso   1.000  H
  H24      1.0000 0.11960  0.05720  0.06690  Biso   1.000  H
  N17      1.0000 0.42560  0.12381  0.91189  Biso   1.000  N
  N18      1.0000 0.92560  0.62381  0.91189  Biso   1.000  N
  N19      1.0000 0.57440  0.12381  0.58811  Biso   1.000  N
  N20      1.0000 0.07440  0.62381  0.58811  Biso   1.000  N
  N21      1.0000 0.57440  0.87619  0.08811  Biso   1.000  N
  N22      1.0000 0.07440  0.37619  0.08811  Biso   1.000  N
  N23      1.0000 0.42560  0.87619  0.41189  Biso   1.000  N
  N24      1.0000 0.92560  0.37619  0.41189  Biso   1.000  N
  C33      1.0000 0.38360  0.03600  0.90590  Biso   1.000  C
  C34      1.0000 0.88360  0.53600  0.90590  Biso   1.000  C
  C35      1.0000 0.61640  0.03600  0.59410  Biso   1.000  C
  C36      1.0000 0.11640  0.53600  0.59410  Biso   1.000  C
  C37      1.0000 0.61640  0.96400  0.09410  Biso   1.000  C
  C38      1.0000 0.11640  0.46400  0.09410  Biso   1.000  C
  C39      1.0000 0.38360  0.96400  0.40590  Biso   1.000  C
  C40      1.0000 0.88360  0.46400  0.40590  Biso   1.000  C
  H25      1.0000 0.30840  0.02600  0.91430  Biso   1.000  H
  H26      1.0000 0.80840  0.52600  0.91430  Biso   1.000  H
  H27      1.0000 0.69160  0.02600  0.58570  Biso   1.000  H
  H28      1.0000 0.19160  0.52600  0.58570  Biso   1.000  H
  H29      1.0000 0.69160  0.97400  0.08570  Biso   1.000  H
  H30      1.0000 0.19160  0.47400  0.08570  Biso   1.000  H
  H31      1.0000 0.30840  0.97400  0.41430  Biso   1.000  H
  H32      1.0000 0.80840  0.47400  0.41430  Biso   1.000  H
  N25      1.0000 0.60410  0.06320  0.88330  Biso   1.000  N
  N26      1.0000 0.10410  0.56320  0.88330  Biso   1.000  N
  N27      1.0000 0.39590  0.06320  0.61670  Biso   1.000  N
  N28      1.0000 0.89590  0.56320  0.61670  Biso   1.000  N
  N29      1.0000 0.39590  0.93680  0.11670  Biso   1.000  N
  N30      1.0000 0.89590  0.43680  0.11670  Biso   1.000  N
  N31      1.0000 0.60410  0.93680  0.38330  Biso   1.000  N
  N32      1.0000 0.10410  0.43680  0.38330  Biso   1.000  N
  C41      1.0000 0.53540  0.13220  0.90005  Biso   1.000  C
  C42      1.0000 0.03540  0.63220  0.90005  Biso   1.000  C
  C43      1.0000 0.46460  0.13220  0.59995  Biso   1.000  C
  C44      1.0000 0.96460  0.63220  0.59995  Biso   1.000  C
  C45      1.0000 0.46460  0.86780  0.09995  Biso   1.000  C
  C46      1.0000 0.96460  0.36780  0.09995  Biso   1.000  C
  C47      1.0000 0.53540  0.86780  0.40005  Biso   1.000  C
  C48      1.0000 0.03540  0.36780  0.40005  Biso   1.000  C
  C49      1.0000 0.55730  0.97850  0.87680  Biso   1.000  C
  C50      1.0000 0.05730  0.47850  0.87680  Biso   1.000  C
  C51      1.0000 0.44270  0.97850  0.62320  Biso   1.000  C
  C52      1.0000 0.94270  0.47850  0.62320  Biso   1.000  C
  C53      1.0000 0.44270  0.02150  0.12320  Biso   1.000  C
  C54      1.0000 0.94270  0.52150  0.12320  Biso   1.000  C
  C55      1.0000 0.55730  0.02150  0.37680  Biso   1.000  C
  C56      1.0000 0.05730  0.52150  0.37680  Biso   1.000  C
  H33      1.0000 0.60180  0.92840  0.86390  Biso   1.000  H
  H34      1.0000 0.10180  0.42840  0.86390  Biso   1.000  H
  H35      1.0000 0.39820  0.92840  0.63610  Biso   1.000  H
  H36      1.0000 0.89820  0.42840  0.63610  Biso   1.000  H
  H37      1.0000 0.39820  0.07160  0.13610  Biso   1.000  H
  H38      1.0000 0.89820  0.57160  0.13610  Biso   1.000  H
  H39      1.0000 0.60180  0.07160  0.36390  Biso   1.000  H
  H40      1.0000 0.10180  0.57160  0.36390  Biso   1.000  H
  C57      1.0000 0.44720  0.96120  0.88810  Biso   1.000  C
  C58      1.0000 0.94720  0.46120  0.88810  Biso   1.000  C
  C59      1.0000 0.55280  0.96120  0.61190  Biso   1.000  C
  C60      1.0000 0.05280  0.46120  0.61190  Biso   1.000  C
  C61      1.0000 0.55280  0.03880  0.11190  Biso   1.000  C
  C62      1.0000 0.05280  0.53880  0.11190  Biso   1.000  C
  C63      1.0000 0.44720  0.03880  0.38810  Biso   1.000  C
  C64      1.0000 0.94720  0.53880  0.38810  Biso   1.000  C
  H41      1.0000 0.41680  0.90090  0.88380  Biso   1.000  H
  H42      1.0000 0.91680  0.40090  0.88380  Biso   1.000  H
  H43      1.0000 0.58320  0.90090  0.61620  Biso   1.000  H
  H44      1.0000 0.08320  0.40090  0.61620  Biso   1.000  H
  H45      1.0000 0.58320  0.09910  0.11620  Biso   1.000  H
  H46      1.0000 0.08320  0.59910  0.11620  Biso   1.000  H
  H47      1.0000 0.41680  0.09910  0.38380  Biso   1.000  H
  H48      1.0000 0.91680  0.59910  0.38380  Biso   1.000  H
  C65      1.0000 0.72590  0.23320  0.87716  Biso   1.000  C
  C66      1.0000 0.22590  0.73320  0.87716  Biso   1.000  C
  C67      1.0000 0.27410  0.23320  0.62284  Biso   1.000  C
  C68      1.0000 0.77410  0.73320  0.62284  Biso   1.000  C
  C69      1.0000 0.27410  0.76680  0.12284  Biso   1.000  C
  C70      1.0000 0.77410  0.26680  0.12284  Biso   1.000  C
  C71      1.0000 0.72590  0.76680  0.37716  Biso   1.000  C
  C72      1.0000 0.22590  0.26680  0.37716  Biso   1.000  C
  H49      1.0000 0.77350  0.28690  0.89630  Biso   1.000  H
  H50      1.0000 0.27350  0.78690  0.89630  Biso   1.000  H
  H51      1.0000 0.22650  0.28690  0.60370  Biso   1.000  H
  H52      1.0000 0.72650  0.78690  0.60370  Biso   1.000  H
  H53      1.0000 0.22650  0.71310  0.10370  Biso   1.000  H
  H54      1.0000 0.72650  0.21310  0.10370  Biso   1.000  H
  H55      1.0000 0.77350  0.71310  0.39630  Biso   1.000  H
  H56      1.0000 0.27350  0.21310  0.39630  Biso   1.000  H
  H57      1.0000 0.76290  0.17800  0.90410  Biso   1.000  H
  H58      1.0000 0.26290  0.67800  0.90410  Biso   1.000  H
  H59      1.0000 0.23710  0.17800  0.59590  Biso   1.000  H
  H60      1.0000 0.73710  0.67800  0.59590  Biso   1.000  H
  H61      1.0000 0.23710  0.82200  0.09590  Biso   1.000  H
  H62      1.0000 0.73710  0.32200  0.09590  Biso   1.000  H
  H63      1.0000 0.76290  0.82200  0.40410  Biso   1.000  H
  H64      1.0000 0.26290  0.32200  0.40410  Biso   1.000  H
  S9       1.0000 0.58835  0.24749  0.90973  Biso   1.000  S
  S10      1.0000 0.08835  0.74749  0.90973  Biso   1.000  S
  S11      1.0000 0.41165  0.24749  0.59027  Biso   1.000  S
  S12      1.0000 0.91165  0.74749  0.59027  Biso   1.000  S
  S13      1.0000 0.41165  0.75251  0.09027  Biso   1.000  S
  S14      1.0000 0.91165  0.25251  0.09027  Biso   1.000  S
  S15      1.0000 0.58835  0.75251  0.40973  Biso   1.000  S
  S16      1.0000 0.08835  0.25251  0.40973  Biso   1.000  S
