data_image0
_cell_length_a       8.4287
_cell_length_b       8.8723
_cell_length_c       16.1154
_cell_angle_alpha    90
_cell_angle_beta     92.731
_cell_angle_gamma    90

_symmetry_space_group_name_H-M    "P 1"
_symmetry_int_tables_number       1

loop_
  _symmetry_equiv_pos_as_xyz
  'x, y, z'

loop_
  _atom_site_label
  _atom_site_occupancy
  _atom_site_fract_x
  _atom_site_fract_y
  _atom_site_fract_z
  _atom_site_thermal_displace_type
  _atom_site_B_iso_or_equiv
  _atom_site_type_symbol
  Cu1      1.0000 0.62351  0.52545  0.22482  Biso   1.000  Cu
  Cu2      1.0000 0.37649  0.02545  0.27518  Biso   1.000  Cu
  Cu3      1.0000 0.37649  0.47455  0.77518  Biso   1.000  Cu
  Cu4      1.0000 0.62351  0.97455  0.72482  Biso   1.000  Cu
  S1       1.0000 0.80644  0.71449  0.07406  Biso   1.000  S
  S2       1.0000 0.19356  0.21449  0.42594  Biso   1.000  S
  S3       1.0000 0.19356  0.28551  0.92594  Biso   1.000  S
  S4       1.0000 0.80644  0.78551  0.57406  Biso   1.000  S
  S5       1.0000 0.78721  0.86686  0.90966  Biso   1.000  S
  S6       1.0000 0.21279  0.36686  0.59034  Biso   1.000  S
  S7       1.0000 0.21279  0.13314  0.09034  Biso   1.000  S
  S8       1.0000 0.78721  0.63314  0.40966  Biso   1.000  S
  N1       1.0000 0.66230  0.45760  0.09181  Biso   1.000  N
  N2       1.0000 0.33770  0.95760  0.40819  Biso   1.000  N
  N3       1.0000 0.33770  0.54240  0.90819  Biso   1.000  N
  N4       1.0000 0.66230  0.04240  0.59181  Biso   1.000  N
  N5       1.0000 0.77690  0.49480  0.96043  Biso   1.000  N
  N6       1.0000 0.22310  0.99480  0.53957  Biso   1.000  N
  N7       1.0000 0.22310  0.50520  0.03957  Biso   1.000  N
  N8       1.0000 0.77690  0.00520  0.46043  Biso   1.000  N
  N9       1.0000 0.08190  0.91820  0.86424  Biso   1.000  N
  N10      1.0000 0.91810  0.41820  0.63576  Biso   1.000  N
  N11      1.0000 0.91810  0.08180  0.13576  Biso   1.000  N
  N12      1.0000 0.08190  0.58180  0.36424  Biso   1.000  N
  N13      1.0000 0.86860  0.99170  0.77009  Biso   1.000  N
  N14      1.0000 0.13140  0.49170  0.72991  Biso   1.000  N
  N15      1.0000 0.13140  0.00830  0.22991  Biso   1.000  N
  N16      1.0000 0.86860  0.50830  0.27009  Biso   1.000  N
  N17      1.0000 0.53220  0.33190  0.25863  Biso   1.000  N
  N18      1.0000 0.46780  0.83190  0.24137  Biso   1.000  N
  N19      1.0000 0.46780  0.66810  0.74137  Biso   1.000  N
  N20      1.0000 0.53220  0.16810  0.75863  Biso   1.000  N
  C1       1.0000 0.74260  0.53720  0.03669  Biso   1.000  C
  C2       1.0000 0.25740  0.03720  0.46331  Biso   1.000  C
  C3       1.0000 0.25740  0.46280  0.96331  Biso   1.000  C
  C4       1.0000 0.74260  0.96280  0.53669  Biso   1.000  C
  C5       1.0000 0.60640  0.32450  0.06464  Biso   1.000  C
  C6       1.0000 0.39360  0.82450  0.43536  Biso   1.000  C
  C7       1.0000 0.39360  0.67550  0.93536  Biso   1.000  C
  C8       1.0000 0.60640  0.17550  0.56464  Biso   1.000  C
  H1       1.0000 0.54850  0.26570  0.10020  Biso   1.000  H
  H2       1.0000 0.45150  0.76570  0.39980  Biso   1.000  H
  H3       1.0000 0.45150  0.73430  0.89980  Biso   1.000  H
  H4       1.0000 0.54850  0.23430  0.60020  Biso   1.000  H
  C9       1.0000 0.63140  0.27120  0.98586  Biso   1.000  C
  C10      1.0000 0.36860  0.77120  0.51414  Biso   1.000  C
  C11      1.0000 0.36860  0.72880  0.01414  Biso   1.000  C
  C12      1.0000 0.63140  0.22880  0.48586  Biso   1.000  C
  H5       1.0000 0.59030  0.17920  0.96740  Biso   1.000  H
  H6       1.0000 0.40970  0.67920  0.53260  Biso   1.000  H
  H7       1.0000 0.40970  0.82080  0.03260  Biso   1.000  H
  H8       1.0000 0.59030  0.32080  0.46740  Biso   1.000  H
  C13      1.0000 0.71970  0.36050  0.93619  Biso   1.000  C
  C14      1.0000 0.28030  0.86050  0.56381  Biso   1.000  C
  C15      1.0000 0.28030  0.63950  0.06381  Biso   1.000  C
  C16      1.0000 0.71970  0.13950  0.43619  Biso   1.000  C
  H9       1.0000 0.74070  0.32620  0.88330  Biso   1.000  H
  H10      1.0000 0.25930  0.82620  0.61670  Biso   1.000  H
  H11      1.0000 0.25930  0.67380  0.11670  Biso   1.000  H
  H12      1.0000 0.74070  0.17380  0.38330  Biso   1.000  H
  C17      1.0000 0.91860  0.78240  0.98930  Biso   1.000  C
  C18      1.0000 0.08140  0.28240  0.51070  Biso   1.000  C
  C19      1.0000 0.08140  0.21760  0.01070  Biso   1.000  C
  C20      1.0000 0.91860  0.71760  0.48930  Biso   1.000  C
  H13      1.0000 0.97620  0.69940  0.96560  Biso   1.000  H
  H14      1.0000 0.02380  0.19940  0.53440  Biso   1.000  H
  H15      1.0000 0.02380  0.30060  0.03440  Biso   1.000  H
  H16      1.0000 0.97620  0.80060  0.46560  Biso   1.000  H
  H17      1.0000 0.99540  0.85660  0.00980  Biso   1.000  H
  H18      1.0000 0.00460  0.35660  0.49020  Biso   1.000  H
  H19      1.0000 0.00460  0.14340  0.99020  Biso   1.000  H
  H20      1.0000 0.99540  0.64340  0.50980  Biso   1.000  H
  C21      1.0000 0.92880  0.93140  0.84117  Biso   1.000  C
  C22      1.0000 0.07120  0.43140  0.65883  Biso   1.000  C
  C23      1.0000 0.07120  0.06860  0.15883  Biso   1.000  C
  C24      1.0000 0.92880  0.56860  0.34117  Biso   1.000  C
  C25      1.0000 0.18420  0.97430  0.81193  Biso   1.000  C
  C26      1.0000 0.81580  0.47430  0.68807  Biso   1.000  C
  C27      1.0000 0.81580  0.02570  0.18807  Biso   1.000  C
  C28      1.0000 0.18420  0.52570  0.31193  Biso   1.000  C
  H21      1.0000 0.29230  0.96590  0.82560  Biso   1.000  H
  H22      1.0000 0.70770  0.46590  0.67440  Biso   1.000  H
  H23      1.0000 0.70770  0.03410  0.17440  Biso   1.000  H
  H24      1.0000 0.29230  0.53410  0.32560  Biso   1.000  H
  C29      1.0000 0.13740  0.04380  0.73892  Biso   1.000  C
  C30      1.0000 0.86260  0.54380  0.76108  Biso   1.000  C
  C31      1.0000 0.86260  0.95620  0.26108  Biso   1.000  C
  C32      1.0000 0.13740  0.45620  0.23892  Biso   1.000  C
  H25      1.0000 0.21040  0.08490  0.70380  Biso   1.000  H
  H26      1.0000 0.78960  0.58490  0.79620  Biso   1.000  H
  H27      1.0000 0.78960  0.91510  0.29620  Biso   1.000  H
  H28      1.0000 0.21040  0.41510  0.20380  Biso   1.000  H
  C33      1.0000 0.97640  0.04940  0.72037  Biso   1.000  C
  C34      1.0000 0.02360  0.54940  0.77963  Biso   1.000  C
  C35      1.0000 0.02360  0.95060  0.27963  Biso   1.000  C
  C36      1.0000 0.97640  0.45060  0.22037  Biso   1.000  C
  H29      1.0000 0.94070  0.09530  0.67110  Biso   1.000  H
  H30      1.0000 0.05930  0.59530  0.82890  Biso   1.000  H
  H31      1.0000 0.05930  0.90470  0.32890  Biso   1.000  H
  H32      1.0000 0.94070  0.40470  0.17110  Biso   1.000  H
  C37      1.0000 0.47200  0.21780  0.26702  Biso   1.000  C
  C38      1.0000 0.52800  0.71780  0.23298  Biso   1.000  C
  C39      1.0000 0.52800  0.78220  0.73298  Biso   1.000  C
  C40      1.0000 0.47200  0.28220  0.76702  Biso   1.000  C
