data_image0
_cell_length_a       7.5969
_cell_length_b       20.2299
_cell_length_c       9.0204
_cell_angle_alpha    90
_cell_angle_beta     112.245
_cell_angle_gamma    90

_symmetry_space_group_name_H-M    "P 1"
_symmetry_int_tables_number       1

loop_
  _symmetry_equiv_pos_as_xyz
  'x, y, z'

loop_
  _atom_site_label
  _atom_site_occupancy
  _atom_site_fract_x
  _atom_site_fract_y
  _atom_site_fract_z
  _atom_site_thermal_displace_type
  _atom_site_B_iso_or_equiv
  _atom_site_type_symbol
  I1       1.0000 0.36515  0.46540  0.66244  Biso   1.000  I
  I2       1.0000 0.63485  0.96540  0.83756  Biso   1.000  I
  I3       1.0000 0.63485  0.53460  0.33756  Biso   1.000  I
  I4       1.0000 0.36515  0.03460  0.16244  Biso   1.000  I
  Cu1      1.0000 0.45382  0.43253  0.41725  Biso   1.000  Cu
  Cu2      1.0000 0.54618  0.93253  0.08275  Biso   1.000  Cu
  Cu3      1.0000 0.54618  0.56747  0.58275  Biso   1.000  Cu
  Cu4      1.0000 0.45382  0.06747  0.91725  Biso   1.000  Cu
  S1       1.0000 0.43455  0.36294  0.09412  Biso   1.000  S
  S2       1.0000 0.56545  0.86294  0.40588  Biso   1.000  S
  S3       1.0000 0.56545  0.63706  0.90588  Biso   1.000  S
  S4       1.0000 0.43455  0.13706  0.59412  Biso   1.000  S
  S5       1.0000 0.37334  0.22533  0.94516  Biso   1.000  S
  S6       1.0000 0.62666  0.72533  0.55484  Biso   1.000  S
  S7       1.0000 0.62666  0.77467  0.05484  Biso   1.000  S
  S8       1.0000 0.37334  0.27467  0.44516  Biso   1.000  S
  N1       1.0000 0.21240  0.42076  0.21670  Biso   1.000  N
  N2       1.0000 0.78760  0.92076  0.28330  Biso   1.000  N
  N3       1.0000 0.78760  0.57924  0.78330  Biso   1.000  N
  N4       1.0000 0.21240  0.07924  0.71670  Biso   1.000  N
  N5       1.0000 0.65260  0.14204  0.98810  Biso   1.000  N
  N6       1.0000 0.34740  0.64204  0.51190  Biso   1.000  N
  N7       1.0000 0.34740  0.85796  0.01190  Biso   1.000  N
  N8       1.0000 0.65260  0.35796  0.48810  Biso   1.000  N
  N9       1.0000 0.06000  0.38433  0.94690  Biso   1.000  N
  N10      1.0000 0.94000  0.88433  0.55310  Biso   1.000  N
  N11      1.0000 0.94000  0.61567  0.05310  Biso   1.000  N
  N12      1.0000 0.06000  0.11567  0.44690  Biso   1.000  N
  N13      1.0000 0.73580  0.25590  0.01990  Biso   1.000  N
  N14      1.0000 0.26420  0.75590  0.48010  Biso   1.000  N
  N15      1.0000 0.26420  0.74410  0.98010  Biso   1.000  N
  N16      1.0000 0.73580  0.24410  0.51990  Biso   1.000  N
  C1       1.0000 0.04270  0.44368  0.20900  Biso   1.000  C
  C2       1.0000 0.95730  0.94368  0.29100  Biso   1.000  C
  C3       1.0000 0.95730  0.55632  0.79100  Biso   1.000  C
  C4       1.0000 0.04270  0.05632  0.70900  Biso   1.000  C
  H1       1.0000 0.03640  0.46400  0.29930  Biso   1.000  H
  H2       1.0000 0.96360  0.96400  0.20070  Biso   1.000  H
  H3       1.0000 0.96360  0.53600  0.70070  Biso   1.000  H
  H4       1.0000 0.03640  0.03600  0.79930  Biso   1.000  H
  C5       1.0000 0.88000  0.43877  0.07650  Biso   1.000  C
  C6       1.0000 0.12000  0.93877  0.42350  Biso   1.000  C
  C7       1.0000 0.12000  0.56123  0.92350  Biso   1.000  C
  C8       1.0000 0.88000  0.06123  0.57650  Biso   1.000  C
  H5       1.0000 0.76500  0.45550  0.07420  Biso   1.000  H
  H6       1.0000 0.23500  0.95550  0.42580  Biso   1.000  H
  H7       1.0000 0.23500  0.54450  0.92580  Biso   1.000  H
  H8       1.0000 0.76500  0.04450  0.57420  Biso   1.000  H
  C9       1.0000 0.89450  0.40796  0.94670  Biso   1.000  C
  C10      1.0000 0.10550  0.90796  0.55330  Biso   1.000  C
  C11      1.0000 0.10550  0.59204  0.05330  Biso   1.000  C
  C12      1.0000 0.89450  0.09204  0.44670  Biso   1.000  C
  H9       1.0000 0.78550  0.40310  0.85460  Biso   1.000  H
  H10      1.0000 0.21450  0.90310  0.64540  Biso   1.000  H
  H11      1.0000 0.21450  0.59690  0.14540  Biso   1.000  H
  H12      1.0000 0.78550  0.09690  0.35460  Biso   1.000  H
  C13      1.0000 0.21130  0.39204  0.08180  Biso   1.000  C
  C14      1.0000 0.78870  0.89204  0.41820  Biso   1.000  C
  C15      1.0000 0.78870  0.60796  0.91820  Biso   1.000  C
  C16      1.0000 0.21130  0.10796  0.58180  Biso   1.000  C
  C17      1.0000 0.37020  0.31314  0.91610  Biso   1.000  C
  C18      1.0000 0.62980  0.81314  0.58390  Biso   1.000  C
  C19      1.0000 0.62980  0.68686  0.08390  Biso   1.000  C
  C20      1.0000 0.37020  0.18686  0.41610  Biso   1.000  C
  H13      1.0000 0.24330  0.32580  0.84430  Biso   1.000  H
  H14      1.0000 0.75670  0.82580  0.65570  Biso   1.000  H
  H15      1.0000 0.75670  0.67420  0.15570  Biso   1.000  H
  H16      1.0000 0.24330  0.17420  0.34430  Biso   1.000  H
  H17      1.0000 0.45630  0.32360  0.86290  Biso   1.000  H
  H18      1.0000 0.54370  0.82360  0.63710  Biso   1.000  H
  H19      1.0000 0.54370  0.67640  0.13710  Biso   1.000  H
  H20      1.0000 0.45630  0.17640  0.36290  Biso   1.000  H
  C21      1.0000 0.61300  0.20710  0.98870  Biso   1.000  C
  C22      1.0000 0.38700  0.70710  0.51130  Biso   1.000  C
  C23      1.0000 0.38700  0.79290  0.01130  Biso   1.000  C
  C24      1.0000 0.61300  0.29290  0.48870  Biso   1.000  C
  C25      1.0000 0.83480  0.12742  0.01750  Biso   1.000  C
  C26      1.0000 0.16520  0.62742  0.48250  Biso   1.000  C
  C27      1.0000 0.16520  0.87258  0.98250  Biso   1.000  C
  C28      1.0000 0.83480  0.37258  0.51750  Biso   1.000  C
  H21      1.0000 0.86980  0.08330  0.01910  Biso   1.000  H
  H22      1.0000 0.13020  0.58330  0.48090  Biso   1.000  H
  H23      1.0000 0.13020  0.91670  0.98090  Biso   1.000  H
  H24      1.0000 0.86980  0.41670  0.51910  Biso   1.000  H
  C29      1.0000 0.97030  0.17490  0.04530  Biso   1.000  C
  C30      1.0000 0.02970  0.67490  0.45470  Biso   1.000  C
  C31      1.0000 0.02970  0.82510  0.95470  Biso   1.000  C
  C32      1.0000 0.97030  0.32510  0.54530  Biso   1.000  C
  H25      1.0000 0.09570  0.16410  0.06290  Biso   1.000  H
  H26      1.0000 0.90430  0.66410  0.43710  Biso   1.000  H
  H27      1.0000 0.90430  0.83590  0.93710  Biso   1.000  H
  H28      1.0000 0.09570  0.33590  0.56290  Biso   1.000  H
  C33      1.0000 0.91530  0.23810  0.04620  Biso   1.000  C
  C34      1.0000 0.08470  0.73810  0.45380  Biso   1.000  C
  C35      1.0000 0.08470  0.76190  0.95380  Biso   1.000  C
  C36      1.0000 0.91530  0.26190  0.54620  Biso   1.000  C
  H29      1.0000 0.00650  0.27120  0.06600  Biso   1.000  H
  H30      1.0000 0.99350  0.77120  0.43400  Biso   1.000  H
  H31      1.0000 0.99350  0.72880  0.93400  Biso   1.000  H
  H32      1.0000 0.00650  0.22880  0.56600  Biso   1.000  H
