data_image0
_cell_length_a       8.805
_cell_length_b       9.0434
_cell_length_c       12.5826
_cell_angle_alpha    87.137
_cell_angle_beta     85.596
_cell_angle_gamma    88.277

_symmetry_space_group_name_H-M    "P 1"
_symmetry_int_tables_number       1

loop_
  _symmetry_equiv_pos_as_xyz
  'x, y, z'

loop_
  _atom_site_label
  _atom_site_occupancy
  _atom_site_fract_x
  _atom_site_fract_y
  _atom_site_fract_z
  _atom_site_thermal_displace_type
  _atom_site_B_iso_or_equiv
  _atom_site_type_symbol
  I1       1.0000 0.69219  0.51009  0.89195  Biso   1.000  I
  I2       1.0000 0.30781  0.48991  0.10805  Biso   1.000  I
  Cu1      1.0000 0.59196  0.58697  0.08591  Biso   1.000  Cu
  Cu2      1.0000 0.40804  0.41303  0.91409  Biso   1.000  Cu
  S1       1.0000 0.55193  0.60691  0.33997  Biso   1.000  S
  S2       1.0000 0.44807  0.39309  0.66003  Biso   1.000  S
  S3       1.0000 0.87348  0.80342  0.06441  Biso   1.000  S
  S4       1.0000 0.12652  0.19658  0.93559  Biso   1.000  S
  S5       1.0000 0.31019  0.11249  0.42109  Biso   1.000  S
  S6       1.0000 0.68981  0.88751  0.57891  Biso   1.000  S
  C1       1.0000 0.93920  0.31890  0.23140  Biso   1.000  C
  C2       1.0000 0.06080  0.68110  0.76860  Biso   1.000  C
  H1       1.0000 0.02340  0.26150  0.20800  Biso   1.000  H
  H2       1.0000 0.97660  0.73850  0.79200  Biso   1.000  H
  N1       1.0000 0.72910  0.48000  0.19350  Biso   1.000  N
  N2       1.0000 0.27090  0.52000  0.80650  Biso   1.000  N
  N3       1.0000 0.57950  0.81200  0.10700  Biso   1.000  N
  N4       1.0000 0.42050  0.18800  0.89300  Biso   1.000  N
  C3       1.0000 0.70190  0.48550  0.29960  Biso   1.000  C
  C4       1.0000 0.29810  0.51450  0.70040  Biso   1.000  C
  N5       1.0000 0.25870  0.82620  0.39940  Biso   1.000  N
  N6       1.0000 0.74130  0.17380  0.60060  Biso   1.000  N
  N7       1.0000 0.06300  0.00430  0.36610  Biso   1.000  N
  N8       1.0000 0.93700  0.99570  0.63390  Biso   1.000  N
  N9       1.0000 0.77980  0.41280  0.37380  Biso   1.000  N
  N10      1.0000 0.22020  0.58720  0.62620  Biso   1.000  N
  C5       1.0000 0.70170  0.89760  0.09930  Biso   1.000  C
  C6       1.0000 0.29830  0.10240  0.90070  Biso   1.000  C
  N11      1.0000 0.70170  0.04230  0.11560  Biso   1.000  N
  N12      1.0000 0.29830  0.95770  0.88440  Biso   1.000  N
  C7       1.0000 0.20150  0.96170  0.39300  Biso   1.000  C
  C8       1.0000 0.79850  0.03830  0.60700  Biso   1.000  C
  C9       1.0000 0.44560  0.88090  0.13290  Biso   1.000  C
  C10      1.0000 0.55440  0.11910  0.86710  Biso   1.000  C
  H3       1.0000 0.35760  0.82580  0.13980  Biso   1.000  H
  H4       1.0000 0.64240  0.17420  0.86020  Biso   1.000  H
  C11      1.0000 0.00620  0.95300  0.05030  Biso   1.000  C
  C12      1.0000 0.99380  0.04700  0.94970  Biso   1.000  C
  H5       1.0000 0.98820  0.01500  0.11100  Biso   1.000  H
  H6       1.0000 0.01180  0.98500  0.88900  Biso   1.000  H
  H7       1.0000 0.10910  0.91180  0.05130  Biso   1.000  H
  H8       1.0000 0.89090  0.08820  0.94870  Biso   1.000  H
  C13      1.0000 0.56590  0.10580  0.13990  Biso   1.000  C
  C14      1.0000 0.43410  0.89420  0.86010  Biso   1.000  C
  H9       1.0000 0.56100  0.20680  0.15090  Biso   1.000  H
  H10      1.0000 0.43900  0.79320  0.84910  Biso   1.000  H
  C15      1.0000 0.85150  0.39600  0.16060  Biso   1.000  C
  C16      1.0000 0.14850  0.60400  0.83940  Biso   1.000  C
  H11      1.0000 0.87730  0.39020  0.08780  Biso   1.000  H
  H12      1.0000 0.12270  0.60980  0.91220  Biso   1.000  H
  C17      1.0000 0.43370  0.02970  0.14960  Biso   1.000  C
  C18      1.0000 0.56630  0.97030  0.85040  Biso   1.000  C
  H13      1.0000 0.34010  0.07640  0.16660  Biso   1.000  H
  H14      1.0000 0.65990  0.92360  0.83340  Biso   1.000  H
  C19      1.0000 0.16670  0.72180  0.37310  Biso   1.000  C
  C20      1.0000 0.83330  0.27820  0.62690  Biso   1.000  C
  H15      1.0000 0.20190  0.62380  0.37540  Biso   1.000  H
  H16      1.0000 0.79810  0.37620  0.62460  Biso   1.000  H
  C21      1.0000 0.89800  0.32980  0.33690  Biso   1.000  C
  C22      1.0000 0.10200  0.67020  0.66310  Biso   1.000  C
  H17      1.0000 0.95510  0.27690  0.38590  Biso   1.000  H
  H18      1.0000 0.04490  0.72310  0.61410  Biso   1.000  H
  C23      1.0000 0.02410  0.75200  0.34330  Biso   1.000  C
  C24      1.0000 0.97590  0.24800  0.65670  Biso   1.000  C
  H19      1.0000 0.96160  0.67760  0.32510  Biso   1.000  H
  H20      1.0000 0.03840  0.32240  0.67490  Biso   1.000  H
  C25      1.0000 0.97690  0.89610  0.34130  Biso   1.000  C
  C26      1.0000 0.02310  0.10390  0.65870  Biso   1.000  C
  H21      1.0000 0.87920  0.91990  0.32140  Biso   1.000  H
  H22      1.0000 0.12080  0.08010  0.67860  Biso   1.000  H
  C27      1.0000 0.49690  0.02660  0.44340  Biso   1.000  C
  C28      1.0000 0.50310  0.97340  0.55660  Biso   1.000  C
  H23      1.0000 0.51580  0.94400  0.39750  Biso   1.000  H
  H24      1.0000 0.48420  0.05600  0.60250  Biso   1.000  H
  H25      1.0000 0.57570  0.09820  0.42520  Biso   1.000  H
  H26      1.0000 0.42430  0.90180  0.57480  Biso   1.000  H
  C29      1.0000 0.53660  0.57220  0.48330  Biso   1.000  C
  C30      1.0000 0.46340  0.42780  0.51670  Biso   1.000  C
  H27      1.0000 0.63760  0.57190  0.50910  Biso   1.000  H
  H28      1.0000 0.36240  0.42810  0.49090  Biso   1.000  H
  H29      1.0000 0.47710  0.65210  0.51610  Biso   1.000  H
  H30      1.0000 0.52290  0.34790  0.48390  Biso   1.000  H
