data_image0
_cell_length_a       8.3584
_cell_length_b       9.1892
_cell_length_c       17.7463
_cell_angle_alpha    90
_cell_angle_beta     97.063
_cell_angle_gamma    90

_symmetry_space_group_name_H-M    "P 1"
_symmetry_int_tables_number       1

loop_
  _symmetry_equiv_pos_as_xyz
  'x, y, z'

loop_
  _atom_site_label
  _atom_site_occupancy
  _atom_site_fract_x
  _atom_site_fract_y
  _atom_site_fract_z
  _atom_site_thermal_displace_type
  _atom_site_B_iso_or_equiv
  _atom_site_type_symbol
  Cu1      1.0000 0.11249  0.33000  0.24045  Biso   1.000  Cu
  Cu2      1.0000 0.88751  0.83000  0.25955  Biso   1.000  Cu
  Cu3      1.0000 0.88751  0.67000  0.75955  Biso   1.000  Cu
  Cu4      1.0000 0.11249  0.17000  0.74045  Biso   1.000  Cu
  S1       1.0000 0.31905  0.46305  0.40009  Biso   1.000  S
  S2       1.0000 0.68095  0.96305  0.09991  Biso   1.000  S
  S3       1.0000 0.68095  0.53695  0.59991  Biso   1.000  S
  S4       1.0000 0.31905  0.03695  0.90009  Biso   1.000  S
  S5       1.0000 0.36585  0.48583  0.09970  Biso   1.000  S
  S6       1.0000 0.63415  0.98583  0.40030  Biso   1.000  S
  S7       1.0000 0.63415  0.51417  0.90030  Biso   1.000  S
  S8       1.0000 0.36585  0.01417  0.59970  Biso   1.000  S
  C1       1.0000 0.02150  0.51750  0.24465  Biso   1.000  C
  C2       1.0000 0.97850  0.01750  0.25535  Biso   1.000  C
  C3       1.0000 0.97850  0.48250  0.75535  Biso   1.000  C
  C4       1.0000 0.02150  0.98250  0.74465  Biso   1.000  C
  C5       1.0000 0.44420  0.38090  0.33981  Biso   1.000  C
  C6       1.0000 0.55580  0.88090  0.16019  Biso   1.000  C
  C7       1.0000 0.55580  0.61910  0.66019  Biso   1.000  C
  C8       1.0000 0.44420  0.11910  0.83981  Biso   1.000  C
  C9       1.0000 0.68980  0.32940  0.30676  Biso   1.000  C
  C10      1.0000 0.31020  0.82940  0.19324  Biso   1.000  C
  C11      1.0000 0.31020  0.67060  0.69324  Biso   1.000  C
  C12      1.0000 0.68980  0.17060  0.80676  Biso   1.000  C
  H1       1.0000 0.80140  0.33860  0.31420  Biso   1.000  H
  H2       1.0000 0.19860  0.83860  0.18580  Biso   1.000  H
  H3       1.0000 0.19860  0.66140  0.68580  Biso   1.000  H
  H4       1.0000 0.80140  0.16140  0.81420  Biso   1.000  H
  C13      1.0000 0.62140  0.24930  0.24691  Biso   1.000  C
  C14      1.0000 0.37860  0.74930  0.25309  Biso   1.000  C
  C15      1.0000 0.37860  0.75070  0.75309  Biso   1.000  C
  C16      1.0000 0.62140  0.25070  0.74691  Biso   1.000  C
  H5       1.0000 0.68410  0.20220  0.21460  Biso   1.000  H
  H6       1.0000 0.31590  0.70220  0.28540  Biso   1.000  H
  H7       1.0000 0.31590  0.79780  0.78540  Biso   1.000  H
  H8       1.0000 0.68410  0.29780  0.71460  Biso   1.000  H
  C17      1.0000 0.45730  0.24050  0.23608  Biso   1.000  C
  C18      1.0000 0.54270  0.74050  0.26392  Biso   1.000  C
  C19      1.0000 0.54270  0.75950  0.76392  Biso   1.000  C
  C20      1.0000 0.45730  0.25950  0.73608  Biso   1.000  C
  H9       1.0000 0.40800  0.18510  0.19590  Biso   1.000  H
  H10      1.0000 0.59200  0.68510  0.30410  Biso   1.000  H
  H11      1.0000 0.59200  0.81490  0.80410  Biso   1.000  H
  H12      1.0000 0.40800  0.31490  0.69590  Biso   1.000  H
  C21      1.0000 0.46330  0.55150  0.46988  Biso   1.000  C
  C22      1.0000 0.53670  0.05150  0.03012  Biso   1.000  C
  C23      1.0000 0.53670  0.44850  0.53012  Biso   1.000  C
  C24      1.0000 0.46330  0.94850  0.96988  Biso   1.000  C
  H13      1.0000 0.54830  0.59400  0.44440  Biso   1.000  H
  H14      1.0000 0.45170  0.09400  0.05560  Biso   1.000  H
  H15      1.0000 0.45170  0.40600  0.55560  Biso   1.000  H
  H16      1.0000 0.54830  0.90600  0.94440  Biso   1.000  H
  H17      1.0000 0.40990  0.62970  0.49370  Biso   1.000  H
  H18      1.0000 0.59010  0.12970  0.00630  Biso   1.000  H
  H19      1.0000 0.59010  0.37030  0.50630  Biso   1.000  H
  H20      1.0000 0.40990  0.87030  0.99370  Biso   1.000  H
  C25      1.0000 0.20470  0.38140  0.05562  Biso   1.000  C
  C26      1.0000 0.79530  0.88140  0.44438  Biso   1.000  C
  C27      1.0000 0.79530  0.61860  0.94438  Biso   1.000  C
  C28      1.0000 0.20470  0.11860  0.55562  Biso   1.000  C
  C29      1.0000 0.04490  0.30870  0.95150  Biso   1.000  C
  C30      1.0000 0.95510  0.80870  0.54850  Biso   1.000  C
  C31      1.0000 0.95510  0.69130  0.04850  Biso   1.000  C
  C32      1.0000 0.04490  0.19130  0.45150  Biso   1.000  C
  H21      1.0000 0.01410  0.31220  0.89940  Biso   1.000  H
  H22      1.0000 0.98590  0.81220  0.60060  Biso   1.000  H
  H23      1.0000 0.98590  0.68780  0.10060  Biso   1.000  H
  H24      1.0000 0.01410  0.18780  0.39940  Biso   1.000  H
  C33      1.0000 0.96330  0.21800  0.99464  Biso   1.000  C
  C34      1.0000 0.03670  0.71800  0.50536  Biso   1.000  C
  C35      1.0000 0.03670  0.78200  0.00536  Biso   1.000  C
  C36      1.0000 0.96330  0.28200  0.49464  Biso   1.000  C
  H25      1.0000 0.87900  0.15980  0.97290  Biso   1.000  H
  H26      1.0000 0.12100  0.65980  0.52710  Biso   1.000  H
  H27      1.0000 0.12100  0.84020  0.02710  Biso   1.000  H
  H28      1.0000 0.87900  0.34020  0.47290  Biso   1.000  H
  C37      1.0000 0.01120  0.21690  0.07124  Biso   1.000  C
  C38      1.0000 0.98880  0.71690  0.42876  Biso   1.000  C
  C39      1.0000 0.98880  0.78310  0.92876  Biso   1.000  C
  C40      1.0000 0.01120  0.28310  0.57124  Biso   1.000  C
  H29      1.0000 0.95760  0.15630  0.10180  Biso   1.000  H
  H30      1.0000 0.04240  0.65630  0.39820  Biso   1.000  H
  H31      1.0000 0.04240  0.84370  0.89820  Biso   1.000  H
  H32      1.0000 0.95760  0.34370  0.60180  Biso   1.000  H
  C41      1.0000 0.45260  0.55660  0.01897  Biso   1.000  C
  C42      1.0000 0.54740  0.05660  0.48103  Biso   1.000  C
  C43      1.0000 0.54740  0.44340  0.98103  Biso   1.000  C
  C44      1.0000 0.45260  0.94340  0.51897  Biso   1.000  C
  H33      1.0000 0.36700  0.59380  0.98220  Biso   1.000  H
  H34      1.0000 0.63300  0.09380  0.51780  Biso   1.000  H
  H35      1.0000 0.63300  0.40620  0.01780  Biso   1.000  H
  H36      1.0000 0.36700  0.90620  0.48220  Biso   1.000  H
  H37      1.0000 0.52340  0.63720  0.03540  Biso   1.000  H
  H38      1.0000 0.47660  0.13720  0.46460  Biso   1.000  H
  H39      1.0000 0.47660  0.36280  0.96460  Biso   1.000  H
  H40      1.0000 0.52340  0.86280  0.53540  Biso   1.000  H
  N1       1.0000 0.96910  0.63270  0.24874  Biso   1.000  N
  N2       1.0000 0.03090  0.13270  0.25126  Biso   1.000  N
  N3       1.0000 0.03090  0.36730  0.75126  Biso   1.000  N
  N4       1.0000 0.96910  0.86730  0.74874  Biso   1.000  N
  N5       1.0000 0.36490  0.30890  0.28131  Biso   1.000  N
  N6       1.0000 0.63510  0.80890  0.21869  Biso   1.000  N
  N7       1.0000 0.63510  0.69110  0.71869  Biso   1.000  N
  N8       1.0000 0.36490  0.19110  0.78131  Biso   1.000  N
  N9       1.0000 0.60390  0.39520  0.35524  Biso   1.000  N
  N10      1.0000 0.39610  0.89520  0.14476  Biso   1.000  N
  N11      1.0000 0.39610  0.60480  0.64476  Biso   1.000  N
  N12      1.0000 0.60390  0.10480  0.85524  Biso   1.000  N
  N13      1.0000 0.13230  0.29980  0.10385  Biso   1.000  N
  N14      1.0000 0.86770  0.79980  0.39615  Biso   1.000  N
  N15      1.0000 0.86770  0.70020  0.89615  Biso   1.000  N
  N16      1.0000 0.13230  0.20020  0.60385  Biso   1.000  N
  N17      1.0000 0.16620  0.39150  0.98123  Biso   1.000  N
  N18      1.0000 0.83380  0.89150  0.51877  Biso   1.000  N
  N19      1.0000 0.83380  0.60850  0.01877  Biso   1.000  N
  N20      1.0000 0.16620  0.10850  0.48123  Biso   1.000  N
