data_image0
_cell_length_a       17.27
_cell_length_b       12.04
_cell_length_c       13.064
_cell_angle_alpha    90
_cell_angle_beta     127.94
_cell_angle_gamma    90

_symmetry_space_group_name_H-M    "P 1"
_symmetry_int_tables_number       1

loop_
  _symmetry_equiv_pos_as_xyz
  'x, y, z'

loop_
  _atom_site_label
  _atom_site_occupancy
  _atom_site_fract_x
  _atom_site_fract_y
  _atom_site_fract_z
  _atom_site_thermal_displace_type
  _atom_site_B_iso_or_equiv
  _atom_site_type_symbol
  Cu1      1.0000 0.39314  0.49203  0.59806  Biso   1.000  Cu
  Cu2      1.0000 0.89314  0.99203  0.59806  Biso   1.000  Cu
  Cu3      1.0000 0.60686  0.49203  0.90194  Biso   1.000  Cu
  Cu4      1.0000 0.10686  0.99203  0.90194  Biso   1.000  Cu
  Cu5      1.0000 0.60686  0.50797  0.40194  Biso   1.000  Cu
  Cu6      1.0000 0.10686  0.00797  0.40194  Biso   1.000  Cu
  Cu7      1.0000 0.39314  0.50797  0.09806  Biso   1.000  Cu
  Cu8      1.0000 0.89314  0.00797  0.09806  Biso   1.000  Cu
  Cl1      1.0000 0.57394  0.49142  0.69868  Biso   1.000  Cl
  Cl2      1.0000 0.07394  0.99142  0.69868  Biso   1.000  Cl
  Cl3      1.0000 0.42606  0.49142  0.80132  Biso   1.000  Cl
  Cl4      1.0000 0.92606  0.99142  0.80132  Biso   1.000  Cl
  Cl5      1.0000 0.42606  0.50858  0.30132  Biso   1.000  Cl
  Cl6      1.0000 0.92606  0.00858  0.30132  Biso   1.000  Cl
  Cl7      1.0000 0.57394  0.50858  0.19868  Biso   1.000  Cl
  Cl8      1.0000 0.07394  0.00858  0.19868  Biso   1.000  Cl
  N1       1.0000 0.38550  0.84790  0.37850  Biso   1.000  N
  N2       1.0000 0.88550  0.34790  0.37850  Biso   1.000  N
  N3       1.0000 0.61450  0.84790  0.12150  Biso   1.000  N
  N4       1.0000 0.11450  0.34790  0.12150  Biso   1.000  N
  N5       1.0000 0.61450  0.15210  0.62150  Biso   1.000  N
  N6       1.0000 0.11450  0.65210  0.62150  Biso   1.000  N
  N7       1.0000 0.38550  0.15210  0.87850  Biso   1.000  N
  N8       1.0000 0.88550  0.65210  0.87850  Biso   1.000  N
  N9       1.0000 0.40548  0.91092  0.55240  Biso   1.000  N
  N10      1.0000 0.90548  0.41092  0.55240  Biso   1.000  N
  N11      1.0000 0.59452  0.91092  0.94760  Biso   1.000  N
  N12      1.0000 0.09452  0.41092  0.94760  Biso   1.000  N
  N13      1.0000 0.59452  0.08908  0.44760  Biso   1.000  N
  N14      1.0000 0.09452  0.58908  0.44760  Biso   1.000  N
  N15      1.0000 0.40548  0.08908  0.05240  Biso   1.000  N
  N16      1.0000 0.90548  0.58908  0.05240  Biso   1.000  N
  N17      1.0000 0.36590  0.95520  0.36130  Biso   1.000  N
  N18      1.0000 0.86590  0.45520  0.36130  Biso   1.000  N
  N19      1.0000 0.63410  0.95520  0.13870  Biso   1.000  N
  N20      1.0000 0.13410  0.45520  0.13870  Biso   1.000  N
  N21      1.0000 0.63410  0.04480  0.63870  Biso   1.000  N
  N22      1.0000 0.13410  0.54480  0.63870  Biso   1.000  N
  N23      1.0000 0.36590  0.04480  0.86130  Biso   1.000  N
  N24      1.0000 0.86590  0.54480  0.86130  Biso   1.000  N
  N25      1.0000 0.40899  0.82409  0.49240  Biso   1.000  N
  N26      1.0000 0.90899  0.32409  0.49240  Biso   1.000  N
  N27      1.0000 0.59101  0.82409  0.00760  Biso   1.000  N
  N28      1.0000 0.09101  0.32409  0.00760  Biso   1.000  N
  N29      1.0000 0.59101  0.17591  0.50760  Biso   1.000  N
  N30      1.0000 0.09101  0.67591  0.50760  Biso   1.000  N
  N31      1.0000 0.40899  0.17591  0.99240  Biso   1.000  N
  N32      1.0000 0.90899  0.67591  0.99240  Biso   1.000  N
  N33      1.0000 0.36588  0.33219  0.54310  Biso   1.000  N
  N34      1.0000 0.86588  0.83219  0.54310  Biso   1.000  N
  N35      1.0000 0.63412  0.33219  0.95690  Biso   1.000  N
  N36      1.0000 0.13412  0.83219  0.95690  Biso   1.000  N
  N37      1.0000 0.63412  0.66781  0.45690  Biso   1.000  N
  N38      1.0000 0.13412  0.16781  0.45690  Biso   1.000  N
  N39      1.0000 0.36588  0.66781  0.04310  Biso   1.000  N
  N40      1.0000 0.86588  0.16781  0.04310  Biso   1.000  N
  C1       1.0000 0.29460  0.58310  0.43460  Biso   1.000  C
  C2       1.0000 0.79460  0.08310  0.43460  Biso   1.000  C
  C3       1.0000 0.70540  0.58310  0.06540  Biso   1.000  C
  C4       1.0000 0.20540  0.08310  0.06540  Biso   1.000  C
  C5       1.0000 0.70540  0.41690  0.56540  Biso   1.000  C
  C6       1.0000 0.20540  0.91690  0.56540  Biso   1.000  C
  C7       1.0000 0.29460  0.41690  0.93460  Biso   1.000  C
  C8       1.0000 0.79460  0.91690  0.93460  Biso   1.000  C
  H1       1.0000 0.24110  0.54720  0.42590  Biso   1.000  H
  H2       1.0000 0.74110  0.04720  0.42590  Biso   1.000  H
  H3       1.0000 0.75890  0.54720  0.07410  Biso   1.000  H
  H4       1.0000 0.25890  0.04720  0.07410  Biso   1.000  H
  H5       1.0000 0.75890  0.45280  0.57410  Biso   1.000  H
  H6       1.0000 0.25890  0.95280  0.57410  Biso   1.000  H
  H7       1.0000 0.24110  0.45280  0.92590  Biso   1.000  H
  H8       1.0000 0.74110  0.95280  0.92590  Biso   1.000  H
  H9       1.0000 0.30620  0.56830  0.37290  Biso   1.000  H
  H10      1.0000 0.80620  0.06830  0.37290  Biso   1.000  H
  H11      1.0000 0.69380  0.56830  0.12710  Biso   1.000  H
  H12      1.0000 0.19380  0.06830  0.12710  Biso   1.000  H
  H13      1.0000 0.69380  0.43170  0.62710  Biso   1.000  H
  H14      1.0000 0.19380  0.93170  0.62710  Biso   1.000  H
  H15      1.0000 0.30620  0.43170  0.87290  Biso   1.000  H
  H16      1.0000 0.80620  0.93170  0.87290  Biso   1.000  H
  C9       1.0000 0.35340  0.65490  0.53300  Biso   1.000  C
  C10      1.0000 0.85340  0.15490  0.53300  Biso   1.000  C
  C11      1.0000 0.64660  0.65490  0.96700  Biso   1.000  C
  C12      1.0000 0.14660  0.15490  0.96700  Biso   1.000  C
  C13      1.0000 0.64660  0.34510  0.46700  Biso   1.000  C
  C14      1.0000 0.14660  0.84510  0.46700  Biso   1.000  C
  C15      1.0000 0.35340  0.34510  0.03300  Biso   1.000  C
  C16      1.0000 0.85340  0.84510  0.03300  Biso   1.000  C
  H17      1.0000 0.34190  0.66980  0.59480  Biso   1.000  H
  H18      1.0000 0.84190  0.16980  0.59480  Biso   1.000  H
  H19      1.0000 0.65810  0.66980  0.90520  Biso   1.000  H
  H20      1.0000 0.15810  0.16980  0.90520  Biso   1.000  H
  H21      1.0000 0.65810  0.33020  0.40520  Biso   1.000  H
  H22      1.0000 0.15810  0.83020  0.40520  Biso   1.000  H
  H23      1.0000 0.34190  0.33020  0.09480  Biso   1.000  H
  H24      1.0000 0.84190  0.83020  0.09480  Biso   1.000  H
  C17      1.0000 0.43670  0.71210  0.54750  Biso   1.000  C
  C18      1.0000 0.93670  0.21210  0.54750  Biso   1.000  C
  C19      1.0000 0.56330  0.71210  0.95250  Biso   1.000  C
  C20      1.0000 0.06330  0.21210  0.95250  Biso   1.000  C
  C21      1.0000 0.56330  0.28790  0.45250  Biso   1.000  C
  C22      1.0000 0.06330  0.78790  0.45250  Biso   1.000  C
  C23      1.0000 0.43670  0.28790  0.04750  Biso   1.000  C
  C24      1.0000 0.93670  0.78790  0.04750  Biso   1.000  C
  H25      1.0000 0.45450  0.66950  0.50270  Biso   1.000  H
  H26      1.0000 0.95450  0.16950  0.50270  Biso   1.000  H
  H27      1.0000 0.54550  0.66950  0.99730  Biso   1.000  H
  H28      1.0000 0.04550  0.16950  0.99730  Biso   1.000  H
  H29      1.0000 0.54550  0.33050  0.49730  Biso   1.000  H
  H30      1.0000 0.04550  0.83050  0.49730  Biso   1.000  H
  H31      1.0000 0.45450  0.33050  0.00270  Biso   1.000  H
  H32      1.0000 0.95450  0.83050  0.00270  Biso   1.000  H
  H33      1.0000 0.49280  0.71630  0.63740  Biso   1.000  H
  H34      1.0000 0.99280  0.21630  0.63740  Biso   1.000  H
  H35      1.0000 0.50720  0.71630  0.86260  Biso   1.000  H
  H36      1.0000 0.00720  0.21630  0.86260  Biso   1.000  H
  H37      1.0000 0.50720  0.28370  0.36260  Biso   1.000  H
  H38      1.0000 0.00720  0.78370  0.36260  Biso   1.000  H
  H39      1.0000 0.49280  0.28370  0.13740  Biso   1.000  H
  H40      1.0000 0.99280  0.78370  0.13740  Biso   1.000  H
  C25      1.0000 0.36850  0.10860  0.49050  Biso   1.000  C
  C26      1.0000 0.86850  0.60860  0.49050  Biso   1.000  C
  C27      1.0000 0.63150  0.10860  0.00950  Biso   1.000  C
  C28      1.0000 0.13150  0.60860  0.00950  Biso   1.000  C
  C29      1.0000 0.63150  0.89140  0.50950  Biso   1.000  C
  C30      1.0000 0.13150  0.39140  0.50950  Biso   1.000  C
  C31      1.0000 0.36850  0.89140  0.99050  Biso   1.000  C
  C32      1.0000 0.86850  0.39140  0.99050  Biso   1.000  C
  C33      1.0000 0.34890  0.29980  0.43310  Biso   1.000  C
  C34      1.0000 0.84890  0.79980  0.43310  Biso   1.000  C
  C35      1.0000 0.65110  0.29980  0.06690  Biso   1.000  C
  C36      1.0000 0.15110  0.79980  0.06690  Biso   1.000  C
  C37      1.0000 0.65110  0.70020  0.56690  Biso   1.000  C
  C38      1.0000 0.15110  0.20020  0.56690  Biso   1.000  C
  C39      1.0000 0.34890  0.70020  0.93310  Biso   1.000  C
  C40      1.0000 0.84890  0.20020  0.93310  Biso   1.000  C
  H41      1.0000 0.33560  0.35590  0.37200  Biso   1.000  H
  H42      1.0000 0.83560  0.85590  0.37200  Biso   1.000  H
  H43      1.0000 0.66440  0.35590  0.12800  Biso   1.000  H
  H44      1.0000 0.16440  0.85590  0.12800  Biso   1.000  H
  H45      1.0000 0.66440  0.64410  0.62800  Biso   1.000  H
  H46      1.0000 0.16440  0.14410  0.62800  Biso   1.000  H
  H47      1.0000 0.33560  0.64410  0.87200  Biso   1.000  H
  H48      1.0000 0.83560  0.14410  0.87200  Biso   1.000  H
  C41      1.0000 0.38290  0.14090  0.60250  Biso   1.000  C
  C42      1.0000 0.88290  0.64090  0.60250  Biso   1.000  C
  C43      1.0000 0.61710  0.14090  0.89750  Biso   1.000  C
  C44      1.0000 0.11710  0.64090  0.89750  Biso   1.000  C
  C45      1.0000 0.61710  0.85910  0.39750  Biso   1.000  C
  C46      1.0000 0.11710  0.35910  0.39750  Biso   1.000  C
  C47      1.0000 0.38290  0.85910  0.10250  Biso   1.000  C
  C48      1.0000 0.88290  0.35910  0.10250  Biso   1.000  C
  H49      1.0000 0.39370  0.08600  0.66330  Biso   1.000  H
  H50      1.0000 0.89370  0.58600  0.66330  Biso   1.000  H
  H51      1.0000 0.60630  0.08600  0.83670  Biso   1.000  H
  H52      1.0000 0.10630  0.58600  0.83670  Biso   1.000  H
  H53      1.0000 0.60630  0.91400  0.33670  Biso   1.000  H
  H54      1.0000 0.10630  0.41400  0.33670  Biso   1.000  H
  H55      1.0000 0.39370  0.91400  0.16330  Biso   1.000  H
  H56      1.0000 0.89370  0.41400  0.16330  Biso   1.000  H
  C49      1.0000 0.38110  0.25230  0.62560  Biso   1.000  C
  C50      1.0000 0.88110  0.75230  0.62560  Biso   1.000  C
  C51      1.0000 0.61890  0.25230  0.87440  Biso   1.000  C
  C52      1.0000 0.11890  0.75230  0.87440  Biso   1.000  C
  C53      1.0000 0.61890  0.74770  0.37440  Biso   1.000  C
  C54      1.0000 0.11890  0.24770  0.37440  Biso   1.000  C
  C55      1.0000 0.38110  0.74770  0.12560  Biso   1.000  C
  C56      1.0000 0.88110  0.24770  0.12560  Biso   1.000  C
  H57      1.0000 0.39110  0.27410  0.70370  Biso   1.000  H
  H58      1.0000 0.89110  0.77410  0.70370  Biso   1.000  H
  H59      1.0000 0.60890  0.27410  0.79630  Biso   1.000  H
  H60      1.0000 0.10890  0.77410  0.79630  Biso   1.000  H
  H61      1.0000 0.60890  0.72590  0.29630  Biso   1.000  H
  H62      1.0000 0.10890  0.22590  0.29630  Biso   1.000  H
  H63      1.0000 0.39110  0.72590  0.20370  Biso   1.000  H
  H64      1.0000 0.89110  0.22590  0.20370  Biso   1.000  H
  C57      1.0000 0.34950  0.19020  0.40320  Biso   1.000  C
  C58      1.0000 0.84950  0.69020  0.40320  Biso   1.000  C
  C59      1.0000 0.65050  0.19020  0.09680  Biso   1.000  C
  C60      1.0000 0.15050  0.69020  0.09680  Biso   1.000  C
  C61      1.0000 0.65050  0.80980  0.59680  Biso   1.000  C
  C62      1.0000 0.15050  0.30980  0.59680  Biso   1.000  C
  C63      1.0000 0.34950  0.80980  0.90320  Biso   1.000  C
  C64      1.0000 0.84950  0.30980  0.90320  Biso   1.000  C
  H65      1.0000 0.33710  0.17040  0.32310  Biso   1.000  H
  H66      1.0000 0.83710  0.67040  0.32310  Biso   1.000  H
  H67      1.0000 0.66290  0.17040  0.17690  Biso   1.000  H
  H68      1.0000 0.16290  0.67040  0.17690  Biso   1.000  H
  H69      1.0000 0.66290  0.82960  0.67690  Biso   1.000  H
  H70      1.0000 0.16290  0.32960  0.67690  Biso   1.000  H
  H71      1.0000 0.33710  0.82960  0.82310  Biso   1.000  H
  H72      1.0000 0.83710  0.32960  0.82310  Biso   1.000  H
  C65      1.0000 0.37850  0.99170  0.46760  Biso   1.000  C
  C66      1.0000 0.87850  0.49170  0.46760  Biso   1.000  C
  C67      1.0000 0.62150  0.99170  0.03240  Biso   1.000  C
  C68      1.0000 0.12150  0.49170  0.03240  Biso   1.000  C
  C69      1.0000 0.62150  0.00830  0.53240  Biso   1.000  C
  C70      1.0000 0.12150  0.50830  0.53240  Biso   1.000  C
  C71      1.0000 0.37850  0.00830  0.96760  Biso   1.000  C
  C72      1.0000 0.87850  0.50830  0.96760  Biso   1.000  C
