data_image0
_cell_length_a       10.7314
_cell_length_b       12.4074
_cell_length_c       20.8852
_cell_angle_alpha    90
_cell_angle_beta     100.122
_cell_angle_gamma    90

_symmetry_space_group_name_H-M    "P 1"
_symmetry_int_tables_number       1

loop_
  _symmetry_equiv_pos_as_xyz
  'x, y, z'

loop_
  _atom_site_label
  _atom_site_occupancy
  _atom_site_fract_x
  _atom_site_fract_y
  _atom_site_fract_z
  _atom_site_thermal_displace_type
  _atom_site_B_iso_or_equiv
  _atom_site_type_symbol
  Cu1      1.0000 0.25736  0.41090  0.42714  Biso   1.000  Cu
  Cu2      1.0000 0.74264  0.41090  0.07286  Biso   1.000  Cu
  Cu3      1.0000 0.75736  0.91090  0.42714  Biso   1.000  Cu
  Cu4      1.0000 0.24264  0.91090  0.07286  Biso   1.000  Cu
  Cu5      1.0000 0.74264  0.58910  0.57286  Biso   1.000  Cu
  Cu6      1.0000 0.25736  0.58910  0.92714  Biso   1.000  Cu
  Cu7      1.0000 0.24264  0.08910  0.57286  Biso   1.000  Cu
  Cu8      1.0000 0.75736  0.08910  0.92714  Biso   1.000  Cu
  N1       1.0000 0.24421  0.54392  0.48931  Biso   1.000  N
  N2       1.0000 0.75579  0.54392  0.01069  Biso   1.000  N
  N3       1.0000 0.74421  0.04392  0.48931  Biso   1.000  N
  N4       1.0000 0.25579  0.04392  0.01069  Biso   1.000  N
  N5       1.0000 0.75579  0.45608  0.51069  Biso   1.000  N
  N6       1.0000 0.24421  0.45608  0.98931  Biso   1.000  N
  N7       1.0000 0.25579  0.95608  0.51069  Biso   1.000  N
  N8       1.0000 0.74421  0.95608  0.98931  Biso   1.000  N
  N9       1.0000 0.07702  0.47448  0.38872  Biso   1.000  N
  N10      1.0000 0.92298  0.47448  0.11128  Biso   1.000  N
  N11      1.0000 0.57702  0.97448  0.38872  Biso   1.000  N
  N12      1.0000 0.42298  0.97448  0.11128  Biso   1.000  N
  N13      1.0000 0.92298  0.52552  0.61128  Biso   1.000  N
  N14      1.0000 0.07702  0.52552  0.88872  Biso   1.000  N
  N15      1.0000 0.42298  0.02552  0.61128  Biso   1.000  N
  N16      1.0000 0.57702  0.02552  0.88872  Biso   1.000  N
  C1       1.0000 0.13133  0.59363  0.47976  Biso   1.000  C
  C2       1.0000 0.86867  0.59363  0.02024  Biso   1.000  C
  C3       1.0000 0.63133  0.09363  0.47976  Biso   1.000  C
  C4       1.0000 0.36867  0.09363  0.02024  Biso   1.000  C
  C5       1.0000 0.86867  0.40637  0.52024  Biso   1.000  C
  C6       1.0000 0.13133  0.40637  0.97976  Biso   1.000  C
  C7       1.0000 0.36867  0.90637  0.52024  Biso   1.000  C
  C8       1.0000 0.63133  0.90637  0.97976  Biso   1.000  C
  C9       1.0000 0.99910  0.44308  0.33490  Biso   1.000  C
  C10      1.0000 0.00090  0.44308  0.16510  Biso   1.000  C
  C11      1.0000 0.49910  0.94308  0.33490  Biso   1.000  C
  C12      1.0000 0.50090  0.94308  0.16510  Biso   1.000  C
  C13      1.0000 0.00090  0.55692  0.66510  Biso   1.000  C
  C14      1.0000 0.99910  0.55692  0.83490  Biso   1.000  C
  C15      1.0000 0.50090  0.05692  0.66510  Biso   1.000  C
  C16      1.0000 0.49910  0.05692  0.83490  Biso   1.000  C
  H1       1.0000 0.02290  0.38400  0.31250  Biso   1.000  H
  H2       1.0000 0.97710  0.38400  0.18750  Biso   1.000  H
  H3       1.0000 0.52290  0.88400  0.31250  Biso   1.000  H
  H4       1.0000 0.47710  0.88400  0.18750  Biso   1.000  H
  H5       1.0000 0.97710  0.61600  0.68750  Biso   1.000  H
  H6       1.0000 0.02290  0.61600  0.81250  Biso   1.000  H
  H7       1.0000 0.47710  0.11600  0.68750  Biso   1.000  H
  H8       1.0000 0.52290  0.11600  0.81250  Biso   1.000  H
  C17      1.0000 0.10070  0.67113  0.52273  Biso   1.000  C
  C18      1.0000 0.89930  0.67113  0.97727  Biso   1.000  C
  C19      1.0000 0.60070  0.17113  0.52273  Biso   1.000  C
  C20      1.0000 0.39930  0.17113  0.97727  Biso   1.000  C
  C21      1.0000 0.89930  0.32887  0.47727  Biso   1.000  C
  C22      1.0000 0.10070  0.32887  0.02273  Biso   1.000  C
  C23      1.0000 0.39930  0.82887  0.47727  Biso   1.000  C
  C24      1.0000 0.60070  0.82887  0.02273  Biso   1.000  C
  H9       1.0000 0.02090  0.70290  0.51530  Biso   1.000  H
  H10      1.0000 0.97910  0.70290  0.98470  Biso   1.000  H
  H11      1.0000 0.52090  0.20290  0.51530  Biso   1.000  H
  H12      1.0000 0.47910  0.20290  0.98470  Biso   1.000  H
  H13      1.0000 0.97910  0.29710  0.48470  Biso   1.000  H
  H14      1.0000 0.02090  0.29710  0.01530  Biso   1.000  H
  H15      1.0000 0.47910  0.79710  0.48470  Biso   1.000  H
  H16      1.0000 0.52090  0.79710  0.01530  Biso   1.000  H
  C25      1.0000 0.04082  0.56108  0.42033  Biso   1.000  C
  C26      1.0000 0.95918  0.56108  0.07967  Biso   1.000  C
  C27      1.0000 0.54082  0.06108  0.42033  Biso   1.000  C
  C28      1.0000 0.45918  0.06108  0.07967  Biso   1.000  C
  C29      1.0000 0.95918  0.43892  0.57967  Biso   1.000  C
  C30      1.0000 0.04082  0.43892  0.92033  Biso   1.000  C
  C31      1.0000 0.45918  0.93892  0.57967  Biso   1.000  C
  C32      1.0000 0.54082  0.93892  0.92033  Biso   1.000  C
  C33      1.0000 0.84810  0.58041  0.34292  Biso   1.000  C
  C34      1.0000 0.15190  0.58041  0.15708  Biso   1.000  C
  C35      1.0000 0.34810  0.08041  0.34292  Biso   1.000  C
  C36      1.0000 0.65190  0.08041  0.15708  Biso   1.000  C
  C37      1.0000 0.15190  0.41959  0.65708  Biso   1.000  C
  C38      1.0000 0.84810  0.41959  0.84292  Biso   1.000  C
  C39      1.0000 0.65190  0.91959  0.65708  Biso   1.000  C
  C40      1.0000 0.34810  0.91959  0.84292  Biso   1.000  C
  C41      1.0000 0.32820  0.57250  0.54149  Biso   1.000  C
  C42      1.0000 0.67180  0.57250  0.95851  Biso   1.000  C
  C43      1.0000 0.82820  0.07250  0.54149  Biso   1.000  C
  C44      1.0000 0.17180  0.07250  0.95851  Biso   1.000  C
  C45      1.0000 0.67180  0.42750  0.45851  Biso   1.000  C
  C46      1.0000 0.32820  0.42750  0.04149  Biso   1.000  C
  C47      1.0000 0.17180  0.92750  0.45851  Biso   1.000  C
  C48      1.0000 0.82820  0.92750  0.04149  Biso   1.000  C
  H17      1.0000 0.40650  0.53820  0.54880  Biso   1.000  H
  H18      1.0000 0.59350  0.53820  0.95120  Biso   1.000  H
  H19      1.0000 0.90650  0.03820  0.54880  Biso   1.000  H
  H20      1.0000 0.09350  0.03820  0.95120  Biso   1.000  H
  H21      1.0000 0.59350  0.46180  0.45120  Biso   1.000  H
  H22      1.0000 0.40650  0.46180  0.04880  Biso   1.000  H
  H23      1.0000 0.09350  0.96180  0.45120  Biso   1.000  H
  H24      1.0000 0.90650  0.96180  0.04880  Biso   1.000  H
  C49      1.0000 0.88680  0.49226  0.31070  Biso   1.000  C
  C50      1.0000 0.11320  0.49226  0.18930  Biso   1.000  C
  C51      1.0000 0.38680  0.99226  0.31070  Biso   1.000  C
  C52      1.0000 0.61320  0.99226  0.18930  Biso   1.000  C
  C53      1.0000 0.11320  0.50774  0.68930  Biso   1.000  C
  C54      1.0000 0.88680  0.50774  0.81070  Biso   1.000  C
  C55      1.0000 0.61320  0.00774  0.68930  Biso   1.000  C
  C56      1.0000 0.38680  0.00774  0.81070  Biso   1.000  C
  H25      1.0000 0.83660  0.46670  0.27290  Biso   1.000  H
  H26      1.0000 0.16340  0.46670  0.22710  Biso   1.000  H
  H27      1.0000 0.33660  0.96670  0.27290  Biso   1.000  H
  H28      1.0000 0.66340  0.96670  0.22710  Biso   1.000  H
  H29      1.0000 0.16340  0.53330  0.72710  Biso   1.000  H
  H30      1.0000 0.83660  0.53330  0.77290  Biso   1.000  H
  H31      1.0000 0.66340  0.03330  0.72710  Biso   1.000  H
  H32      1.0000 0.33660  0.03330  0.77290  Biso   1.000  H
  C57      1.0000 0.92950  0.61452  0.39855  Biso   1.000  C
  C58      1.0000 0.07050  0.61452  0.10145  Biso   1.000  C
  C59      1.0000 0.42950  0.11452  0.39855  Biso   1.000  C
  C60      1.0000 0.57050  0.11452  0.10145  Biso   1.000  C
  C61      1.0000 0.07050  0.38548  0.60145  Biso   1.000  C
  C62      1.0000 0.92950  0.38548  0.89855  Biso   1.000  C
  C63      1.0000 0.57050  0.88548  0.60145  Biso   1.000  C
  C64      1.0000 0.42950  0.88548  0.89855  Biso   1.000  C
  H33      1.0000 0.90830  0.67430  0.42130  Biso   1.000  H
  H34      1.0000 0.09170  0.67430  0.07870  Biso   1.000  H
  H35      1.0000 0.40830  0.17430  0.42130  Biso   1.000  H
  H36      1.0000 0.59170  0.17430  0.07870  Biso   1.000  H
  H37      1.0000 0.09170  0.32570  0.57870  Biso   1.000  H
  H38      1.0000 0.90830  0.32570  0.92130  Biso   1.000  H
  H39      1.0000 0.59170  0.82570  0.57870  Biso   1.000  H
  H40      1.0000 0.40830  0.82570  0.92130  Biso   1.000  H
  C65      1.0000 0.18910  0.70092  0.57659  Biso   1.000  C
  C66      1.0000 0.81090  0.70092  0.92341  Biso   1.000  C
  C67      1.0000 0.68910  0.20092  0.57659  Biso   1.000  C
  C68      1.0000 0.31090  0.20092  0.92341  Biso   1.000  C
  C69      1.0000 0.81090  0.29908  0.42341  Biso   1.000  C
  C70      1.0000 0.18910  0.29908  0.07659  Biso   1.000  C
  C71      1.0000 0.31090  0.79908  0.42341  Biso   1.000  C
  C72      1.0000 0.68910  0.79908  0.07659  Biso   1.000  C
  C73      1.0000 0.30500  0.65016  0.58510  Biso   1.000  C
  C74      1.0000 0.69500  0.65016  0.91490  Biso   1.000  C
  C75      1.0000 0.80500  0.15016  0.58510  Biso   1.000  C
  C76      1.0000 0.19500  0.15016  0.91490  Biso   1.000  C
  C77      1.0000 0.69500  0.34984  0.41490  Biso   1.000  C
  C78      1.0000 0.30500  0.34984  0.08510  Biso   1.000  C
  C79      1.0000 0.19500  0.84984  0.41490  Biso   1.000  C
  C80      1.0000 0.80500  0.84984  0.08510  Biso   1.000  C
  H41      1.0000 0.36750  0.66820  0.62020  Biso   1.000  H
  H42      1.0000 0.63250  0.66820  0.87980  Biso   1.000  H
  H43      1.0000 0.86750  0.16820  0.62020  Biso   1.000  H
  H44      1.0000 0.13250  0.16820  0.87980  Biso   1.000  H
  H45      1.0000 0.63250  0.33180  0.37980  Biso   1.000  H
  H46      1.0000 0.36750  0.33180  0.12020  Biso   1.000  H
  H47      1.0000 0.13250  0.83180  0.37980  Biso   1.000  H
  H48      1.0000 0.86750  0.83180  0.12020  Biso   1.000  H
  C81      1.0000 0.72460  0.63660  0.31972  Biso   1.000  C
  C82      1.0000 0.27540  0.63660  0.18028  Biso   1.000  C
  C83      1.0000 0.22460  0.13660  0.31972  Biso   1.000  C
  C84      1.0000 0.77540  0.13660  0.18028  Biso   1.000  C
  C85      1.0000 0.27540  0.36340  0.68028  Biso   1.000  C
  C86      1.0000 0.72460  0.36340  0.81972  Biso   1.000  C
  C87      1.0000 0.77540  0.86340  0.68028  Biso   1.000  C
  C88      1.0000 0.22460  0.86340  0.81972  Biso   1.000  C
  H49      1.0000 0.68990  0.61250  0.27660  Biso   1.000  H
  H50      1.0000 0.31010  0.61250  0.22340  Biso   1.000  H
  H51      1.0000 0.18990  0.11250  0.27660  Biso   1.000  H
  H52      1.0000 0.81010  0.11250  0.22340  Biso   1.000  H
  H53      1.0000 0.31010  0.38750  0.72340  Biso   1.000  H
  H54      1.0000 0.68990  0.38750  0.77660  Biso   1.000  H
  H55      1.0000 0.81010  0.88750  0.72340  Biso   1.000  H
  H56      1.0000 0.18990  0.88750  0.77660  Biso   1.000  H
  H57      1.0000 0.73840  0.71300  0.31930  Biso   1.000  H
  H58      1.0000 0.26160  0.71300  0.18070  Biso   1.000  H
  H59      1.0000 0.23840  0.21300  0.31930  Biso   1.000  H
  H60      1.0000 0.76160  0.21300  0.18070  Biso   1.000  H
  H61      1.0000 0.26160  0.28700  0.68070  Biso   1.000  H
  H62      1.0000 0.73840  0.28700  0.81930  Biso   1.000  H
  H63      1.0000 0.76160  0.78700  0.68070  Biso   1.000  H
  H64      1.0000 0.23840  0.78700  0.81930  Biso   1.000  H
  H65      1.0000 0.66660  0.62020  0.34850  Biso   1.000  H
  H66      1.0000 0.33340  0.62020  0.15150  Biso   1.000  H
  H67      1.0000 0.16660  0.12020  0.34850  Biso   1.000  H
  H68      1.0000 0.83340  0.12020  0.15150  Biso   1.000  H
  H69      1.0000 0.33340  0.37980  0.65150  Biso   1.000  H
  H70      1.0000 0.66660  0.37980  0.84850  Biso   1.000  H
  H71      1.0000 0.83340  0.87980  0.65150  Biso   1.000  H
  H72      1.0000 0.16660  0.87980  0.84850  Biso   1.000  H
  C89      1.0000 0.40856  0.41858  0.31611  Biso   1.000  C
  C90      1.0000 0.59144  0.41858  0.18389  Biso   1.000  C
  C91      1.0000 0.90856  0.91858  0.31611  Biso   1.000  C
  C92      1.0000 0.09144  0.91858  0.18389  Biso   1.000  C
  C93      1.0000 0.59144  0.58142  0.68389  Biso   1.000  C
  C94      1.0000 0.40856  0.58142  0.81611  Biso   1.000  C
  C95      1.0000 0.09144  0.08142  0.68389  Biso   1.000  C
  C96      1.0000 0.90856  0.08142  0.81611  Biso   1.000  C
  C97      1.0000 0.35550  0.41769  0.35913  Biso   1.000  C
  C98      1.0000 0.64450  0.41769  0.14087  Biso   1.000  C
  C99      1.0000 0.85550  0.91769  0.35913  Biso   1.000  C
  C100     1.0000 0.14450  0.91769  0.14087  Biso   1.000  C
  C101     1.0000 0.64450  0.58231  0.64087  Biso   1.000  C
  C102     1.0000 0.35550  0.58231  0.85913  Biso   1.000  C
  C103     1.0000 0.14450  0.08231  0.64087  Biso   1.000  C
  C104     1.0000 0.85550  0.08231  0.85913  Biso   1.000  C
  C105     1.0000 0.15910  0.78570  0.62313  Biso   1.000  C
  C106     1.0000 0.84090  0.78570  0.87687  Biso   1.000  C
  C107     1.0000 0.65910  0.28570  0.62313  Biso   1.000  C
  C108     1.0000 0.34090  0.28570  0.87687  Biso   1.000  C
  C109     1.0000 0.84090  0.21430  0.37687  Biso   1.000  C
  C110     1.0000 0.15910  0.21430  0.12313  Biso   1.000  C
  C111     1.0000 0.34090  0.71430  0.37687  Biso   1.000  C
  C112     1.0000 0.65910  0.71430  0.12313  Biso   1.000  C
  H73      1.0000 0.19110  0.76340  0.66700  Biso   1.000  H
  H74      1.0000 0.80890  0.76340  0.83300  Biso   1.000  H
  H75      1.0000 0.69110  0.26340  0.66700  Biso   1.000  H
  H76      1.0000 0.30890  0.26340  0.83300  Biso   1.000  H
  H77      1.0000 0.80890  0.23660  0.33300  Biso   1.000  H
  H78      1.0000 0.19110  0.23660  0.16700  Biso   1.000  H
  H79      1.0000 0.30890  0.73660  0.33300  Biso   1.000  H
  H80      1.0000 0.69110  0.73660  0.16700  Biso   1.000  H
  H81      1.0000 0.06910  0.79520  0.61760  Biso   1.000  H
  H82      1.0000 0.93090  0.79520  0.88240  Biso   1.000  H
  H83      1.0000 0.56910  0.29520  0.61760  Biso   1.000  H
  H84      1.0000 0.43090  0.29520  0.88240  Biso   1.000  H
  H85      1.0000 0.93090  0.20480  0.38240  Biso   1.000  H
  H86      1.0000 0.06910  0.20480  0.11760  Biso   1.000  H
  H87      1.0000 0.43090  0.70480  0.38240  Biso   1.000  H
  H88      1.0000 0.56910  0.70480  0.11760  Biso   1.000  H
  H89      1.0000 0.19810  0.85260  0.61450  Biso   1.000  H
  H90      1.0000 0.80190  0.85260  0.88550  Biso   1.000  H
  H91      1.0000 0.69810  0.35260  0.61450  Biso   1.000  H
  H92      1.0000 0.30190  0.35260  0.88550  Biso   1.000  H
  H93      1.0000 0.80190  0.14740  0.38550  Biso   1.000  H
  H94      1.0000 0.19810  0.14740  0.11450  Biso   1.000  H
  H95      1.0000 0.30190  0.64740  0.38550  Biso   1.000  H
  H96      1.0000 0.69810  0.64740  0.11450  Biso   1.000  H
  N17      1.0000 0.25080  0.28632  0.48278  Biso   1.000  N
  N18      1.0000 0.74920  0.28632  0.01722  Biso   1.000  N
  N19      1.0000 0.75080  0.78632  0.48278  Biso   1.000  N
  N20      1.0000 0.24920  0.78632  0.01722  Biso   1.000  N
  N21      1.0000 0.74920  0.71368  0.51722  Biso   1.000  N
  N22      1.0000 0.25080  0.71368  0.98278  Biso   1.000  N
  N23      1.0000 0.24920  0.21368  0.51722  Biso   1.000  N
  N24      1.0000 0.75080  0.21368  0.98278  Biso   1.000  N
  Cu9      1.0000 0.50000  0.41848  0.25000  Biso   1.000  Cu
  Cu10     1.0000 0.00000  0.91848  0.25000  Biso   1.000  Cu
  Cu11     1.0000 0.50000  0.58152  0.75000  Biso   1.000  Cu
  Cu12     1.0000 0.00000  0.08152  0.75000  Biso   1.000  Cu
