data_image0
_cell_length_a       10.7196
_cell_length_b       12.37
_cell_length_c       20.9182
_cell_angle_alpha    90
_cell_angle_beta     100.146
_cell_angle_gamma    90

_symmetry_space_group_name_H-M    "P 1"
_symmetry_int_tables_number       1

loop_
  _symmetry_equiv_pos_as_xyz
  'x, y, z'

loop_
  _atom_site_label
  _atom_site_occupancy
  _atom_site_fract_x
  _atom_site_fract_y
  _atom_site_fract_z
  _atom_site_thermal_displace_type
  _atom_site_B_iso_or_equiv
  _atom_site_type_symbol
  Cu1      1.0000 0.74268  0.41078  0.07285  Biso   1.000  Cu
  Cu2      1.0000 0.24268  0.91078  0.07285  Biso   1.000  Cu
  Cu3      1.0000 0.25732  0.41078  0.42715  Biso   1.000  Cu
  Cu4      1.0000 0.75732  0.91078  0.42715  Biso   1.000  Cu
  Cu5      1.0000 0.25732  0.58922  0.92715  Biso   1.000  Cu
  Cu6      1.0000 0.75732  0.08922  0.92715  Biso   1.000  Cu
  Cu7      1.0000 0.74268  0.58922  0.57285  Biso   1.000  Cu
  Cu8      1.0000 0.24268  0.08922  0.57285  Biso   1.000  Cu
  Cu9      1.0000 0.50000  0.41827  0.25000  Biso   1.000  Cu
  Cu10     1.0000 0.00000  0.91827  0.25000  Biso   1.000  Cu
  Cu11     1.0000 0.50000  0.58173  0.75000  Biso   1.000  Cu
  Cu12     1.0000 0.00000  0.08173  0.75000  Biso   1.000  Cu
  N1       1.0000 0.75592  0.54384  0.01065  Biso   1.000  N
  N2       1.0000 0.25592  0.04384  0.01065  Biso   1.000  N
  N3       1.0000 0.24408  0.54384  0.48935  Biso   1.000  N
  N4       1.0000 0.74408  0.04384  0.48935  Biso   1.000  N
  N5       1.0000 0.24408  0.45616  0.98935  Biso   1.000  N
  N6       1.0000 0.74408  0.95616  0.98935  Biso   1.000  N
  N7       1.0000 0.75592  0.45616  0.51065  Biso   1.000  N
  N8       1.0000 0.25592  0.95616  0.51065  Biso   1.000  N
  N9       1.0000 0.92273  0.47469  0.11124  Biso   1.000  N
  N10      1.0000 0.42273  0.97469  0.11124  Biso   1.000  N
  N11      1.0000 0.07727  0.47469  0.38876  Biso   1.000  N
  N12      1.0000 0.57727  0.97469  0.38876  Biso   1.000  N
  N13      1.0000 0.07727  0.52531  0.88876  Biso   1.000  N
  N14      1.0000 0.57727  0.02531  0.88876  Biso   1.000  N
  N15      1.0000 0.92273  0.52531  0.61124  Biso   1.000  N
  N16      1.0000 0.42273  0.02531  0.61124  Biso   1.000  N
  N17      1.0000 0.59150  0.41840  0.18400  Biso   1.000  N
  N18      1.0000 0.09150  0.91840  0.18400  Biso   1.000  N
  N19      1.0000 0.40850  0.41840  0.31600  Biso   1.000  N
  N20      1.0000 0.90850  0.91840  0.31600  Biso   1.000  N
  N21      1.0000 0.40850  0.58160  0.81600  Biso   1.000  N
  N22      1.0000 0.90850  0.08160  0.81600  Biso   1.000  N
  N23      1.0000 0.59150  0.58160  0.68400  Biso   1.000  N
  N24      1.0000 0.09150  0.08160  0.68400  Biso   1.000  N
  N25      1.0000 0.74890  0.28632  0.01721  Biso   1.000  N
  N26      1.0000 0.24890  0.78632  0.01721  Biso   1.000  N
  N27      1.0000 0.25110  0.28632  0.48279  Biso   1.000  N
  N28      1.0000 0.75110  0.78632  0.48279  Biso   1.000  N
  N29      1.0000 0.25110  0.71368  0.98279  Biso   1.000  N
  N30      1.0000 0.75110  0.21368  0.98279  Biso   1.000  N
  N31      1.0000 0.74890  0.71368  0.51721  Biso   1.000  N
  N32      1.0000 0.24890  0.21368  0.51721  Biso   1.000  N
  C1       1.0000 0.64420  0.41773  0.14085  Biso   1.000  C
  C2       1.0000 0.14420  0.91773  0.14085  Biso   1.000  C
  C3       1.0000 0.35580  0.41773  0.35915  Biso   1.000  C
  C4       1.0000 0.85580  0.91773  0.35915  Biso   1.000  C
  C5       1.0000 0.35580  0.58227  0.85915  Biso   1.000  C
  C6       1.0000 0.85580  0.08227  0.85915  Biso   1.000  C
  C7       1.0000 0.64420  0.58227  0.64085  Biso   1.000  C
  C8       1.0000 0.14420  0.08227  0.64085  Biso   1.000  C
  C9       1.0000 0.67170  0.57250  0.95865  Biso   1.000  C
  C10      1.0000 0.17170  0.07250  0.95865  Biso   1.000  C
  C11      1.0000 0.32830  0.57250  0.54135  Biso   1.000  C
  C12      1.0000 0.82830  0.07250  0.54135  Biso   1.000  C
  C13      1.0000 0.32830  0.42750  0.04135  Biso   1.000  C
  C14      1.0000 0.82830  0.92750  0.04135  Biso   1.000  C
  C15      1.0000 0.67170  0.42750  0.45865  Biso   1.000  C
  C16      1.0000 0.17170  0.92750  0.45865  Biso   1.000  C
  H1       1.0000 0.59320  0.53840  0.95150  Biso   1.000  H
  H2       1.0000 0.09320  0.03840  0.95150  Biso   1.000  H
  H3       1.0000 0.40680  0.53840  0.54850  Biso   1.000  H
  H4       1.0000 0.90680  0.03840  0.54850  Biso   1.000  H
  H5       1.0000 0.40680  0.46160  0.04850  Biso   1.000  H
  H6       1.0000 0.90680  0.96160  0.04850  Biso   1.000  H
  H7       1.0000 0.59320  0.46160  0.45150  Biso   1.000  H
  H8       1.0000 0.09320  0.96160  0.45150  Biso   1.000  H
  C17      1.0000 0.69510  0.65010  0.91506  Biso   1.000  C
  C18      1.0000 0.19510  0.15010  0.91506  Biso   1.000  C
  C19      1.0000 0.30490  0.65010  0.58494  Biso   1.000  C
  C20      1.0000 0.80490  0.15010  0.58494  Biso   1.000  C
  C21      1.0000 0.30490  0.34990  0.08494  Biso   1.000  C
  C22      1.0000 0.80490  0.84990  0.08494  Biso   1.000  C
  C23      1.0000 0.69510  0.34990  0.41506  Biso   1.000  C
  C24      1.0000 0.19510  0.84990  0.41506  Biso   1.000  C
  H9       1.0000 0.63250  0.66800  0.88000  Biso   1.000  H
  H10      1.0000 0.13250  0.16800  0.88000  Biso   1.000  H
  H11      1.0000 0.36750  0.66800  0.62000  Biso   1.000  H
  H12      1.0000 0.86750  0.16800  0.62000  Biso   1.000  H
  H13      1.0000 0.36750  0.33200  0.12000  Biso   1.000  H
  H14      1.0000 0.86750  0.83200  0.12000  Biso   1.000  H
  H15      1.0000 0.63250  0.33200  0.38000  Biso   1.000  H
  H16      1.0000 0.13250  0.83200  0.38000  Biso   1.000  H
  C25      1.0000 0.81050  0.70110  0.92330  Biso   1.000  C
  C26      1.0000 0.31050  0.20110  0.92330  Biso   1.000  C
  C27      1.0000 0.18950  0.70110  0.57670  Biso   1.000  C
  C28      1.0000 0.68950  0.20110  0.57670  Biso   1.000  C
  C29      1.0000 0.18950  0.29890  0.07670  Biso   1.000  C
  C30      1.0000 0.68950  0.79890  0.07670  Biso   1.000  C
  C31      1.0000 0.81050  0.29890  0.42330  Biso   1.000  C
  C32      1.0000 0.31050  0.79890  0.42330  Biso   1.000  C
  C33      1.0000 0.89920  0.67121  0.97727  Biso   1.000  C
  C34      1.0000 0.39920  0.17121  0.97727  Biso   1.000  C
  C35      1.0000 0.10080  0.67121  0.52273  Biso   1.000  C
  C36      1.0000 0.60080  0.17121  0.52273  Biso   1.000  C
  C37      1.0000 0.10080  0.32879  0.02273  Biso   1.000  C
  C38      1.0000 0.60080  0.82879  0.02273  Biso   1.000  C
  C39      1.0000 0.89920  0.32879  0.47727  Biso   1.000  C
  C40      1.0000 0.39920  0.82879  0.47727  Biso   1.000  C
  H17      1.0000 0.97910  0.70300  0.98460  Biso   1.000  H
  H18      1.0000 0.47910  0.20300  0.98460  Biso   1.000  H
  H19      1.0000 0.02090  0.70300  0.51540  Biso   1.000  H
  H20      1.0000 0.52090  0.20300  0.51540  Biso   1.000  H
  H21      1.0000 0.02090  0.29700  0.01540  Biso   1.000  H
  H22      1.0000 0.52090  0.79700  0.01540  Biso   1.000  H
  H23      1.0000 0.97910  0.29700  0.48460  Biso   1.000  H
  H24      1.0000 0.47910  0.79700  0.48460  Biso   1.000  H
  C41      1.0000 0.86870  0.59363  0.02044  Biso   1.000  C
  C42      1.0000 0.36870  0.09363  0.02044  Biso   1.000  C
  C43      1.0000 0.13130  0.59363  0.47956  Biso   1.000  C
  C44      1.0000 0.63130  0.09363  0.47956  Biso   1.000  C
  C45      1.0000 0.13130  0.40637  0.97956  Biso   1.000  C
  C46      1.0000 0.63130  0.90637  0.97956  Biso   1.000  C
  C47      1.0000 0.86870  0.40637  0.52044  Biso   1.000  C
  C48      1.0000 0.36870  0.90637  0.52044  Biso   1.000  C
  C49      1.0000 0.84090  0.78580  0.87693  Biso   1.000  C
  C50      1.0000 0.34090  0.28580  0.87693  Biso   1.000  C
  C51      1.0000 0.15910  0.78580  0.62307  Biso   1.000  C
  C52      1.0000 0.65910  0.28580  0.62307  Biso   1.000  C
  C53      1.0000 0.15910  0.21420  0.12307  Biso   1.000  C
  C54      1.0000 0.65910  0.71420  0.12307  Biso   1.000  C
  C55      1.0000 0.84090  0.21420  0.37693  Biso   1.000  C
  C56      1.0000 0.34090  0.71420  0.37693  Biso   1.000  C
  H25      1.0000 0.81170  0.76230  0.83310  Biso   1.000  H
  H26      1.0000 0.31170  0.26230  0.83310  Biso   1.000  H
  H27      1.0000 0.18830  0.76230  0.66690  Biso   1.000  H
  H28      1.0000 0.68830  0.26230  0.66690  Biso   1.000  H
  H29      1.0000 0.18830  0.23770  0.16690  Biso   1.000  H
  H30      1.0000 0.68830  0.73770  0.16690  Biso   1.000  H
  H31      1.0000 0.81170  0.23770  0.33310  Biso   1.000  H
  H32      1.0000 0.31170  0.73770  0.33310  Biso   1.000  H
  H33      1.0000 0.93090  0.79700  0.88360  Biso   1.000  H
  H34      1.0000 0.43090  0.29700  0.88360  Biso   1.000  H
  H35      1.0000 0.06910  0.79700  0.61640  Biso   1.000  H
  H36      1.0000 0.56910  0.29700  0.61640  Biso   1.000  H
  H37      1.0000 0.06910  0.20300  0.11640  Biso   1.000  H
  H38      1.0000 0.56910  0.70300  0.11640  Biso   1.000  H
  H39      1.0000 0.93090  0.20300  0.38360  Biso   1.000  H
  H40      1.0000 0.43090  0.70300  0.38360  Biso   1.000  H
  H41      1.0000 0.79970  0.85230  0.88440  Biso   1.000  H
  H42      1.0000 0.29970  0.35230  0.88440  Biso   1.000  H
  H43      1.0000 0.20030  0.85230  0.61560  Biso   1.000  H
  H44      1.0000 0.70030  0.35230  0.61560  Biso   1.000  H
  H45      1.0000 0.20030  0.14770  0.11560  Biso   1.000  H
  H46      1.0000 0.70030  0.64770  0.11560  Biso   1.000  H
  H47      1.0000 0.79970  0.14770  0.38440  Biso   1.000  H
  H48      1.0000 0.29970  0.64770  0.38440  Biso   1.000  H
  C57      1.0000 0.95940  0.56084  0.07973  Biso   1.000  C
  C58      1.0000 0.45940  0.06084  0.07973  Biso   1.000  C
  C59      1.0000 0.04060  0.56084  0.42027  Biso   1.000  C
  C60      1.0000 0.54060  0.06084  0.42027  Biso   1.000  C
  C61      1.0000 0.04060  0.43916  0.92027  Biso   1.000  C
  C62      1.0000 0.54060  0.93916  0.92027  Biso   1.000  C
  C63      1.0000 0.95940  0.43916  0.57973  Biso   1.000  C
  C64      1.0000 0.45940  0.93916  0.57973  Biso   1.000  C
  C65      1.0000 0.06990  0.61388  0.10154  Biso   1.000  C
  C66      1.0000 0.56990  0.11388  0.10154  Biso   1.000  C
  C67      1.0000 0.93010  0.61388  0.39846  Biso   1.000  C
  C68      1.0000 0.43010  0.11388  0.39846  Biso   1.000  C
  C69      1.0000 0.93010  0.38612  0.89846  Biso   1.000  C
  C70      1.0000 0.43010  0.88612  0.89846  Biso   1.000  C
  C71      1.0000 0.06990  0.38612  0.60154  Biso   1.000  C
  C72      1.0000 0.56990  0.88612  0.60154  Biso   1.000  C
  H49      1.0000 0.09100  0.67390  0.07890  Biso   1.000  H
  H50      1.0000 0.59100  0.17390  0.07890  Biso   1.000  H
  H51      1.0000 0.90900  0.67390  0.42110  Biso   1.000  H
  H52      1.0000 0.40900  0.17390  0.42110  Biso   1.000  H
  H53      1.0000 0.90900  0.32610  0.92110  Biso   1.000  H
  H54      1.0000 0.40900  0.82610  0.92110  Biso   1.000  H
  H55      1.0000 0.09100  0.32610  0.57890  Biso   1.000  H
  H56      1.0000 0.59100  0.82610  0.57890  Biso   1.000  H
  C73      1.0000 0.15160  0.58010  0.15691  Biso   1.000  C
  C74      1.0000 0.65160  0.08010  0.15691  Biso   1.000  C
  C75      1.0000 0.84840  0.58010  0.34309  Biso   1.000  C
  C76      1.0000 0.34840  0.08010  0.34309  Biso   1.000  C
  C77      1.0000 0.84840  0.41990  0.84309  Biso   1.000  C
  C78      1.0000 0.34840  0.91990  0.84309  Biso   1.000  C
  C79      1.0000 0.15160  0.41990  0.65691  Biso   1.000  C
  C80      1.0000 0.65160  0.91990  0.65691  Biso   1.000  C
  C81      1.0000 0.11310  0.49180  0.18924  Biso   1.000  C
  C82      1.0000 0.61310  0.99180  0.18924  Biso   1.000  C
  C83      1.0000 0.88690  0.49180  0.31076  Biso   1.000  C
  C84      1.0000 0.38690  0.99180  0.31076  Biso   1.000  C
  C85      1.0000 0.88690  0.50820  0.81076  Biso   1.000  C
  C86      1.0000 0.38690  0.00820  0.81076  Biso   1.000  C
  C87      1.0000 0.11310  0.50820  0.68924  Biso   1.000  C
  C88      1.0000 0.61310  0.00820  0.68924  Biso   1.000  C
  H57      1.0000 0.16340  0.46610  0.22700  Biso   1.000  H
  H58      1.0000 0.66340  0.96610  0.22700  Biso   1.000  H
  H59      1.0000 0.83660  0.46610  0.27300  Biso   1.000  H
  H60      1.0000 0.33660  0.96610  0.27300  Biso   1.000  H
  H61      1.0000 0.83660  0.53390  0.77300  Biso   1.000  H
  H62      1.0000 0.33660  0.03390  0.77300  Biso   1.000  H
  H63      1.0000 0.16340  0.53390  0.72700  Biso   1.000  H
  H64      1.0000 0.66340  0.03390  0.72700  Biso   1.000  H
  C89      1.0000 0.00060  0.44300  0.16498  Biso   1.000  C
  C90      1.0000 0.50060  0.94300  0.16498  Biso   1.000  C
  C91      1.0000 0.99940  0.44300  0.33502  Biso   1.000  C
  C92      1.0000 0.49940  0.94300  0.33502  Biso   1.000  C
  C93      1.0000 0.99940  0.55700  0.83502  Biso   1.000  C
  C94      1.0000 0.49940  0.05700  0.83502  Biso   1.000  C
  C95      1.0000 0.00060  0.55700  0.66498  Biso   1.000  C
  C96      1.0000 0.50060  0.05700  0.66498  Biso   1.000  C
  H65      1.0000 0.97660  0.38370  0.18730  Biso   1.000  H
  H66      1.0000 0.47660  0.88370  0.18730  Biso   1.000  H
  H67      1.0000 0.02340  0.38370  0.31270  Biso   1.000  H
  H68      1.0000 0.52340  0.88370  0.31270  Biso   1.000  H
  H69      1.0000 0.02340  0.61630  0.81270  Biso   1.000  H
  H70      1.0000 0.52340  0.11630  0.81270  Biso   1.000  H
  H71      1.0000 0.97660  0.61630  0.68730  Biso   1.000  H
  H72      1.0000 0.47660  0.11630  0.68730  Biso   1.000  H
  C97      1.0000 0.27520  0.63660  0.18039  Biso   1.000  C
  C98      1.0000 0.77520  0.13660  0.18039  Biso   1.000  C
  C99      1.0000 0.72480  0.63660  0.31961  Biso   1.000  C
  C100     1.0000 0.22480  0.13660  0.31961  Biso   1.000  C
  C101     1.0000 0.72480  0.36340  0.81961  Biso   1.000  C
  C102     1.0000 0.22480  0.86340  0.81961  Biso   1.000  C
  C103     1.0000 0.27520  0.36340  0.68039  Biso   1.000  C
  C104     1.0000 0.77520  0.86340  0.68039  Biso   1.000  C
  H73      1.0000 0.30380  0.62030  0.22550  Biso   1.000  H
  H74      1.0000 0.80380  0.12030  0.22550  Biso   1.000  H
  H75      1.0000 0.69620  0.62030  0.27450  Biso   1.000  H
  H76      1.0000 0.19620  0.12030  0.27450  Biso   1.000  H
  H77      1.0000 0.69620  0.37970  0.77450  Biso   1.000  H
  H78      1.0000 0.19620  0.87970  0.77450  Biso   1.000  H
  H79      1.0000 0.30380  0.37970  0.72550  Biso   1.000  H
  H80      1.0000 0.80380  0.87970  0.72550  Biso   1.000  H
  H81      1.0000 0.26350  0.71330  0.17510  Biso   1.000  H
  H82      1.0000 0.76350  0.21330  0.17510  Biso   1.000  H
  H83      1.0000 0.73650  0.71330  0.32490  Biso   1.000  H
  H84      1.0000 0.23650  0.21330  0.32490  Biso   1.000  H
  H85      1.0000 0.73650  0.28670  0.82490  Biso   1.000  H
  H86      1.0000 0.23650  0.78670  0.82490  Biso   1.000  H
  H87      1.0000 0.26350  0.28670  0.67510  Biso   1.000  H
  H88      1.0000 0.76350  0.78670  0.67510  Biso   1.000  H
  H89      1.0000 0.33720  0.61250  0.15560  Biso   1.000  H
  H90      1.0000 0.83720  0.11250  0.15560  Biso   1.000  H
  H91      1.0000 0.66280  0.61250  0.34440  Biso   1.000  H
  H92      1.0000 0.16280  0.11250  0.34440  Biso   1.000  H
  H93      1.0000 0.66280  0.38750  0.84440  Biso   1.000  H
  H94      1.0000 0.16280  0.88750  0.84440  Biso   1.000  H
  H95      1.0000 0.33720  0.38750  0.65560  Biso   1.000  H
  H96      1.0000 0.83720  0.88750  0.65560  Biso   1.000  H
