data_image0
_cell_length_a       4.7178
_cell_length_b       18.699
_cell_length_c       12.72
_cell_angle_alpha    90
_cell_angle_beta     93.036
_cell_angle_gamma    90

_symmetry_space_group_name_H-M    "P 1"
_symmetry_int_tables_number       1

loop_
  _symmetry_equiv_pos_as_xyz
  'x, y, z'

loop_
  _atom_site_label
  _atom_site_occupancy
  _atom_site_fract_x
  _atom_site_fract_y
  _atom_site_fract_z
  _atom_site_thermal_displace_type
  _atom_site_B_iso_or_equiv
  _atom_site_type_symbol
  Br1      1.0000 0.84630  0.40198  0.10511  Biso   1.000  Br
  Br2      1.0000 0.65370  0.90198  0.39489  Biso   1.000  Br
  Br3      1.0000 0.15370  0.59802  0.89489  Biso   1.000  Br
  Br4      1.0000 0.34630  0.09802  0.60511  Biso   1.000  Br
  Cu1      1.0000 0.00000  0.00000  0.00000  Biso   1.000  Cu
  Cu2      1.0000 0.50000  0.50000  0.50000  Biso   1.000  Cu
  O1       1.0000 0.18420  0.91380  0.05190  Biso   1.000  O
  O2       1.0000 0.31580  0.41380  0.44810  Biso   1.000  O
  O3       1.0000 0.81580  0.08620  0.94810  Biso   1.000  O
  O4       1.0000 0.68420  0.58620  0.55190  Biso   1.000  O
  O5       1.0000 0.58150  0.91060  0.96720  Biso   1.000  O
  O6       1.0000 0.91850  0.41060  0.53280  Biso   1.000  O
  O7       1.0000 0.41850  0.08940  0.03280  Biso   1.000  O
  O8       1.0000 0.08150  0.58940  0.46720  Biso   1.000  O
  N1       1.0000 0.57580  0.52050  0.34760  Biso   1.000  N
  N2       1.0000 0.92420  0.02050  0.15240  Biso   1.000  N
  N3       1.0000 0.42420  0.47950  0.65240  Biso   1.000  N
  N4       1.0000 0.07580  0.97950  0.84760  Biso   1.000  N
  C1       1.0000 0.40930  0.88550  0.02540  Biso   1.000  C
  C2       1.0000 0.09070  0.38550  0.47460  Biso   1.000  C
  C3       1.0000 0.59070  0.11450  0.97460  Biso   1.000  C
  C4       1.0000 0.90930  0.61450  0.52540  Biso   1.000  C
  C5       1.0000 0.46470  0.81200  0.07390  Biso   1.000  C
  C6       1.0000 0.03530  0.31200  0.42610  Biso   1.000  C
  C7       1.0000 0.53530  0.18800  0.92610  Biso   1.000  C
  C8       1.0000 0.96470  0.68800  0.57390  Biso   1.000  C
  C9       1.0000 0.31870  0.78880  0.15820  Biso   1.000  C
  C10      1.0000 0.18130  0.28880  0.34180  Biso   1.000  C
  C11      1.0000 0.68130  0.21120  0.84180  Biso   1.000  C
  C12      1.0000 0.81870  0.71120  0.65820  Biso   1.000  C
  H1       1.0000 0.18712  0.81890  0.18732  Biso   1.000  H
  H2       1.0000 0.31288  0.31890  0.31268  Biso   1.000  H
  H3       1.0000 0.81288  0.18110  0.81268  Biso   1.000  H
  H4       1.0000 0.68712  0.68110  0.68732  Biso   1.000  H
  C13      1.0000 0.36420  0.72120  0.20050  Biso   1.000  C
  C14      1.0000 0.13580  0.22120  0.29950  Biso   1.000  C
  C15      1.0000 0.63580  0.27880  0.79950  Biso   1.000  C
  C16      1.0000 0.86420  0.77880  0.70050  Biso   1.000  C
  H5       1.0000 0.26375  0.70698  0.25794  Biso   1.000  H
  H6       1.0000 0.23625  0.20698  0.24206  Biso   1.000  H
  H7       1.0000 0.73625  0.29302  0.74206  Biso   1.000  H
  H8       1.0000 0.76375  0.79302  0.75794  Biso   1.000  H
  C17      1.0000 0.55420  0.67490  0.15950  Biso   1.000  C
  C18      1.0000 0.94580  0.17490  0.34050  Biso   1.000  C
  C19      1.0000 0.44580  0.32510  0.84050  Biso   1.000  C
  C20      1.0000 0.05420  0.82510  0.65950  Biso   1.000  C
  C21      1.0000 0.70640  0.69950  0.07760  Biso   1.000  C
  C22      1.0000 0.79360  0.19950  0.42240  Biso   1.000  C
  C23      1.0000 0.29360  0.30050  0.92240  Biso   1.000  C
  C24      1.0000 0.20640  0.80050  0.57760  Biso   1.000  C
  H9       1.0000 0.84315  0.67017  0.04995  Biso   1.000  H
  H10      1.0000 0.65685  0.17017  0.45005  Biso   1.000  H
  H11      1.0000 0.15685  0.32983  0.95005  Biso   1.000  H
  H12      1.0000 0.34315  0.82983  0.54995  Biso   1.000  H
  C25      1.0000 0.66070  0.76650  0.03590  Biso   1.000  C
  C26      1.0000 0.83930  0.26650  0.46410  Biso   1.000  C
  C27      1.0000 0.33930  0.23350  0.96410  Biso   1.000  C
  C28      1.0000 0.16070  0.73350  0.53590  Biso   1.000  C
  H13      1.0000 0.76626  0.78118  0.98015  Biso   1.000  H
  H14      1.0000 0.73374  0.28118  0.51985  Biso   1.000  H
  H15      1.0000 0.23374  0.21882  0.01985  Biso   1.000  H
  H16      1.0000 0.26626  0.71882  0.48015  Biso   1.000  H
  C29      1.0000 0.54430  0.58520  0.30650  Biso   1.000  C
  C30      1.0000 0.95570  0.08520  0.19350  Biso   1.000  C
  C31      1.0000 0.45570  0.41480  0.69350  Biso   1.000  C
  C32      1.0000 0.04430  0.91480  0.80650  Biso   1.000  C
  H17      1.0000 0.48332  0.62177  0.34952  Biso   1.000  H
  H18      1.0000 0.01668  0.12177  0.15048  Biso   1.000  H
  H19      1.0000 0.51668  0.37823  0.65048  Biso   1.000  H
  H20      1.0000 0.98332  0.87823  0.84952  Biso   1.000  H
  C33      1.0000 0.59730  0.60170  0.20240  Biso   1.000  C
  C34      1.0000 0.90270  0.10170  0.29760  Biso   1.000  C
  C35      1.0000 0.40270  0.39830  0.79760  Biso   1.000  C
  C36      1.0000 0.09730  0.89830  0.70240  Biso   1.000  C
  C37      1.0000 0.69720  0.54700  0.14200  Biso   1.000  C
  C38      1.0000 0.80280  0.04700  0.35800  Biso   1.000  C
  C39      1.0000 0.30280  0.45300  0.85800  Biso   1.000  C
  C40      1.0000 0.19720  0.95300  0.64200  Biso   1.000  C
  H21      1.0000 0.74241  0.55512  0.07276  Biso   1.000  H
  H22      1.0000 0.75759  0.05512  0.42724  Biso   1.000  H
  H23      1.0000 0.25759  0.44488  0.92724  Biso   1.000  H
  H24      1.0000 0.24241  0.94488  0.57276  Biso   1.000  H
  C41      1.0000 0.72870  0.48010  0.18620  Biso   1.000  C
  C42      1.0000 0.77130  0.98010  0.31380  Biso   1.000  C
  C43      1.0000 0.27130  0.51990  0.81380  Biso   1.000  C
  C44      1.0000 0.22870  0.01990  0.68620  Biso   1.000  C
  C45      1.0000 0.66980  0.46740  0.28900  Biso   1.000  C
  C46      1.0000 0.83020  0.96740  0.21100  Biso   1.000  C
  C47      1.0000 0.33020  0.53260  0.71100  Biso   1.000  C
  C48      1.0000 0.16980  0.03260  0.78900  Biso   1.000  C
  H25      1.0000 0.69528  0.42192  0.31765  Biso   1.000  H
  H26      1.0000 0.80472  0.92192  0.18235  Biso   1.000  H
  H27      1.0000 0.30472  0.57808  0.68235  Biso   1.000  H
  H28      1.0000 0.19528  0.07808  0.81765  Biso   1.000  H
