data_image0
_cell_length_a       13.469
_cell_length_b       15.258
_cell_length_c       20.189
_cell_angle_alpha    95.16
_cell_angle_beta     94.389
_cell_angle_gamma    107.452

_symmetry_space_group_name_H-M    "P 1"
_symmetry_int_tables_number       1

loop_
  _symmetry_equiv_pos_as_xyz
  'x, y, z'

loop_
  _atom_site_label
  _atom_site_occupancy
  _atom_site_fract_x
  _atom_site_fract_y
  _atom_site_fract_z
  _atom_site_thermal_displace_type
  _atom_site_B_iso_or_equiv
  _atom_site_type_symbol
  P1       1.0000 0.99700  0.77190  0.26120  Biso   1.000  P
  P2       1.0000 0.00300  0.22810  0.73880  Biso   1.000  P
  P3       1.0000 0.75160  0.54670  0.25560  Biso   1.000  P
  P4       1.0000 0.24840  0.45330  0.74440  Biso   1.000  P
  W1       1.0000 0.15046  0.62274  0.23699  Biso   1.000  W
  W2       1.0000 0.84954  0.37726  0.76301  Biso   1.000  W
  W3       1.0000 0.55001  0.37253  0.15662  Biso   1.000  W
  W4       1.0000 0.44999  0.62747  0.84338  Biso   1.000  W
  W5       1.0000 0.91678  0.41201  0.22982  Biso   1.000  W
  W6       1.0000 0.08322  0.58799  0.77018  Biso   1.000  W
  W7       1.0000 0.71814  0.62184  0.41972  Biso   1.000  W
  W8       1.0000 0.28186  0.37816  0.58028  Biso   1.000  W
  W9       1.0000 0.94511  0.83818  0.42352  Biso   1.000  W
  W10      1.0000 0.05489  0.16182  0.57648  Biso   1.000  W
  W11      1.0000 0.26953  0.87147  0.29940  Biso   1.000  W
  W12      1.0000 0.73047  0.12853  0.70060  Biso   1.000  W
  W13      1.0000 0.10956  0.71037  0.40544  Biso   1.000  W
  W14      1.0000 0.89044  0.28963  0.59456  Biso   1.000  W
  W15      1.0000 0.80786  0.47539  0.09493  Biso   1.000  W
  W16      1.0000 0.19214  0.52461  0.90507  Biso   1.000  W
  W17      1.0000 0.14821  0.93373  0.16664  Biso   1.000  W
  W18      1.0000 0.85179  0.06627  0.83336  Biso   1.000  W
  W19      1.0000 0.66211  0.31593  0.29563  Biso   1.000  W
  W20      1.0000 0.33789  0.68407  0.70437  Biso   1.000  W
  W21      1.0000 0.50355  0.45136  0.30957  Biso   1.000  W
  W22      1.0000 0.49645  0.54864  0.69043  Biso   1.000  W
  W23      1.0000 0.62812  0.61333  0.11659  Biso   1.000  W
  W24      1.0000 0.37188  0.38667  0.88341  Biso   1.000  W
  W25      1.0000 0.60008  0.69561  0.27191  Biso   1.000  W
  W26      1.0000 0.39992  0.30439  0.72809  Biso   1.000  W
  W27      1.0000 0.88179  0.49473  0.39994  Biso   1.000  W
  W28      1.0000 0.11821  0.50527  0.60006  Biso   1.000  W
  W29      1.0000 0.04146  0.68759  0.10069  Biso   1.000  W
  W30      1.0000 0.95854  0.31241  0.89931  Biso   1.000  W
  W31      1.0000 0.83092  0.91026  0.27496  Biso   1.000  W
  W32      1.0000 0.16908  0.08974  0.72504  Biso   1.000  W
  W33      1.0000 0.11570  0.00638  0.32520  Biso   1.000  W
  W34      1.0000 0.88430  0.99362  0.67480  Biso   1.000  W
  W35      1.0000 0.86051  0.82591  0.12046  Biso   1.000  W
  W36      1.0000 0.13949  0.17409  0.87954  Biso   1.000  W
  O1       1.0000 0.09510  0.86140  0.26180  Biso   1.000  O
  O2       1.0000 0.90490  0.13860  0.73820  Biso   1.000  O
  O3       1.0000 0.35650  0.12350  0.06030  Biso   1.000  O
  O4       1.0000 0.64350  0.87650  0.93970  Biso   1.000  O
  O5       1.0000 0.98750  0.74940  0.33490  Biso   1.000  O
  O6       1.0000 0.01250  0.25060  0.66510  Biso   1.000  O
  O7       1.0000 0.97660  0.91440  0.94090  Biso   1.000  O
  O8       1.0000 0.02340  0.08560  0.05910  Biso   1.000  O
  O9       1.0000 0.01840  0.69450  0.21680  Biso   1.000  O
  O10      1.0000 0.98160  0.30550  0.78320  Biso   1.000  O
  O11      1.0000 0.36500  0.16000  0.22700  Biso   1.000  O
  O12      1.0000 0.63500  0.84000  0.77300  Biso   1.000  O
  O13      1.0000 0.90010  0.79700  0.22970  Biso   1.000  O
  O14      1.0000 0.09990  0.20300  0.77030  Biso   1.000  O
  O15      1.0000 0.71190  0.62120  0.22840  Biso   1.000  O
  O16      1.0000 0.28810  0.37880  0.77160  Biso   1.000  O
  O17      1.0000 0.82950  0.51920  0.21170  Biso   1.000  O
  O18      1.0000 0.17050  0.48080  0.78830  Biso   1.000  O
  O19      1.0000 0.79870  0.57580  0.33020  Biso   1.000  O
  O20      1.0000 0.20130  0.42420  0.66980  Biso   1.000  O
  O21      1.0000 0.65370  0.45720  0.25280  Biso   1.000  O
  O22      1.0000 0.34630  0.54280  0.74720  Biso   1.000  O
  O23      1.0000 0.15060  0.11630  0.36300  Biso   1.000  O
  O24      1.0000 0.84940  0.88370  0.63700  Biso   1.000  O
  O25      1.0000 0.15160  0.02830  0.23400  Biso   1.000  O
  O26      1.0000 0.84840  0.97170  0.76600  Biso   1.000  O
  O27      1.0000 0.70880  0.80270  0.26260  Biso   1.000  O
  O28      1.0000 0.29120  0.19730  0.73740  Biso   1.000  O
  O29      1.0000 0.45390  0.38850  0.22030  Biso   1.000  O
  O30      1.0000 0.54610  0.61150  0.77970  Biso   1.000  O
  O31      1.0000 0.55990  0.61480  0.04240  Biso   1.000  O
  O32      1.0000 0.44010  0.38520  0.95760  Biso   1.000  O
  O33      1.0000 0.98980  0.60900  0.41400  Biso   1.000  O
  O34      1.0000 0.01020  0.39100  0.58600  Biso   1.000  O
  O35      1.0000 0.24420  0.98080  0.34090  Biso   1.000  O
  O36      1.0000 0.75580  0.01920  0.65910  Biso   1.000  O
  O37      1.0000 0.57970  0.28340  0.20780  Biso   1.000  O
  O38      1.0000 0.42030  0.71660  0.79220  Biso   1.000  O
  O39      1.0000 0.40110  0.89800  0.32370  Biso   1.000  O
  O40      1.0000 0.59890  0.10200  0.67630  Biso   1.000  O
  O41      1.0000 0.78010  0.33750  0.24410  Biso   1.000  O
  O42      1.0000 0.21990  0.66250  0.75590  Biso   1.000  O
  O43      1.0000 0.55750  0.66830  0.17950  Biso   1.000  O
  O44      1.0000 0.44250  0.33170  0.82050  Biso   1.000  O
  O45      1.0000 0.27190  0.92440  0.21930  Biso   1.000  O
  O46      1.0000 0.72810  0.07560  0.78070  Biso   1.000  O
  O47      1.0000 0.67590  0.39250  0.11710  Biso   1.000  O
  O48      1.0000 0.32410  0.60750  0.88290  Biso   1.000  O
  O49      1.0000 0.83440  0.86580  0.04640  Biso   1.000  O
  O50      1.0000 0.16560  0.13420  0.95360  Biso   1.000  O
  O51      1.0000 0.05690  0.79330  0.45730  Biso   1.000  O
  O52      1.0000 0.94310  0.20670  0.54270  Biso   1.000  O
  O53      1.0000 0.55340  0.49390  0.13630  Biso   1.000  O
  O54      1.0000 0.44660  0.50610  0.86370  Biso   1.000  O
  O55      1.0000 0.97280  0.98560  0.28480  Biso   1.000  O
  O56      1.0000 0.02720  0.01440  0.71520  Biso   1.000  O
  O57      1.0000 0.14220  0.63920  0.14310  Biso   1.000  O
  O58      1.0000 0.85780  0.36080  0.85690  Biso   1.000  O
  O59      1.0000 0.12850  0.81230  0.12880  Biso   1.000  O
  O60      1.0000 0.87150  0.18770  0.87120  Biso   1.000  O
  O61      1.0000 0.54520  0.34340  0.33000  Biso   1.000  O
  O62      1.0000 0.45480  0.65660  0.67000  Biso   1.000  O
  O63      1.0000 0.92820  0.73760  0.09380  Biso   1.000  O
  O64      1.0000 0.07180  0.26240  0.90620  Biso   1.000  O
  O65      1.0000 0.60590  0.51720  0.38160  Biso   1.000  O
  O66      1.0000 0.39410  0.48280  0.61840  Biso   1.000  O
  O67      1.0000 0.97560  0.32820  0.23060  Biso   1.000  O
  O68      1.0000 0.02440  0.67180  0.76940  Biso   1.000  O
  O69      1.0000 0.93450  0.46220  0.31970  Biso   1.000  O
  O70      1.0000 0.06550  0.53780  0.68030  Biso   1.000  O
  O71      1.0000 0.51840  0.56640  0.28030  Biso   1.000  O
  O72      1.0000 0.48160  0.43360  0.71970  Biso   1.000  O
  O73      1.0000 0.77230  0.99280  0.29720  Biso   1.000  O
  O74      1.0000 0.22770  0.00720  0.70280  Biso   1.000  O
  O75      1.0000 0.73460  0.56300  0.08920  Biso   1.000  O
  O76      1.0000 0.26540  0.43700  0.91080  Biso   1.000  O
  O77      1.0000 0.20530  0.81210  0.36970  Biso   1.000  O
  O78      1.0000 0.79470  0.18790  0.63030  Biso   1.000  O
  O79      1.0000 0.93610  0.56920  0.09730  Biso   1.000  O
  O80      1.0000 0.06390  0.43080  0.90270  Biso   1.000  O
  O81      1.0000 0.92840  0.43540  0.45550  Biso   1.000  O
  O82      1.0000 0.07160  0.56460  0.54450  Biso   1.000  O
  O83      1.0000 0.82060  0.91010  0.18130  Biso   1.000  O
  O84      1.0000 0.17940  0.08990  0.81870  Biso   1.000  O
  O85      1.0000 0.05590  0.93670  0.39030  Biso   1.000  O
  O86      1.0000 0.94410  0.06330  0.60970  Biso   1.000  O
  O87      1.0000 0.20420  0.99820  0.10610  Biso   1.000  O
  O88      1.0000 0.79580  0.00180  0.89390  Biso   1.000  O
  O89      1.0000 0.84400  0.72620  0.43010  Biso   1.000  O
  O90      1.0000 0.15600  0.27380  0.56990  Biso   1.000  O
  O91      1.0000 0.64810  0.20680  0.31940  Biso   1.000  O
  O92      1.0000 0.35190  0.79320  0.68060  Biso   1.000  O
  O93      1.0000 0.19850  0.69540  0.46450  Biso   1.000  O
  O94      1.0000 0.80150  0.30460  0.53550  Biso   1.000  O
  O95      1.0000 0.12630  0.63750  0.32800  Biso   1.000  O
  O96      1.0000 0.87370  0.36250  0.67200  Biso   1.000  O
  O97      1.0000 0.06660  0.67980  0.01890  Biso   1.000  O
  O98      1.0000 0.93340  0.32020  0.98110  Biso   1.000  O
  O99      1.0000 0.66490  0.68770  0.35790  Biso   1.000  O
  O100     1.0000 0.33510  0.31230  0.64210  Biso   1.000  O
  O101     1.0000 0.23660  0.75250  0.25330  Biso   1.000  O
  O102     1.0000 0.76340  0.24750  0.74670  Biso   1.000  O
  O103     1.0000 0.45810  0.30330  0.09550  Biso   1.000  O
  O104     1.0000 0.54190  0.69670  0.90450  Biso   1.000  O
  O105     1.0000 0.00810  0.91270  0.14010  Biso   1.000  O
  O106     1.0000 0.99190  0.08730  0.85990  Biso   1.000  O
  O107     1.0000 0.87660  0.39580  0.13770  Biso   1.000  O
  O108     1.0000 0.12340  0.60420  0.86230  Biso   1.000  O
  O109     1.0000 0.73600  0.73380  0.12250  Biso   1.000  O
  O110     1.0000 0.26400  0.26620  0.87750  Biso   1.000  O
  O111     1.0000 0.75340  0.39350  0.36570  Biso   1.000  O
  O112     1.0000 0.24660  0.60650  0.63430  Biso   1.000  O
  O113     1.0000 0.79610  0.54620  0.45420  Biso   1.000  O
  O114     1.0000 0.20390  0.45380  0.54580  Biso   1.000  O
  O115     1.0000 0.66650  0.64580  0.49280  Biso   1.000  O
  O116     1.0000 0.33350  0.35420  0.50720  Biso   1.000  O
  O117     1.0000 0.38980  0.42950  0.34620  Biso   1.000  O
  O118     1.0000 0.61020  0.57050  0.65380  Biso   1.000  O
  O119     1.0000 0.85490  0.86610  0.36060  Biso   1.000  O
  O120     1.0000 0.14510  0.13390  0.63940  Biso   1.000  O
  O121     1.0000 0.50560  0.74640  0.29320  Biso   1.000  O
  O122     1.0000 0.49440  0.25360  0.70680  Biso   1.000  O
  O123     1.0000 0.24990  0.57610  0.24240  Biso   1.000  O
  O124     1.0000 0.75010  0.42390  0.75760  Biso   1.000  O
  O125     1.0000 0.79010  0.42690  0.01210  Biso   1.000  O
  O126     1.0000 0.20990  0.57310  0.98790  Biso   1.000  O
  O127     1.0000 0.93110  0.90160  0.49510  Biso   1.000  O
  O128     1.0000 0.06890  0.09840  0.50490  Biso   1.000  O
  O129     1.0000 0.03900  0.51410  0.22120  Biso   1.000  O
  O130     1.0000 0.96100  0.48590  0.77880  Biso   1.000  O
  Cu1      1.0000 0.03700  0.73870  0.90814  Biso   1.000  Cu
  Cu2      1.0000 0.96300  0.26130  0.09186  Biso   1.000  Cu
  Cu3      1.0000 0.37060  0.08780  0.96880  Biso   1.000  Cu
  Cu4      1.0000 0.62940  0.91220  0.03120  Biso   1.000  Cu
  Cu5      1.0000 0.28930  0.60308  0.09176  Biso   1.000  Cu
  Cu6      1.0000 0.71070  0.39692  0.90824  Biso   1.000  Cu
  Cu7      1.0000 0.13770  0.83750  0.57576  Biso   1.000  Cu
  Cu8      1.0000 0.86230  0.16250  0.42424  Biso   1.000  Cu
  Cu9      1.0000 0.74450  0.54781  0.58396  Biso   1.000  Cu
  Cu10     1.0000 0.25550  0.45219  0.41604  Biso   1.000  Cu
  Cu11     1.0000 0.48950  0.83329  0.37960  Biso   1.000  Cu
  Cu12     1.0000 0.51050  0.16671  0.62040  Biso   1.000  Cu
  C1       1.0000 0.25490  0.82130  0.88330  Biso   1.000  C
  C2       1.0000 0.74510  0.17870  0.11670  Biso   1.000  C
  H1       1.0000 0.26220  0.76810  0.86070  Biso   1.000  H
  H2       1.0000 0.73780  0.23190  0.13930  Biso   1.000  H
  C3       1.0000 0.19700  0.91300  0.94000  Biso   1.000  C
  C4       1.0000 0.80300  0.08700  0.06000  Biso   1.000  C
  H3       1.0000 0.15150  0.93620  0.96360  Biso   1.000  H
  H4       1.0000 0.84850  0.06380  0.03640  Biso   1.000  H
  C5       1.0000 0.44200  0.93030  0.87720  Biso   1.000  C
  C6       1.0000 0.55800  0.06970  0.12280  Biso   1.000  C
  H5       1.0000 0.48700  0.97150  0.91430  Biso   1.000  H
  H6       1.0000 0.51300  0.02850  0.08570  Biso   1.000  H
  H7       1.0000 0.46430  0.87560  0.87110  Biso   1.000  H
  H8       1.0000 0.53570  0.12440  0.12890  Biso   1.000  H
  C7       1.0000 0.45520  0.97760  0.81540  Biso   1.000  C
  C8       1.0000 0.54480  0.02240  0.18460  Biso   1.000  C
  H9       1.0000 0.41290  0.93360  0.77860  Biso   1.000  H
  H10      1.0000 0.58710  0.06640  0.22140  Biso   1.000  H
  H11      1.0000 0.52760  0.98960  0.80680  Biso   1.000  H
  H12      1.0000 0.47240  0.01040  0.19320  Biso   1.000  H
  C9       1.0000 0.42850  0.06930  0.81170  Biso   1.000  C
  C10      1.0000 0.57150  0.93070  0.18830  Biso   1.000  C
  H13      1.0000 0.43360  0.08640  0.76670  Biso   1.000  H
  H14      1.0000 0.56640  0.91360  0.23330  Biso   1.000  H
  H15      1.0000 0.35700  0.06020  0.82160  Biso   1.000  H
  H16      1.0000 0.64300  0.93980  0.17840  Biso   1.000  H
  C11      1.0000 0.55510  0.24350  0.94800  Biso   1.000  C
  C12      1.0000 0.44490  0.75650  0.05200  Biso   1.000  C
  H17      1.0000 0.56130  0.27250  0.99130  Biso   1.000  H
  H18      1.0000 0.43870  0.72750  0.00870  Biso   1.000  H
  C13      1.0000 0.58070  0.21420  0.84510  Biso   1.000  C
  C14      1.0000 0.41930  0.78580  0.15490  Biso   1.000  C
  H19      1.0000 0.60630  0.22000  0.80370  Biso   1.000  H
  H20      1.0000 0.39370  0.78000  0.19630  Biso   1.000  H
  C15      1.0000 0.98100  0.77310  0.66560  Biso   1.000  C
  C16      1.0000 0.01900  0.22690  0.33440  Biso   1.000  C
  H21      1.0000 0.01440  0.82000  0.70000  Biso   1.000  H
  H22      1.0000 0.98560  0.18000  0.30000  Biso   1.000  H
  C17      1.0000 0.94290  0.68630  0.57480  Biso   1.000  C
  C18      1.0000 0.05710  0.31370  0.42520  Biso   1.000  C
  H23      1.0000 0.94760  0.66100  0.53200  Biso   1.000  H
  H24      1.0000 0.05240  0.33900  0.46800  Biso   1.000  H
  C19      1.0000 0.82430  0.69860  0.72230  Biso   1.000  C
  C20      1.0000 0.17570  0.30140  0.27770  Biso   1.000  C
  H25      1.0000 0.75440  0.69710  0.70520  Biso   1.000  H
  H26      1.0000 0.24560  0.30290  0.29480  Biso   1.000  H
  H27      1.0000 0.81920  0.63890  0.73720  Biso   1.000  H
  H28      1.0000 0.18080  0.36110  0.26280  Biso   1.000  H
  C21      1.0000 0.86170  0.77080  0.78080  Biso   1.000  C
  C22      1.0000 0.13830  0.22920  0.21920  Biso   1.000  C
  H29      1.0000 0.93500  0.77920  0.79430  Biso   1.000  H
  H30      1.0000 0.06500  0.22080  0.20570  Biso   1.000  H
  H31      1.0000 0.85590  0.82900  0.76810  Biso   1.000  H
  H32      1.0000 0.14410  0.17100  0.23190  Biso   1.000  H
  C23      1.0000 0.79700  0.74380  0.84130  Biso   1.000  C
  C24      1.0000 0.20300  0.25620  0.15870  Biso   1.000  C
  H33      1.0000 0.72380  0.73420  0.82680  Biso   1.000  H
  H34      1.0000 0.27620  0.26580  0.17320  Biso   1.000  H
  H35      1.0000 0.81920  0.79570  0.87630  Biso   1.000  H
  H36      1.0000 0.18080  0.20430  0.12370  Biso   1.000  H
  C25      1.0000 0.87250  0.57480  0.91690  Biso   1.000  C
  C26      1.0000 0.12750  0.42520  0.08310  Biso   1.000  C
  H37      1.0000 0.92040  0.55170  0.93930  Biso   1.000  H
  H38      1.0000 0.07960  0.44830  0.06070  Biso   1.000  H
  C27      1.0000 0.73410  0.58320  0.86720  Biso   1.000  C
  C28      1.0000 0.26590  0.41680  0.13280  Biso   1.000  C
  H39      1.0000 0.66600  0.56920  0.84690  Biso   1.000  H
  H40      1.0000 0.33400  0.43080  0.15310  Biso   1.000  H
  C29      1.0000 0.37340  0.63500  0.39490  Biso   1.000  C
  C30      1.0000 0.62660  0.36500  0.60510  Biso   1.000  C
  H41      1.0000 0.35770  0.61700  0.34910  Biso   1.000  H
  H42      1.0000 0.64230  0.38300  0.65090  Biso   1.000  H
  C31      1.0000 0.37970  0.62960  0.50220  Biso   1.000  C
  C32      1.0000 0.62030  0.37040  0.49780  Biso   1.000  C
  H43      1.0000 0.37120  0.60940  0.54410  Biso   1.000  H
  H44      1.0000 0.62880  0.39060  0.45590  Biso   1.000  H
  C33      1.0000 0.46960  0.79800  0.53480  Biso   1.000  C
  C34      1.0000 0.53040  0.20200  0.46520  Biso   1.000  C
  H45      1.0000 0.43200  0.79170  0.57410  Biso   1.000  H
  H46      1.0000 0.56800  0.20830  0.42590  Biso   1.000  H
  H47      1.0000 0.45720  0.84900  0.51370  Biso   1.000  H
  H48      1.0000 0.54280  0.15100  0.48630  Biso   1.000  H
  C35      1.0000 0.58800  0.82380  0.55800  Biso   1.000  C
  C36      1.0000 0.41200  0.17620  0.44200  Biso   1.000  C
  H49      1.0000 0.60700  0.87890  0.59020  Biso   1.000  H
  H50      1.0000 0.39300  0.12110  0.40980  Biso   1.000  H
  H51      1.0000 0.59960  0.77420  0.58120  Biso   1.000  H
  H52      1.0000 0.40040  0.22580  0.41880  Biso   1.000  H
  C37      1.0000 0.66200  0.84160  0.50420  Biso   1.000  C
  C38      1.0000 0.33800  0.15840  0.49580  Biso   1.000  C
  H53      1.0000 0.72960  0.84040  0.52290  Biso   1.000  H
  H54      1.0000 0.27040  0.15960  0.47710  Biso   1.000  H
  H55      1.0000 0.63590  0.79100  0.46830  Biso   1.000  H
  H56      1.0000 0.36410  0.20900  0.53170  Biso   1.000  H
  C39      1.0000 0.65590  0.02020  0.40580  Biso   1.000  C
  C40      1.0000 0.34410  0.97980  0.59420  Biso   1.000  C
  H57      1.0000 0.62780  0.04560  0.37160  Biso   1.000  H
  H58      1.0000 0.37220  0.95440  0.62840  Biso   1.000  H
  C41      1.0000 0.75860  0.00420  0.48560  Biso   1.000  C
  C42      1.0000 0.24140  0.99580  0.51440  Biso   1.000  C
  H59      1.0000 0.81520  0.01300  0.51760  Biso   1.000  H
  H60      1.0000 0.18480  0.98700  0.48240  Biso   1.000  H
  N1       1.0000 0.16970  0.82600  0.90780  Biso   1.000  N
  N2       1.0000 0.83030  0.17400  0.09220  Biso   1.000  N
  N3       1.0000 0.33040  0.90240  0.89460  Biso   1.000  N
  N4       1.0000 0.66960  0.09760  0.10540  Biso   1.000  N
  N5       1.0000 0.29410  0.96090  0.93410  Biso   1.000  N
  N6       1.0000 0.70590  0.03910  0.06590  Biso   1.000  N
  N7       1.0000 0.50180  0.14660  0.86060  Biso   1.000  N
  N8       1.0000 0.49820  0.85340  0.13940  Biso   1.000  N
  N9       1.0000 0.48090  0.16430  0.92340  Biso   1.000  N
  N10      1.0000 0.51910  0.83570  0.07660  Biso   1.000  N
  N11      1.0000 0.61740  0.27460  0.90310  Biso   1.000  N
  N12      1.0000 0.38260  0.72540  0.09690  Biso   1.000  N
  N13      1.0000 0.01870  0.76040  0.60930  Biso   1.000  N
  N14      1.0000 0.98130  0.23960  0.39070  Biso   1.000  N
  N15      1.0000 0.89070  0.71180  0.66740  Biso   1.000  N
  N16      1.0000 0.10930  0.28820  0.33260  Biso   1.000  N
  N17      1.0000 0.86390  0.65500  0.60790  Biso   1.000  N
  N18      1.0000 0.13610  0.34500  0.39210  Biso   1.000  N
  N19      1.0000 0.80550  0.66260  0.86960  Biso   1.000  N
  N20      1.0000 0.19450  0.33740  0.13040  Biso   1.000  N
  N21      1.0000 0.89730  0.65820  0.90120  Biso   1.000  N
  N22      1.0000 0.10270  0.34180  0.09880  Biso   1.000  N
  N23      1.0000 0.77190  0.52350  0.89840  Biso   1.000  N
  N24      1.0000 0.22810  0.47650  0.10160  Biso   1.000  N
  N25      1.0000 0.34730  0.57750  0.44090  Biso   1.000  N
  N26      1.0000 0.65270  0.42250  0.55910  Biso   1.000  N
  N27      1.0000 0.42560  0.71470  0.48900  Biso   1.000  N
  N28      1.0000 0.57440  0.28530  0.51100  Biso   1.000  N
  N29      1.0000 0.42410  0.72040  0.42140  Biso   1.000  N
  N30      1.0000 0.57590  0.27960  0.57860  Biso   1.000  N
  N31      1.0000 0.67600  0.92970  0.47490  Biso   1.000  N
  N32      1.0000 0.32400  0.07030  0.52510  Biso   1.000  N
  N33      1.0000 0.61000  0.93690  0.42280  Biso   1.000  N
  N34      1.0000 0.39000  0.06310  0.57720  Biso   1.000  N
  N35      1.0000 0.74970  0.06520  0.44390  Biso   1.000  N
  N36      1.0000 0.25030  0.93480  0.55610  Biso   1.000  N
