data_image0
_cell_length_a       13.0857
_cell_length_b       17.004
_cell_length_c       19.292
_cell_angle_alpha    82.128
_cell_angle_beta     86.703
_cell_angle_gamma    69.173

_symmetry_space_group_name_H-M    "P 1"
_symmetry_int_tables_number       1

loop_
  _symmetry_equiv_pos_as_xyz
  'x, y, z'

loop_
  _atom_site_label
  _atom_site_occupancy
  _atom_site_fract_x
  _atom_site_fract_y
  _atom_site_fract_z
  _atom_site_thermal_displace_type
  _atom_site_B_iso_or_equiv
  _atom_site_type_symbol
  P1       1.0000 0.26730  0.61940  0.22590  Biso   1.000  P
  P2       1.0000 0.73270  0.38060  0.77410  Biso   1.000  P
  P3       1.0000 0.16070  0.86570  0.24280  Biso   1.000  P
  P4       1.0000 0.83930  0.13430  0.75720  Biso   1.000  P
  W1       1.0000 0.41899  0.58624  0.37738  Biso   1.000  W
  W2       1.0000 0.58101  0.41376  0.62262  Biso   1.000  W
  W3       1.0000 0.42733  0.86543  0.21975  Biso   1.000  W
  W4       1.0000 0.57267  0.13457  0.78025  Biso   1.000  W
  W5       1.0000 0.09549  0.66400  0.07864  Biso   1.000  W
  W6       1.0000 0.90451  0.33600  0.92136  Biso   1.000  W
  W7       1.0000 0.37713  0.66382  0.05832  Biso   1.000  W
  W8       1.0000 0.62287  0.33618  0.94168  Biso   1.000  W
  W9       1.0000 0.99902  0.61882  0.23892  Biso   1.000  W
  W10      1.0000 0.00098  0.38118  0.76108  Biso   1.000  W
  W11      1.0000 0.90085  0.85160  0.25376  Biso   1.000  W
  W12      1.0000 0.09915  0.14840  0.74624  Biso   1.000  W
  W13      1.0000 0.99844  0.89678  0.09407  Biso   1.000  W
  W14      1.0000 0.00156  0.10322  0.90593  Biso   1.000  W
  W15      1.0000 0.06466  0.82187  0.41128  Biso   1.000  W
  W16      1.0000 0.93534  0.17813  0.58872  Biso   1.000  W
  W17      1.0000 0.28051  0.89649  0.07548  Biso   1.000  W
  W18      1.0000 0.71949  0.10351  0.92452  Biso   1.000  W
  W19      1.0000 0.16206  0.58777  0.39588  Biso   1.000  W
  W20      1.0000 0.83794  0.41223  0.60412  Biso   1.000  W
  W21      1.0000 0.52934  0.63233  0.20127  Biso   1.000  W
  W22      1.0000 0.47066  0.36767  0.79873  Biso   1.000  W
  W23      1.0000 0.32171  0.81901  0.39434  Biso   1.000  W
  W24      1.0000 0.67829  0.18099  0.60566  Biso   1.000  W
  W25      1.0000 0.49171  0.42624  0.25322  Biso   1.000  W
  W26      1.0000 0.50829  0.57376  0.74678  Biso   1.000  W
  W27      1.0000 0.06406  0.07169  0.15151  Biso   1.000  W
  W28      1.0000 0.93594  0.92831  0.84849  Biso   1.000  W
  W29      1.0000 0.20940  0.03859  0.29874  Biso   1.000  W
  W30      1.0000 0.79060  0.96141  0.70126  Biso   1.000  W
  W31      1.0000 0.33164  0.46118  0.11232  Biso   1.000  W
  W32      1.0000 0.66836  0.53882  0.88768  Biso   1.000  W
  W33      1.0000 0.23608  0.42012  0.27567  Biso   1.000  W
  W34      1.0000 0.76392  0.57988  0.72433  Biso   1.000  W
  W35      1.0000 0.95340  0.03446  0.30980  Biso   1.000  W
  W36      1.0000 0.04660  0.96554  0.69020  Biso   1.000  W
  O1       1.0000 0.78500  0.98200  0.49690  Biso   1.000  O
  O2       1.0000 0.21500  0.01800  0.50310  Biso   1.000  O
  O3       1.0000 0.34250  0.65880  0.18330  Biso   1.000  O
  O4       1.0000 0.65750  0.34120  0.81670  Biso   1.000  O
  O5       1.0000 0.58900  0.64600  0.54040  Biso   1.000  O
  O6       1.0000 0.41100  0.35400  0.45960  Biso   1.000  O
  O7       1.0000 0.31550  0.52000  0.21870  Biso   1.000  O
  O8       1.0000 0.68450  0.48000  0.78130  Biso   1.000  O
  O9       1.0000 0.15080  0.65520  0.19610  Biso   1.000  O
  O10      1.0000 0.84920  0.34480  0.80390  Biso   1.000  O
  O11      1.0000 0.26760  0.62700  0.30510  Biso   1.000  O
  O12      1.0000 0.73240  0.37300  0.69490  Biso   1.000  O
  O13      1.0000 0.11560  0.96420  0.24910  Biso   1.000  O
  O14      1.0000 0.88440  0.03580  0.75090  Biso   1.000  O
  O15      1.0000 0.18460  0.82030  0.31680  Biso   1.000  O
  O16      1.0000 0.81540  0.17970  0.68320  Biso   1.000  O
  O17      1.0000 0.26390  0.84800  0.19720  Biso   1.000  O
  O18      1.0000 0.73610  0.15200  0.80280  Biso   1.000  O
  O19      1.0000 0.07290  0.84380  0.20880  Biso   1.000  O
  O20      1.0000 0.92710  0.15620  0.79120  Biso   1.000  O
  O21      1.0000 0.95210  0.10420  0.22200  Biso   1.000  O
  O22      1.0000 0.04790  0.89580  0.77800  Biso   1.000  O
  O23      1.0000 0.04980  0.62330  0.32780  Biso   1.000  O
  O24      1.0000 0.95020  0.37670  0.67220  Biso   1.000  O
  O25      1.0000 0.88560  0.59800  0.26210  Biso   1.000  O
  O26      1.0000 0.11440  0.40200  0.73790  Biso   1.000  O
  O27      1.0000 0.15370  0.10420  0.21110  Biso   1.000  O
  O28      1.0000 0.84630  0.89580  0.78890  Biso   1.000  O
  O29      1.0000 0.34940  0.40250  0.04570  Biso   1.000  O
  O30      1.0000 0.65060  0.59750  0.95430  Biso   1.000  O
  O31      1.0000 0.06480  0.07550  0.33890  Biso   1.000  O
  O32      1.0000 0.93520  0.92450  0.66110  Biso   1.000  O
  O33      1.0000 0.97040  0.81650  0.34020  Biso   1.000  O
  O34      1.0000 0.02960  0.18350  0.65980  Biso   1.000  O
  O35      1.0000 0.53680  0.51240  0.21130  Biso   1.000  O
  O36      1.0000 0.46320  0.48760  0.78870  Biso   1.000  O
  O37      1.0000 0.98500  0.82680  0.48710  Biso   1.000  O
  O38      1.0000 0.01500  0.17320  0.51290  Biso   1.000  O
  O39      1.0000 0.59230  0.17750  0.54400  Biso   1.000  O
  O40      1.0000 0.40770  0.82250  0.45600  Biso   1.000  O
  O41      1.0000 0.47700  0.44930  0.56260  Biso   1.000  O
  O42      1.0000 0.52300  0.55070  0.43740  Biso   1.000  O
  O43      1.0000 0.14830  0.88020  0.06800  Biso   1.000  O
  O44      1.0000 0.85170  0.11980  0.93200  Biso   1.000  O
  O45      1.0000 0.41110  0.66600  0.97110  Biso   1.000  O
  O46      1.0000 0.58890  0.33400  0.02890  Biso   1.000  O
  O47      1.0000 0.54890  0.87880  0.23070  Biso   1.000  O
  O48      1.0000 0.45110  0.12120  0.76930  Biso   1.000  O
  O49      1.0000 0.01900  0.16250  0.09320  Biso   1.000  O
  O50      1.0000 0.98100  0.83750  0.90680  Biso   1.000  O
  O51      1.0000 0.40820  0.81630  0.31190  Biso   1.000  O
  O52      1.0000 0.59180  0.18370  0.68810  Biso   1.000  O
  O53      1.0000 0.84350  0.09580  0.35300  Biso   1.000  O
  O54      1.0000 0.15650  0.90420  0.64700  Biso   1.000  O
  O55      1.0000 0.92830  0.93740  0.01880  Biso   1.000  O
  O56      1.0000 0.07170  0.06260  0.98120  Biso   1.000  O
  O57      1.0000 0.04710  0.66310  0.99820  Biso   1.000  O
  O58      1.0000 0.95290  0.33690  0.00180  Biso   1.000  O
  O59      1.0000 0.25620  0.94030  0.36720  Biso   1.000  O
  O60      1.0000 0.74380  0.05970  0.63280  Biso   1.000  O
  O61      1.0000 0.39040  0.37080  0.28940  Biso   1.000  O
  O62      1.0000 0.60960  0.62920  0.71060  Biso   1.000  O
  O63      1.0000 0.66120  0.61220  0.20670  Biso   1.000  O
  O64      1.0000 0.33880  0.38780  0.79330  Biso   1.000  O
  O65      1.0000 0.39290  0.54460  0.07580  Biso   1.000  O
  O66      1.0000 0.60710  0.45540  0.92420  Biso   1.000  O
  O67      1.0000 0.61280  0.34540  0.27200  Biso   1.000  O
  O68      1.0000 0.38720  0.65460  0.72800  Biso   1.000  O
  O69      1.0000 0.01290  0.94060  0.38220  Biso   1.000  O
  O70      1.0000 0.98710  0.05940  0.61780  Biso   1.000  O
  O71      1.0000 0.76670  0.87080  0.27870  Biso   1.000  O
  O72      1.0000 0.23330  0.12920  0.72130  Biso   1.000  O
  O73      1.0000 0.48670  0.62550  0.29870  Biso   1.000  O
  O74      1.0000 0.51330  0.37450  0.70130  Biso   1.000  O
  O75      1.0000 0.31170  0.55590  0.43050  Biso   1.000  O
  O76      1.0000 0.68830  0.44410  0.56950  Biso   1.000  O
  O77      1.0000 0.69640  0.06030  0.00710  Biso   1.000  O
  O78      1.0000 0.30360  0.93970  0.99290  Biso   1.000  O
  O79      1.0000 0.22380  0.68940  0.05610  Biso   1.000  O
  O80      1.0000 0.77620  0.31060  0.94390  Biso   1.000  O
  O81      1.0000 0.10260  0.55290  0.46730  Biso   1.000  O
  O82      1.0000 0.89740  0.44710  0.53270  Biso   1.000  O
  O83      1.0000 0.99320  0.62930  0.13870  Biso   1.000  O
  O84      1.0000 0.00680  0.37070  0.86130  Biso   1.000  O
  O85      1.0000 0.19030  0.33890  0.30880  Biso   1.000  O
  O86      1.0000 0.80970  0.66110  0.69120  Biso   1.000  O
  O87      1.0000 0.99260  0.00310  0.12300  Biso   1.000  O
  O88      1.0000 0.00740  0.99690  0.87700  Biso   1.000  O
  O89      1.0000 0.19470  0.54590  0.09210  Biso   1.000  O
  O90      1.0000 0.80530  0.45410  0.90790  Biso   1.000  O
  O91      1.0000 0.40080  0.90200  0.12560  Biso   1.000  O
  O92      1.0000 0.59920  0.09800  0.87440  Biso   1.000  O
  O93      1.0000 0.09960  0.50810  0.24250  Biso   1.000  O
  O94      1.0000 0.90040  0.49190  0.75750  Biso   1.000  O
  O95      1.0000 0.35680  0.70090  0.40130  Biso   1.000  O
  O96      1.0000 0.64320  0.29910  0.59870  Biso   1.000  O
  O97      1.0000 0.46250  0.48220  0.33460  Biso   1.000  O
  O98      1.0000 0.53750  0.51780  0.66540  Biso   1.000  O
  O99      1.0000 0.33050  0.96980  0.24460  Biso   1.000  O
  O100     1.0000 0.66950  0.03020  0.75540  Biso   1.000  O
  O101     1.0000 0.18850  0.00380  0.11040  Biso   1.000  O
  O102     1.0000 0.81150  0.99620  0.88960  Biso   1.000  O
  O103     1.0000 0.22170  0.48040  0.35090  Biso   1.000  O
  O104     1.0000 0.77830  0.51960  0.64910  Biso   1.000  O
  O105     1.0000 0.93600  0.74440  0.23260  Biso   1.000  O
  O106     1.0000 0.06400  0.25560  0.76740  Biso   1.000  O
  O107     1.0000 0.19500  0.82450  0.45010  Biso   1.000  O
  O108     1.0000 0.80500  0.17550  0.54990  Biso   1.000  O
  O109     1.0000 0.48540  0.36210  0.89730  Biso   1.000  O
  O110     1.0000 0.51460  0.63790  0.10270  Biso   1.000  O
  O111     1.0000 0.13320  0.69920  0.41390  Biso   1.000  O
  O112     1.0000 0.86680  0.30080  0.58610  Biso   1.000  O
  O113     1.0000 0.26510  0.40200  0.17830  Biso   1.000  O
  O114     1.0000 0.73490  0.59800  0.82170  Biso   1.000  O
  O115     1.0000 0.35230  0.78060  0.06810  Biso   1.000  O
  O116     1.0000 0.64770  0.21940  0.93190  Biso   1.000  O
  O117     1.0000 0.02490  0.77950  0.09070  Biso   1.000  O
  O118     1.0000 0.97510  0.22050  0.90930  Biso   1.000  O
  O119     1.0000 0.87850  0.90090  0.15750  Biso   1.000  O
  O120     1.0000 0.12150  0.09910  0.84250  Biso   1.000  O
  O121     1.0000 0.48380  0.75320  0.19750  Biso   1.000  O
  O122     1.0000 0.51620  0.24680  0.80250  Biso   1.000  O
  O123     1.0000 0.89670  0.96590  0.27090  Biso   1.000  O
  O124     1.0000 0.10330  0.03410  0.72910  Biso   1.000  O
  O125     1.0000 0.46150  0.40390  0.16350  Biso   1.000  O
  O126     1.0000 0.53850  0.59610  0.83650  Biso   1.000  O
  Cu1      1.0000 0.63110  0.86030  0.34000  Biso   1.000  Cu
  Cu2      1.0000 0.36890  0.13970  0.66000  Biso   1.000  Cu
  Cu3      1.0000 0.68760  0.95870  0.12920  Biso   1.000  Cu
  Cu4      1.0000 0.31240  0.04130  0.87080  Biso   1.000  Cu
  Cu5      1.0000 0.29720  0.37060  0.94888  Biso   1.000  Cu
  Cu6      1.0000 0.70280  0.62940  0.05112  Biso   1.000  Cu
  Cu7      1.0000 0.29550  0.50210  0.58950  Biso   1.000  Cu
  Cu8      1.0000 0.70450  0.49790  0.41050  Biso   1.000  Cu
  Cu9      1.0000 0.65440  0.17410  0.40370  Biso   1.000  Cu
  Cu10     1.0000 0.34560  0.82590  0.59630  Biso   1.000  Cu
  Cu11     1.0000 0.73100  0.28190  0.15090  Biso   1.000  Cu
  Cu12     1.0000 0.26900  0.71810  0.84910  Biso   1.000  Cu
  C1       1.0000 0.48300  0.02500  0.39230  Biso   1.000  C
  C2       1.0000 0.51700  0.97500  0.60770  Biso   1.000  C
  H1       1.0000 0.42210  0.00870  0.40660  Biso   1.000  H
  H2       1.0000 0.57790  0.99130  0.59340  Biso   1.000  H
  C3       1.0000 0.64300  0.02300  0.36080  Biso   1.000  C
  C4       1.0000 0.35700  0.97700  0.63920  Biso   1.000  C
  H3       1.0000 0.71740  0.00510  0.34530  Biso   1.000  H
  H4       1.0000 0.28260  0.99490  0.65470  Biso   1.000  H
  C5       1.0000 0.39300  0.18200  0.40560  Biso   1.000  C
  C6       1.0000 0.60700  0.81800  0.59440  Biso   1.000  C
  H5       1.0000 0.33860  0.19000  0.36930  Biso   1.000  H
  H6       1.0000 0.66140  0.81000  0.63070  Biso   1.000  H
  H7       1.0000 0.41540  0.23270  0.39920  Biso   1.000  H
  H8       1.0000 0.58460  0.76730  0.60080  Biso   1.000  H
  C7       1.0000 0.34700  0.17500  0.47100  Biso   1.000  C
  C8       1.0000 0.65300  0.82500  0.52900  Biso   1.000  C
  H9       1.0000 0.35110  0.11590  0.48480  Biso   1.000  H
  H10      1.0000 0.64890  0.88410  0.51520  Biso   1.000  H
  H11      1.0000 0.38640  0.19100  0.50540  Biso   1.000  H
  H12      1.0000 0.61360  0.80900  0.49460  Biso   1.000  H
  C9       1.0000 0.22400  0.23600  0.46610  Biso   1.000  C
  C10      1.0000 0.77600  0.76400  0.53390  Biso   1.000  C
  H13      1.0000 0.18120  0.21250  0.44030  Biso   1.000  H
  H14      1.0000 0.81880  0.78750  0.55970  Biso   1.000  H
  H15      1.0000 0.21970  0.29210  0.44050  Biso   1.000  H
  H16      1.0000 0.78030  0.70790  0.55950  Biso   1.000  H
  C11      1.0000 0.17800  0.24780  0.53890  Biso   1.000  C
  C12      1.0000 0.82200  0.75220  0.46110  Biso   1.000  C
  H17      1.0000 0.09870  0.28190  0.53520  Biso   1.000  H
  H18      1.0000 0.90130  0.71810  0.46480  Biso   1.000  H
  H19      1.0000 0.18460  0.19130  0.56410  Biso   1.000  H
  H20      1.0000 0.81540  0.80870  0.43590  Biso   1.000  H
  C13      1.0000 0.20400  0.37900  0.56520  Biso   1.000  C
  C14      1.0000 0.79600  0.62100  0.43480  Biso   1.000  C
  H21      1.0000 0.14770  0.41610  0.53480  Biso   1.000  H
  H22      1.0000 0.85230  0.58390  0.46520  Biso   1.000  H
  C15      1.0000 0.33800  0.32270  0.63450  Biso   1.000  C
  C16      1.0000 0.66200  0.67730  0.36550  Biso   1.000  C
  H23      1.0000 0.39740  0.31710  0.66310  Biso   1.000  H
  H24      1.0000 0.60260  0.68290  0.33690  Biso   1.000  H
  C17      1.0000 0.57900  0.19500  0.18920  Biso   1.000  C
  C18      1.0000 0.42100  0.80500  0.81080  Biso   1.000  C
  H25      1.0000 0.52360  0.24410  0.20410  Biso   1.000  H
  H26      1.0000 0.47640  0.75590  0.79590  Biso   1.000  H
  C19      1.0000 0.73500  0.10900  0.15290  Biso   1.000  C
  C20      1.0000 0.26500  0.89100  0.84710  Biso   1.000  C
  H27      1.0000 0.80860  0.08710  0.13750  Biso   1.000  H
  H28      1.0000 0.19140  0.91290  0.86250  Biso   1.000  H
  C21      1.0000 0.47000  0.09590  0.19790  Biso   1.000  C
  C22      1.0000 0.53000  0.90410  0.80210  Biso   1.000  C
  H29      1.0000 0.49530  0.03350  0.20980  Biso   1.000  H
  H30      1.0000 0.50470  0.96650  0.79020  Biso   1.000  H
  H31      1.0000 0.42820  0.12130  0.23870  Biso   1.000  H
  H32      1.0000 0.57180  0.87870  0.76130  Biso   1.000  H
  C23      1.0000 0.39300  0.12120  0.13550  Biso   1.000  C
  C24      1.0000 0.60700  0.87880  0.86450  Biso   1.000  C
  H33      1.0000 0.33610  0.09540  0.14540  Biso   1.000  H
  H34      1.0000 0.66390  0.90460  0.85460  Biso   1.000  H
  H35      1.0000 0.43510  0.09880  0.09380  Biso   1.000  H
  H36      1.0000 0.56490  0.90120  0.90620  Biso   1.000  H
  C25      1.0000 0.34000  0.21500  0.12040  Biso   1.000  C
  C26      1.0000 0.66000  0.78500  0.87960  Biso   1.000  C
  H37      1.0000 0.32060  0.23940  0.16510  Biso   1.000  H
  H38      1.0000 0.67940  0.76060  0.83490  Biso   1.000  H
  H39      1.0000 0.39290  0.23860  0.09520  Biso   1.000  H
  H40      1.0000 0.60710  0.76140  0.90480  Biso   1.000  H
  C27      1.0000 0.23500  0.24110  0.07540  Biso   1.000  C
  C28      1.0000 0.76500  0.75890  0.92460  Biso   1.000  C
  H41      1.0000 0.19900  0.30350  0.07090  Biso   1.000  H
  H42      1.0000 0.80100  0.69650  0.92910  Biso   1.000  H
  H43      1.0000 0.18370  0.21560  0.09990  Biso   1.000  H
  H44      1.0000 0.81630  0.78440  0.90010  Biso   1.000  H
  C29      1.0000 0.31300  0.20990  0.89880  Biso   1.000  C
  C30      1.0000 0.68700  0.79010  0.10120  Biso   1.000  C
  H45      1.0000 0.33310  0.22730  0.85280  Biso   1.000  H
  H46      1.0000 0.66690  0.77270  0.14720  Biso   1.000  H
  C31      1.0000 0.26300  0.14300  0.98500  Biso   1.000  C
  C32      1.0000 0.73700  0.85700  0.01500  Biso   1.000  C
  H47      1.0000 0.24350  0.10140  0.01480  Biso   1.000  H
  H48      1.0000 0.75650  0.89860  0.98520  Biso   1.000  H
  C33      1.0000 0.71100  0.45420  0.09390  Biso   1.000  C
  C34      1.0000 0.28900  0.54580  0.90610  Biso   1.000  C
  H49      1.0000 0.63910  0.46680  0.07850  Biso   1.000  H
  H50      1.0000 0.36090  0.53320  0.92150  Biso   1.000  H
  C35      1.0000 0.14900  0.52830  0.87750  Biso   1.000  C
  C36      1.0000 0.85100  0.47170  0.12250  Biso   1.000  C
  H51      1.0000 0.09750  0.50320  0.86970  Biso   1.000  H
  H52      1.0000 0.90250  0.49680  0.13030  Biso   1.000  H
  C37      1.0000 0.95800  0.32200  0.17790  Biso   1.000  C
  C38      1.0000 0.04200  0.67800  0.82210  Biso   1.000  C
  H53      1.0000 0.02270  0.33910  0.17000  Biso   1.000  H
  H54      1.0000 0.97730  0.66090  0.83000  Biso   1.000  H
  H55      1.0000 0.97100  0.27020  0.15570  Biso   1.000  H
  H56      1.0000 0.02900  0.72980  0.84430  Biso   1.000  H
  C39      1.0000 0.93600  0.30500  0.25910  Biso   1.000  C
  C40      1.0000 0.06400  0.69500  0.74090  Biso   1.000  C
  H57      1.0000 0.86690  0.29280  0.26560  Biso   1.000  H
  H58      1.0000 0.13310  0.70720  0.73440  Biso   1.000  H
  H59      1.0000 0.99570  0.25320  0.27870  Biso   1.000  H
  H60      1.0000 0.00430  0.74680  0.72130  Biso   1.000  H
  C41      1.0000 0.92800  0.37700  0.30070  Biso   1.000  C
  C42      1.0000 0.07200  0.62300  0.69930  Biso   1.000  C
  H61      1.0000 0.86100  0.42660  0.28680  Biso   1.000  H
  H62      1.0000 0.13900  0.57340  0.71320  Biso   1.000  H
  H63      1.0000 0.99170  0.39500  0.28980  Biso   1.000  H
  H64      1.0000 0.00830  0.60500  0.71020  Biso   1.000  H
  C43      1.0000 0.92300  0.34800  0.38280  Biso   1.000  C
  C44      1.0000 0.07700  0.65200  0.61720  Biso   1.000  C
  H65      1.0000 0.99090  0.30020  0.39630  Biso   1.000  H
  H66      1.0000 0.00910  0.69980  0.60370  Biso   1.000  H
  H67      1.0000 0.92070  0.39580  0.40820  Biso   1.000  H
  H68      1.0000 0.07930  0.60420  0.59180  Biso   1.000  H
  C45      1.0000 0.81800  0.24920  0.40270  Biso   1.000  C
  C46      1.0000 0.18200  0.75080  0.59730  Biso   1.000  C
  H69      1.0000 0.87400  0.19810  0.39370  Biso   1.000  H
  H70      1.0000 0.12600  0.80190  0.60630  Biso   1.000  H
  C47      1.0000 0.66000  0.33880  0.42400  Biso   1.000  C
  C48      1.0000 0.34000  0.66120  0.57600  Biso   1.000  C
  H71      1.0000 0.58460  0.36130  0.43580  Biso   1.000  H
  H72      1.0000 0.41540  0.63870  0.56420  Biso   1.000  H
  N1       1.0000 0.57700  0.97560  0.36350  Biso   1.000  N
  N2       1.0000 0.42300  0.02440  0.63650  Biso   1.000  N
  N3       1.0000 0.58700  0.10090  0.38380  Biso   1.000  N
  N4       1.0000 0.41300  0.89910  0.61620  Biso   1.000  N
  N5       1.0000 0.49000  0.10500  0.39750  Biso   1.000  N
  N6       1.0000 0.51000  0.89500  0.60250  Biso   1.000  N
  N7       1.0000 0.23200  0.29060  0.58240  Biso   1.000  N
  N8       1.0000 0.76800  0.70940  0.41760  Biso   1.000  N
  N9       1.0000 0.27400  0.39750  0.60180  Biso   1.000  N
  N10      1.0000 0.72600  0.60250  0.39820  Biso   1.000  N
  N11      1.0000 0.68800  0.74170  0.37620  Biso   1.000  N
  N12      1.0000 0.31200  0.25830  0.62380  Biso   1.000  N
  N13      1.0000 0.67600  0.19150  0.16870  Biso   1.000  N
  N14      1.0000 0.32400  0.80850  0.83130  Biso   1.000  N
  N15      1.0000 0.56600  0.12170  0.18650  Biso   1.000  N
  N16      1.0000 0.43400  0.87830  0.81350  Biso   1.000  N
  N17      1.0000 0.66200  0.06420  0.16450  Biso   1.000  N
  N18      1.0000 0.33800  0.93580  0.83550  Biso   1.000  N
  N19      1.0000 0.25800  0.21400  0.00430  Biso   1.000  N
  N20      1.0000 0.74200  0.78600  0.99570  Biso   1.000  N
  N21      1.0000 0.29600  0.25570  0.95090  Biso   1.000  N
  N22      1.0000 0.70400  0.74430  0.04910  Biso   1.000  N
  N23      1.0000 0.29900  0.13330  0.91930  Biso   1.000  N
  N24      1.0000 0.70100  0.86670  0.08070  Biso   1.000  N
  N25      1.0000 0.77700  0.37850  0.12500  Biso   1.000  N
  N26      1.0000 0.22300  0.62150  0.87500  Biso   1.000  N
  N27      1.0000 0.23500  0.49120  0.91200  Biso   1.000  N
  N28      1.0000 0.76500  0.50880  0.08800  Biso   1.000  N
  N29      1.0000 0.86000  0.39120  0.14760  Biso   1.000  N
  N30      1.0000 0.14000  0.60880  0.85240  Biso   1.000  N
  N31      1.0000 0.71500  0.25920  0.41530  Biso   1.000  N
  N32      1.0000 0.28500  0.74080  0.58470  Biso   1.000  N
  N33      1.0000 0.72700  0.38330  0.41360  Biso   1.000  N
  N34      1.0000 0.27300  0.61670  0.58640  Biso   1.000  N
  N35      1.0000 0.82900  0.32310  0.40490  Biso   1.000  N
  N36      1.0000 0.17100  0.67690  0.59510  Biso   1.000  N
  O127     1.0000 0.26370  0.10430  0.32980  Biso   1.000  O
  O128     1.0000 0.73630  0.89570  0.67020  Biso   1.000  O
