data_image0
_cell_length_a       12.621
_cell_length_b       13.168
_cell_length_c       17.467
_cell_angle_alpha    86.09
_cell_angle_beta     85.35
_cell_angle_gamma    64.1

_symmetry_space_group_name_H-M    "P 1"
_symmetry_int_tables_number       1

loop_
  _symmetry_equiv_pos_as_xyz
  'x, y, z'

loop_
  _atom_site_label
  _atom_site_occupancy
  _atom_site_fract_x
  _atom_site_fract_y
  _atom_site_fract_z
  _atom_site_thermal_displace_type
  _atom_site_B_iso_or_equiv
  _atom_site_type_symbol
  Si1      1.0000 0.50000  0.50000  0.50000  Biso   1.000  Si
  O1       1.0000 0.32790  0.80510  0.53080  Biso   1.000  O
  O2       1.0000 0.67210  0.19490  0.46920  Biso   1.000  O
  O3       1.0000 0.31200  0.75870  0.38930  Biso   1.000  O
  O4       1.0000 0.68800  0.24130  0.61070  Biso   1.000  O
  O5       1.0000 0.15560  0.57630  0.70410  Biso   1.000  O
  O6       1.0000 0.84440  0.42370  0.29590  Biso   1.000  O
  O7       1.0000 0.10900  0.86540  0.47720  Biso   1.000  O
  O8       1.0000 0.89100  0.13460  0.52280  Biso   1.000  O
  O9       1.0000 0.51950  0.11280  0.43830  Biso   1.000  O
  O10      1.0000 0.48050  0.88720  0.56170  Biso   1.000  O
  O11      1.0000 0.45960  0.41910  0.22010  Biso   1.000  O
  O12      1.0000 0.54040  0.58090  0.77990  Biso   1.000  O
  O13      1.0000 0.46030  0.79860  0.27980  Biso   1.000  O
  O14      1.0000 0.53970  0.20140  0.72020  Biso   1.000  O
  O15      1.0000 0.12070  0.47650  0.42940  Biso   1.000  O
  O16      1.0000 0.87930  0.52350  0.57060  Biso   1.000  O
  O17      1.0000 0.19440  0.64150  0.44260  Biso   1.000  O
  O18      1.0000 0.80560  0.35850  0.55740  Biso   1.000  O
  O19      1.0000 0.20980  0.69160  0.58410  Biso   1.000  O
  O20      1.0000 0.79020  0.30840  0.41590  Biso   1.000  O
  O21      1.0000 0.35430  0.55910  0.51680  Biso   1.000  O
  O22      1.0000 0.64570  0.44090  0.48320  Biso   1.000  O
  O23      1.0000 0.43790  0.59750  0.29730  Biso   1.000  O
  O24      1.0000 0.56210  0.40250  0.70270  Biso   1.000  O
  O25      1.0000 0.21720  0.49310  0.55820  Biso   1.000  O
  O26      1.0000 0.78280  0.50690  0.44180  Biso   1.000  O
  O27      1.0000 0.36490  0.39680  0.66520  Biso   1.000  O
  O28      1.0000 0.63510  0.60320  0.33480  Biso   1.000  O
  O29      1.0000 0.50690  0.76950  0.43080  Biso   1.000  O
  O30      1.0000 0.49310  0.23050  0.56920  Biso   1.000  O
  O31      1.0000 0.36490  0.59170  0.69360  Biso   1.000  O
  O32      1.0000 0.63510  0.40830  0.30640  Biso   1.000  O
  O33      1.0000 0.44430  0.63020  0.47450  Biso   1.000  O
  O34      1.0000 0.55570  0.36980  0.52550  Biso   1.000  O
  O35      1.0000 0.34130  0.32740  0.46600  Biso   1.000  O
  O36      1.0000 0.65870  0.67260  0.53400  Biso   1.000  O
  O37      1.0000 0.31590  0.48030  0.35090  Biso   1.000  O
  O38      1.0000 0.68410  0.51970  0.64910  Biso   1.000  O
  O39      1.0000 0.44970  0.43150  0.44450  Biso   1.000  O
  O40      1.0000 0.55030  0.56850  0.55550  Biso   1.000  O
  O41      1.0000 0.53170  0.52270  0.41260  Biso   1.000  O
  O42      1.0000 0.46830  0.47730  0.58740  Biso   1.000  O
  O43      1.0000 0.51770  0.29570  0.35930  Biso   1.000  O
  O44      1.0000 0.48230  0.70430  0.64070  Biso   1.000  O
  C1       1.0000 0.27770  0.04780  0.43310  Biso   1.000  C
  C2       1.0000 0.72230  0.95220  0.56690  Biso   1.000  C
  H1       1.0000 0.33060  0.98720  0.46160  Biso   1.000  H
  H2       1.0000 0.66940  0.01280  0.53840  Biso   1.000  H
  C3       1.0000 0.31730  0.07540  0.36390  Biso   1.000  C
  C4       1.0000 0.68270  0.92460  0.63610  Biso   1.000  C
  H3       1.0000 0.39450  0.03240  0.34560  Biso   1.000  H
  H4       1.0000 0.60550  0.96760  0.65440  Biso   1.000  H
  C5       1.0000 0.39720  0.17310  0.22990  Biso   1.000  C
  C6       1.0000 0.60280  0.82690  0.77010  Biso   1.000  C
  H5       1.0000 0.45110  0.13610  0.26730  Biso   1.000  H
  H6       1.0000 0.54890  0.86390  0.73270  Biso   1.000  H
  C7       1.0000 0.43280  0.20310  0.16170  Biso   1.000  C
  C8       1.0000 0.56720  0.79690  0.83830  Biso   1.000  C
  H7       1.0000 0.51200  0.18710  0.15260  Biso   1.000  H
  H8       1.0000 0.48800  0.81290  0.84740  Biso   1.000  H
  C9       1.0000 0.47740  0.33610  0.02460  Biso   1.000  C
  C10      1.0000 0.52260  0.66390  0.97540  Biso   1.000  C
  H9       1.0000 0.50930  0.34220  0.06920  Biso   1.000  H
  H10      1.0000 0.49070  0.65780  0.93080  Biso   1.000  H
  C11      1.0000 0.51380  0.37030  0.95360  Biso   1.000  C
  C12      1.0000 0.48620  0.62970  0.04640  Biso   1.000  C
  H11      1.0000 0.56940  0.39910  0.95170  Biso   1.000  H
  H12      1.0000 0.43060  0.60090  0.04830  Biso   1.000  H
  C13      1.0000 0.46810  0.36180  0.88690  Biso   1.000  C
  C14      1.0000 0.53190  0.63820  0.11310  Biso   1.000  C
  H13      1.0000 0.49260  0.38430  0.83980  Biso   1.000  H
  H14      1.0000 0.50740  0.61570  0.16020  Biso   1.000  H
  C15      1.0000 0.38650  0.31980  0.89080  Biso   1.000  C
  C16      1.0000 0.61350  0.68020  0.10920  Biso   1.000  C
  H15      1.0000 0.35500  0.31410  0.84590  Biso   1.000  H
  H16      1.0000 0.64500  0.68590  0.15410  Biso   1.000  H
  C17      1.0000 0.34930  0.28530  0.96070  Biso   1.000  C
  C18      1.0000 0.65070  0.71470  0.03930  Biso   1.000  C
  H17      1.0000 0.29360  0.25660  0.96200  Biso   1.000  H
  H18      1.0000 0.70640  0.74340  0.03800  Biso   1.000  H
  C19      1.0000 0.39520  0.29350  0.02900  Biso   1.000  C
  C20      1.0000 0.60480  0.70650  0.97100  Biso   1.000  C
  C21      1.0000 0.35610  0.25720  0.10380  Biso   1.000  C
  C22      1.0000 0.64390  0.74280  0.89620  Biso   1.000  C
  C23      1.0000 0.24040  0.27550  0.11920  Biso   1.000  C
  C24      1.0000 0.75960  0.72450  0.88080  Biso   1.000  C
  H19      1.0000 0.18660  0.30900  0.08130  Biso   1.000  H
  H20      1.0000 0.81340  0.69100  0.91870  Biso   1.000  H
  C25      1.0000 0.28250  0.19720  0.24390  Biso   1.000  C
  C26      1.0000 0.71750  0.80280  0.75610  Biso   1.000  C
  C27      1.0000 0.24390  0.16630  0.32100  Biso   1.000  C
  C28      1.0000 0.75610  0.83370  0.67900  Biso   1.000  C
  C29      1.0000 0.13020  0.22490  0.35210  Biso   1.000  C
  C30      1.0000 0.86980  0.77510  0.64790  Biso   1.000  C
  H21      1.0000 0.07600  0.28620  0.32480  Biso   1.000  H
  H22      1.0000 0.92400  0.71380  0.67520  Biso   1.000  H
  C31      1.0000 0.09690  0.19330  0.42300  Biso   1.000  C
  C32      1.0000 0.90310  0.80670  0.57700  Biso   1.000  C
  H23      1.0000 0.02180  0.23770  0.44400  Biso   1.000  H
  H24      1.0000 0.97820  0.76230  0.55600  Biso   1.000  H
  C33      1.0000 0.21030  0.90480  0.68520  Biso   1.000  C
  C34      1.0000 0.78970  0.09520  0.31480  Biso   1.000  C
  H25      1.0000 0.27980  0.90700  0.66490  Biso   1.000  H
  H26      1.0000 0.72020  0.09300  0.33510  Biso   1.000  H
  C35      1.0000 0.21470  0.84030  0.75180  Biso   1.000  C
  C36      1.0000 0.78530  0.15970  0.24820  Biso   1.000  C
  H27      1.0000 0.28540  0.79950  0.77540  Biso   1.000  H
  H28      1.0000 0.71460  0.20050  0.22460  Biso   1.000  H
  C37      1.0000 0.20550  0.67460  0.87780  Biso   1.000  C
  C38      1.0000 0.79450  0.32540  0.12220  Biso   1.000  C
  H29      1.0000 0.27540  0.64730  0.84740  Biso   1.000  H
  H30      1.0000 0.72460  0.35270  0.15260  Biso   1.000  H
  C39      1.0000 0.19520  0.61960  0.94670  Biso   1.000  C
  C40      1.0000 0.80480  0.38040  0.05330  Biso   1.000  C
  H31      1.0000 0.25850  0.55390  0.96270  Biso   1.000  H
  H32      1.0000 0.74150  0.44610  0.03730  Biso   1.000  H
  C41      1.0000 0.16360  0.57030  0.12040  Biso   1.000  C
  C42      1.0000 0.83640  0.42970  0.87960  Biso   1.000  C
  H33      1.0000 0.23460  0.57450  0.10790  Biso   1.000  H
  H34      1.0000 0.76540  0.42550  0.89210  Biso   1.000  H
  C43      1.0000 0.14450  0.52680  0.19170  Biso   1.000  C
  C44      1.0000 0.85550  0.47320  0.80830  Biso   1.000  C
  H35      1.0000 0.20200  0.50380  0.22750  Biso   1.000  H
  H36      1.0000 0.79800  0.49620  0.77250  Biso   1.000  H
  C45      1.0000 0.04100  0.51750  0.21000  Biso   1.000  C
  C46      1.0000 0.95900  0.48250  0.79000  Biso   1.000  C
  H37      1.0000 0.02950  0.48750  0.25800  Biso   1.000  H
  H38      1.0000 0.97050  0.51250  0.74200  Biso   1.000  H
  C47      1.0000 0.95440  0.55190  0.15830  Biso   1.000  C
  C48      1.0000 0.04560  0.44810  0.84170  Biso   1.000  C
  H39      1.0000 0.88440  0.54550  0.17110  Biso   1.000  H
  H40      1.0000 0.11560  0.45450  0.82890  Biso   1.000  H
  C49      1.0000 0.97280  0.59640  0.08630  Biso   1.000  C
  C50      1.0000 0.02720  0.40360  0.91370  Biso   1.000  C
  H41      1.0000 0.91490  0.61860  0.05090  Biso   1.000  H
  H42      1.0000 0.08510  0.38140  0.94910  Biso   1.000  H
  C51      1.0000 0.07560  0.60840  0.06650  Biso   1.000  C
  C52      1.0000 0.92440  0.39160  0.93350  Biso   1.000  C
  C53      1.0000 0.09100  0.66240  0.99140  Biso   1.000  C
  C54      1.0000 0.90900  0.33760  0.00860  Biso   1.000  C
  C55      1.0000 0.99950  0.75960  0.96310  Biso   1.000  C
  C56      1.0000 0.00050  0.24040  0.03690  Biso   1.000  C
  H43      1.0000 0.92870  0.78910  0.99270  Biso   1.000  H
  H44      1.0000 0.07130  0.21090  0.00730  Biso   1.000  H
  C57      1.0000 0.10800  0.77170  0.85580  Biso   1.000  C
  C58      1.0000 0.89200  0.22830  0.14420  Biso   1.000  C
  C59      1.0000 0.11120  0.83820  0.78240  Biso   1.000  C
  C60      1.0000 0.88880  0.16180  0.21760  Biso   1.000  C
  C61      1.0000 0.00980  0.90050  0.74560  Biso   1.000  C
  C62      1.0000 0.99020  0.09950  0.25440  Biso   1.000  C
  H45      1.0000 0.93870  0.90180  0.76560  Biso   1.000  H
  H46      1.0000 0.06130  0.09820  0.23440  Biso   1.000  H
  C63      1.0000 0.01280  0.96160  0.67860  Biso   1.000  C
  C64      1.0000 0.98720  0.03840  0.32140  Biso   1.000  C
  H47      1.0000 0.94290  0.00210  0.65410  Biso   1.000  H
  H48      1.0000 0.05710  0.99790  0.34590  Biso   1.000  H
  C65      1.0000 0.71960  0.80970  0.32500  Biso   1.000  C
  C66      1.0000 0.28040  0.19030  0.67500  Biso   1.000  C
  H49      1.0000 0.63990  0.84360  0.31530  Biso   1.000  H
  H50      1.0000 0.36010  0.15640  0.68470  Biso   1.000  H
  C67      1.0000 0.79750  0.83150  0.27430  Biso   1.000  C
  C68      1.0000 0.20250  0.16850  0.72570  Biso   1.000  C
  H51      1.0000 0.77090  0.87740  0.23040  Biso   1.000  H
  H52      1.0000 0.22910  0.12260  0.76960  Biso   1.000  H
  C69      1.0000 0.03010  0.89580  0.12540  Biso   1.000  C
  C70      1.0000 0.96990  0.10420  0.87460  Biso   1.000  C
  H53      1.0000 0.00010  0.93700  0.08040  Biso   1.000  H
  H54      1.0000 0.99990  0.06300  0.91960  Biso   1.000  H
  C71      1.0000 0.20380  0.91030  0.00330  Biso   1.000  C
  C72      1.0000 0.79620  0.08970  0.99670  Biso   1.000  C
  H55      1.0000 0.15270  0.88480  0.98530  Biso   1.000  H
  H56      1.0000 0.84730  0.11520  0.01470  Biso   1.000  H
  C73      1.0000 0.26390  0.95350  0.95160  Biso   1.000  C
  C74      1.0000 0.73610  0.04650  0.04840  Biso   1.000  C
  H57      1.0000 0.25230  0.95700  0.89940  Biso   1.000  H
  H58      1.0000 0.74770  0.04300  0.10060  Biso   1.000  H
  C75      1.0000 0.33990  0.99110  0.97620  Biso   1.000  C
  C76      1.0000 0.66010  0.00890  0.02380  Biso   1.000  C
  H59      1.0000 0.37940  0.02080  0.94120  Biso   1.000  H
  H60      1.0000 0.62060  0.97920  0.05880  Biso   1.000  H
  C77      1.0000 0.35720  0.98410  0.05410  Biso   1.000  C
  C78      1.0000 0.64280  0.01590  0.94590  Biso   1.000  C
  H61      1.0000 0.40860  0.00990  0.07130  Biso   1.000  H
  H62      1.0000 0.59140  0.99010  0.92870  Biso   1.000  H
  C79      1.0000 0.29970  0.93970  0.10640  Biso   1.000  C
  C80      1.0000 0.70030  0.06030  0.89360  Biso   1.000  C
  H63      1.0000 0.31470  0.93320  0.15820  Biso   1.000  H
  H64      1.0000 0.68530  0.06680  0.84180  Biso   1.000  H
  C81      1.0000 0.21820  0.90420  0.08170  Biso   1.000  C
  C82      1.0000 0.78180  0.09580  0.91830  Biso   1.000  C
  C83      1.0000 0.14820  0.86530  0.13780  Biso   1.000  C
  C84      1.0000 0.85180  0.13470  0.86220  Biso   1.000  C
  C85      1.0000 0.19320  0.80120  0.20400  Biso   1.000  C
  C86      1.0000 0.80680  0.19880  0.79600  Biso   1.000  C
  H65      1.0000 0.27160  0.77840  0.21460  Biso   1.000  H
  H66      1.0000 0.72840  0.22160  0.78540  Biso   1.000  H
  C87      1.0000 0.11940  0.77200  0.25380  Biso   1.000  C
  C88      1.0000 0.88060  0.22800  0.74620  Biso   1.000  C
  H67      1.0000 0.14820  0.72760  0.29790  Biso   1.000  H
  H68      1.0000 0.85180  0.27240  0.70210  Biso   1.000  H
  C89      1.0000 0.00260  0.80900  0.23770  Biso   1.000  C
  C90      1.0000 0.99740  0.19100  0.76230  Biso   1.000  C
  C91      1.0000 0.91590  0.78380  0.28960  Biso   1.000  C
  C92      1.0000 0.08410  0.21620  0.71040  Biso   1.000  C
  C93      1.0000 0.94830  0.71830  0.35600  Biso   1.000  C
  C94      1.0000 0.05170  0.28170  0.64400  Biso   1.000  C
  H69      1.0000 0.02610  0.68830  0.36980  Biso   1.000  H
  H70      1.0000 0.97390  0.31170  0.63020  Biso   1.000  H
  C95      1.0000 0.86700  0.69690  0.40180  Biso   1.000  C
  C96      1.0000 0.13300  0.30310  0.59820  Biso   1.000  C
  H71      1.0000 0.89160  0.64880  0.44480  Biso   1.000  H
  H72      1.0000 0.10840  0.35120  0.55520  Biso   1.000  H
  Mo1      1.0000 0.24234  0.48284  0.45325  Biso   1.000  Mo
  Mo2      1.0000 0.75766  0.51716  0.54675  Biso   1.000  Mo
  Mo3      1.0000 0.23535  0.74789  0.48355  Biso   1.000  Mo
  Mo4      1.0000 0.76465  0.25211  0.51645  Biso   1.000  Mo
  Mo5      1.0000 0.26630  0.55419  0.64056  Biso   1.000  Mo
  Mo6      1.0000 0.73370  0.44581  0.35944  Biso   1.000  Mo
  Mo7      1.0000 0.47490  0.70437  0.35164  Biso   1.000  Mo
  Mo8      1.0000 0.52510  0.29563  0.64836  Biso   1.000  Mo
  Mo9      1.0000 0.51081  0.23897  0.45454  Biso   1.000  Mo
  Mo10     1.0000 0.48919  0.76103  0.54546  Biso   1.000  Mo
  Mo11     1.0000 0.46728  0.44998  0.30901  Biso   1.000  Mo
  Mo12     1.0000 0.53272  0.55002  0.69099  Biso   1.000  Mo
  Cu1      1.0000 0.12130  0.04007  0.55313  Biso   1.000  Cu
  Cu2      1.0000 0.87870  0.95993  0.44687  Biso   1.000  Cu
  N1       1.0000 0.16660  0.10280  0.46290  Biso   1.000  N
  N2       1.0000 0.83340  0.89720  0.53710  Biso   1.000  N
  N3       1.0000 0.10990  0.96530  0.64780  Biso   1.000  N
  N4       1.0000 0.89010  0.03470  0.35220  Biso   1.000  N
  N5       1.0000 0.20330  0.24540  0.18890  Biso   1.000  N
  N6       1.0000 0.79670  0.75460  0.81110  Biso   1.000  N
  N7       1.0000 0.00530  0.81370  0.89710  Biso   1.000  N
  N8       1.0000 0.99470  0.18630  0.10290  Biso   1.000  N
  N9       1.0000 0.75360  0.74290  0.38660  Biso   1.000  N
  N10      1.0000 0.24640  0.25710  0.61340  Biso   1.000  N
  N11      1.0000 0.95760  0.86990  0.17330  Biso   1.000  N
  N12      1.0000 0.04240  0.13010  0.82670  Biso   1.000  N
