data_image0
_cell_length_a       13.008
_cell_length_b       16.887
_cell_length_c       18.288
_cell_angle_alpha    114.561
_cell_angle_beta     92.22
_cell_angle_gamma    95.181

_symmetry_space_group_name_H-M    "P 1"
_symmetry_int_tables_number       1

loop_
  _symmetry_equiv_pos_as_xyz
  'x, y, z'

loop_
  _atom_site_label
  _atom_site_occupancy
  _atom_site_fract_x
  _atom_site_fract_y
  _atom_site_fract_z
  _atom_site_thermal_displace_type
  _atom_site_B_iso_or_equiv
  _atom_site_type_symbol
  Cu1      1.0000 0.92447  0.74653  0.66057  Biso   1.000  Cu
  Cu2      1.0000 0.07553  0.25347  0.33943  Biso   1.000  Cu
  Cu3      1.0000 0.10534  0.89601  0.67014  Biso   1.000  Cu
  Cu4      1.0000 0.89466  0.10399  0.32986  Biso   1.000  Cu
  Cu5      1.0000 0.00000  0.00000  0.00000  Biso   1.000  Cu
  Cu6      1.0000 0.17162  0.95746  0.50835  Biso   1.000  Cu
  Cu7      1.0000 0.82838  0.04254  0.49165  Biso   1.000  Cu
  Cu8      1.0000 0.82825  0.55840  0.48310  Biso   1.000  Cu
  Cu9      1.0000 0.17175  0.44160  0.51690  Biso   1.000  Cu
  Cu10     1.0000 0.50240  0.77502  0.54846  Biso   1.000  Cu
  Cu11     1.0000 0.49760  0.22498  0.45154  Biso   1.000  Cu
  Cu12     1.0000 0.01049  0.75205  0.51490  Biso   1.000  Cu
  Cu13     1.0000 0.98951  0.24795  0.48510  Biso   1.000  Cu
  N1       1.0000 0.47880  0.50180  0.18040  Biso   1.000  N
  N2       1.0000 0.52120  0.49820  0.81960  Biso   1.000  N
  H1       1.0000 0.51250  0.49390  0.13760  Biso   1.000  H
  H2       1.0000 0.48750  0.50610  0.86240  Biso   1.000  H
  H3       1.0000 0.41190  0.48480  0.17490  Biso   1.000  H
  H4       1.0000 0.58810  0.51520  0.82510  Biso   1.000  H
  N3       1.0000 0.76630  0.66220  0.52280  Biso   1.000  N
  N4       1.0000 0.23370  0.33780  0.47720  Biso   1.000  N
  N5       1.0000 0.79060  0.73090  0.59910  Biso   1.000  N
  N6       1.0000 0.20940  0.26910  0.40090  Biso   1.000  N
  N7       1.0000 0.63430  0.74140  0.55250  Biso   1.000  N
  N8       1.0000 0.36570  0.25860  0.44750  Biso   1.000  N
  N9       1.0000 0.67640  0.07800  0.90140  Biso   1.000  N
  N10      1.0000 0.32360  0.92200  0.09860  Biso   1.000  N
  H5       1.0000 0.61870  0.08510  0.92590  Biso   1.000  H
  H6       1.0000 0.38130  0.91490  0.07410  Biso   1.000  H
  H7       1.0000 0.73040  0.11810  0.92170  Biso   1.000  H
  H8       1.0000 0.26960  0.88190  0.07830  Biso   1.000  H
  N11      1.0000 0.71680  0.69360  0.16810  Biso   1.000  N
  N12      1.0000 0.28320  0.30640  0.83190  Biso   1.000  N
  H9       1.0000 0.74700  0.65250  0.13100  Biso   1.000  H
  H10      1.0000 0.25300  0.34750  0.86900  Biso   1.000  H
  H11      1.0000 0.65650  0.70680  0.15590  Biso   1.000  H
  H12      1.0000 0.34350  0.29320  0.84410  Biso   1.000  H
  N13      1.0000 0.97120  0.85790  0.52410  Biso   1.000  N
  N14      1.0000 0.02880  0.14210  0.47590  Biso   1.000  N
  N15      1.0000 0.99910  0.92670  0.59990  Biso   1.000  N
  N16      1.0000 0.00090  0.07330  0.40010  Biso   1.000  N
  N17      1.0000 0.88830  0.97050  0.53290  Biso   1.000  N
  N18      1.0000 0.11170  0.02950  0.46710  Biso   1.000  N
  N19      1.0000 0.94250  0.29490  0.89500  Biso   1.000  N
  N20      1.0000 0.05750  0.70510  0.10500  Biso   1.000  N
  H13      1.0000 0.99340  0.30960  0.93300  Biso   1.000  H
  H14      1.0000 0.00660  0.69040  0.06700  Biso   1.000  H
  H15      1.0000 0.89110  0.32720  0.90250  Biso   1.000  H
  H16      1.0000 0.10890  0.67280  0.09750  Biso   1.000  H
  N21      1.0000 0.07930  0.56340  0.90760  Biso   1.000  N
  N22      1.0000 0.92070  0.43660  0.09240  Biso   1.000  N
  H17      1.0000 0.09820  0.51640  0.91120  Biso   1.000  H
  H18      1.0000 0.90180  0.48360  0.08880  Biso   1.000  H
  H19      1.0000 0.05990  0.60620  0.95020  Biso   1.000  H
  H20      1.0000 0.94010  0.39380  0.04980  Biso   1.000  H
  N23      1.0000 0.05160  0.65780  0.53100  Biso   1.000  N
  N24      1.0000 0.94840  0.34220  0.46900  Biso   1.000  N
  N25      1.0000 0.12310  0.55060  0.54660  Biso   1.000  N
  N26      1.0000 0.87690  0.44940  0.45340  Biso   1.000  N
  N27      1.0000 0.02990  0.66210  0.60620  Biso   1.000  N
  N28      1.0000 0.97010  0.33790  0.39380  Biso   1.000  N
  N29      1.0000 0.22880  0.50180  0.18240  Biso   1.000  N
  N30      1.0000 0.77120  0.49820  0.81760  Biso   1.000  N
  H21      1.0000 0.22940  0.54070  0.16200  Biso   1.000  H
  H22      1.0000 0.77060  0.45930  0.83800  Biso   1.000  H
  H23      1.0000 0.24620  0.44920  0.15350  Biso   1.000  H
  H24      1.0000 0.75380  0.55080  0.84650  Biso   1.000  H
  N31      1.0000 0.39310  0.67770  0.83640  Biso   1.000  N
  N32      1.0000 0.60690  0.32230  0.16360  Biso   1.000  N
  H25      1.0000 0.38960  0.70910  0.88830  Biso   1.000  H
  H26      1.0000 0.61040  0.29090  0.11170  Biso   1.000  H
  H27      1.0000 0.41290  0.62490  0.81920  Biso   1.000  H
  H28      1.0000 0.58710  0.37510  0.18080  Biso   1.000  H
  N33      1.0000 0.37130  0.81210  0.55420  Biso   1.000  N
  N34      1.0000 0.62870  0.18790  0.44580  Biso   1.000  N
  N35      1.0000 0.22840  0.86790  0.60970  Biso   1.000  N
  N36      1.0000 0.77160  0.13210  0.39030  Biso   1.000  N
  N37      1.0000 0.24800  0.89060  0.54580  Biso   1.000  N
  N38      1.0000 0.75200  0.10940  0.45420  Biso   1.000  N
  N39      1.0000 0.46670  0.86570  0.22870  Biso   1.000  N
  N40      1.0000 0.53330  0.13430  0.77130  Biso   1.000  N
  H29      1.0000 0.47980  0.81730  0.18850  Biso   1.000  H
  H30      1.0000 0.52020  0.18270  0.81150  Biso   1.000  H
  H31      1.0000 0.47270  0.91560  0.22380  Biso   1.000  H
  H32      1.0000 0.52730  0.08440  0.77620  Biso   1.000  H
  N41      1.0000 0.65240  0.66960  0.94330  Biso   1.000  N
  N42      1.0000 0.34760  0.33040  0.05670  Biso   1.000  N
  H33      1.0000 0.66690  0.66130  0.98680  Biso   1.000  H
  H34      1.0000 0.33310  0.33870  0.01320  Biso   1.000  H
  H35      1.0000 0.59220  0.64760  0.91510  Biso   1.000  H
  H36      1.0000 0.40780  0.35240  0.08490  Biso   1.000  H
  N43      1.0000 0.97670  0.83960  0.76760  Biso   1.000  N
  N44      1.0000 0.02330  0.16040  0.23240  Biso   1.000  N
  N45      1.0000 0.06260  0.89540  0.77040  Biso   1.000  N
  N46      1.0000 0.93740  0.10460  0.22960  Biso   1.000  N
  N47      1.0000 0.02490  0.92360  0.89620  Biso   1.000  N
  N48      1.0000 0.97510  0.07640  0.10380  Biso   1.000  N
  N49      1.0000 0.47370  0.15590  0.98180  Biso   1.000  N
  N50      1.0000 0.52630  0.84410  0.01820  Biso   1.000  N
  H37      1.0000 0.50530  0.15740  0.02590  Biso   1.000  H
  H38      1.0000 0.49470  0.84260  0.97410  Biso   1.000  H
  H39      1.0000 0.50250  0.18610  0.95720  Biso   1.000  H
  H40      1.0000 0.49750  0.81390  0.04280  Biso   1.000  H
  C1       1.0000 0.53000  0.54040  0.25550  Biso   1.000  C
  C2       1.0000 0.47000  0.45960  0.74450  Biso   1.000  C
  C3       1.0000 0.62550  0.56760  0.27190  Biso   1.000  C
  C4       1.0000 0.37450  0.43240  0.72810  Biso   1.000  C
  H41      1.0000 0.66600  0.56170  0.22820  Biso   1.000  H
  H42      1.0000 0.33400  0.43830  0.77180  Biso   1.000  H
  C5       1.0000 0.67750  0.60720  0.35190  Biso   1.000  C
  C6       1.0000 0.32250  0.39280  0.64810  Biso   1.000  C
  H43      1.0000 0.75010  0.62420  0.35940  Biso   1.000  H
  H44      1.0000 0.24990  0.37580  0.64060  Biso   1.000  H
  C7       1.0000 0.62400  0.61960  0.41470  Biso   1.000  C
  C8       1.0000 0.37600  0.38040  0.58530  Biso   1.000  C
  C9       1.0000 0.51800  0.58910  0.40020  Biso   1.000  C
  C10      1.0000 0.48200  0.41090  0.59980  Biso   1.000  C
  H45      1.0000 0.47730  0.59590  0.44400  Biso   1.000  H
  H46      1.0000 0.52270  0.40410  0.55600  Biso   1.000  H
  C11      1.0000 0.47390  0.54980  0.32330  Biso   1.000  C
  C12      1.0000 0.52610  0.45020  0.67670  Biso   1.000  C
  H47      1.0000 0.40250  0.52780  0.31430  Biso   1.000  H
  H48      1.0000 0.59750  0.47220  0.68570  Biso   1.000  H
  C13      1.0000 0.67370  0.67120  0.49620  Biso   1.000  C
  C14      1.0000 0.32630  0.32880  0.50380  Biso   1.000  C
  C15      1.0000 0.71050  0.77620  0.61440  Biso   1.000  C
  C16      1.0000 0.28950  0.22380  0.38560  Biso   1.000  C
  C17      1.0000 0.70170  0.85490  0.68720  Biso   1.000  C
  C18      1.0000 0.29830  0.14510  0.31280  Biso   1.000  C
  C19      1.0000 0.78210  0.92010  0.72140  Biso   1.000  C
  C20      1.0000 0.21790  0.07990  0.27860  Biso   1.000  C
  H49      1.0000 0.84500  0.91430  0.69580  Biso   1.000  H
  H50      1.0000 0.15500  0.08570  0.30420  Biso   1.000  H
  C21      1.0000 0.77590  0.99470  0.79210  Biso   1.000  C
  C22      1.0000 0.22410  0.00530  0.20790  Biso   1.000  C
  H51      1.0000 0.83340  0.03880  0.81410  Biso   1.000  H
  H52      1.0000 0.16660  0.96120  0.18590  Biso   1.000  H
  C23      1.0000 0.68200  0.00400  0.83100  Biso   1.000  C
  C24      1.0000 0.31800  0.99600  0.16900  Biso   1.000  C
  C25      1.0000 0.60080  0.93840  0.79560  Biso   1.000  C
  C26      1.0000 0.39920  0.06160  0.20440  Biso   1.000  C
  H53      1.0000 0.53720  0.94430  0.82010  Biso   1.000  H
  H54      1.0000 0.46280  0.05570  0.17990  Biso   1.000  H
  C27      1.0000 0.60840  0.86440  0.72580  Biso   1.000  C
  C28      1.0000 0.39160  0.13560  0.27420  Biso   1.000  C
  H55      1.0000 0.55120  0.82010  0.70370  Biso   1.000  H
  H56      1.0000 0.44880  0.17990  0.29630  Biso   1.000  H
  C29      1.0000 0.76440  0.73760  0.24590  Biso   1.000  C
  C30      1.0000 0.23560  0.26240  0.75410  Biso   1.000  C
  C31      1.0000 0.85700  0.72050  0.26850  Biso   1.000  C
  C32      1.0000 0.14300  0.27950  0.73150  Biso   1.000  C
  H57      1.0000 0.89190  0.67660  0.23010  Biso   1.000  H
  H58      1.0000 0.10810  0.32340  0.76990  Biso   1.000  H
  C33      1.0000 0.90130  0.76570  0.34630  Biso   1.000  C
  C34      1.0000 0.09870  0.23430  0.65370  Biso   1.000  C
  H59      1.0000 0.96580  0.75150  0.36080  Biso   1.000  H
  H60      1.0000 0.03420  0.24850  0.63920  Biso   1.000  H
  C35      1.0000 0.85420  0.83150  0.40410  Biso   1.000  C
  C36      1.0000 0.14580  0.16850  0.59590  Biso   1.000  C
  C37      1.0000 0.75700  0.84820  0.37990  Biso   1.000  C
  C38      1.0000 0.24300  0.15180  0.62010  Biso   1.000  C
  H61      1.0000 0.72140  0.89200  0.41780  Biso   1.000  H
  H62      1.0000 0.27860  0.10800  0.58220  Biso   1.000  H
  C39      1.0000 0.71370  0.80200  0.30240  Biso   1.000  C
  C40      1.0000 0.28630  0.19800  0.69760  Biso   1.000  C
  H63      1.0000 0.64830  0.81400  0.28710  Biso   1.000  H
  H64      1.0000 0.35170  0.18600  0.71290  Biso   1.000  H
  C41      1.0000 0.90450  0.88530  0.48460  Biso   1.000  C
  C42      1.0000 0.09550  0.11470  0.51540  Biso   1.000  C
  C43      1.0000 0.94680  0.99120  0.60190  Biso   1.000  C
  C44      1.0000 0.05320  0.00880  0.39810  Biso   1.000  C
  C45      1.0000 0.94640  0.07150  0.67580  Biso   1.000  C
  C46      1.0000 0.05360  0.92850  0.32420  Biso   1.000  C
  C47      1.0000 0.02410  0.09730  0.73900  Biso   1.000  C
  C48      1.0000 0.97590  0.90270  0.26100  Biso   1.000  C
  H65      1.0000 0.08020  0.06310  0.73190  Biso   1.000  H
  H66      1.0000 0.91980  0.93690  0.26810  Biso   1.000  H
  C49      1.0000 0.02310  0.16830  0.80950  Biso   1.000  C
  C50      1.0000 0.97690  0.83170  0.19050  Biso   1.000  C
  H67      1.0000 0.07780  0.18290  0.85050  Biso   1.000  H
  H68      1.0000 0.92220  0.81710  0.14950  Biso   1.000  H
  C51      1.0000 0.94330  0.22000  0.82250  Biso   1.000  C
  C52      1.0000 0.05670  0.78000  0.17750  Biso   1.000  C
  C53      1.0000 0.86210  0.19580  0.76130  Biso   1.000  C
  C54      1.0000 0.13790  0.80420  0.23870  Biso   1.000  C
  H69      1.0000 0.80540  0.22940  0.76980  Biso   1.000  H
  H70      1.0000 0.19460  0.77060  0.23020  Biso   1.000  H
  C55      1.0000 0.86450  0.12270  0.68830  Biso   1.000  C
  C56      1.0000 0.13550  0.87730  0.31170  Biso   1.000  C
  H71      1.0000 0.81030  0.10770  0.64690  Biso   1.000  H
  H72      1.0000 0.18970  0.89230  0.35310  Biso   1.000  H
  C57      1.0000 0.72450  0.71730  0.91910  Biso   1.000  C
  C58      1.0000 0.27550  0.28270  0.08090  Biso   1.000  C
  C59      1.0000 0.81870  0.75210  0.96230  Biso   1.000  C
  C60      1.0000 0.18130  0.24790  0.03770  Biso   1.000  C
  H73      1.0000 0.83350  0.74360  0.00960  Biso   1.000  H
  H74      1.0000 0.16650  0.25640  0.99040  Biso   1.000  H
  C61      1.0000 0.89330  0.79930  0.93910  Biso   1.000  C
  C62      1.0000 0.10670  0.20070  0.06090  Biso   1.000  C
  H75      1.0000 0.95720  0.82380  0.97100  Biso   1.000  H
  H76      1.0000 0.04280  0.17620  0.02900  Biso   1.000  H
  C63      1.0000 0.87360  0.81070  0.86800  Biso   1.000  C
  C64      1.0000 0.12640  0.18930  0.13200  Biso   1.000  C
  C65      1.0000 0.77960  0.77630  0.82540  Biso   1.000  C
  C66      1.0000 0.22040  0.22370  0.17460  Biso   1.000  C
  H77      1.0000 0.76500  0.78350  0.77740  Biso   1.000  H
  H78      1.0000 0.23500  0.21650  0.22260  Biso   1.000  H
  C67      1.0000 0.70430  0.73080  0.85030  Biso   1.000  C
  C68      1.0000 0.29570  0.26920  0.14970  Biso   1.000  C
  H79      1.0000 0.63890  0.70900  0.82000  Biso   1.000  H
  H80      1.0000 0.36110  0.29100  0.18000  Biso   1.000  H
  C69      1.0000 0.95550  0.85870  0.84430  Biso   1.000  C
  C70      1.0000 0.04450  0.14130  0.15570  Biso   1.000  C
  C71      1.0000 0.09270  0.94340  0.84910  Biso   1.000  C
  C72      1.0000 0.90730  0.05660  0.15090  Biso   1.000  C
  C73      1.0000 0.18960  0.00370  0.88400  Biso   1.000  C
  C74      1.0000 0.81040  0.99630  0.11600  Biso   1.000  C
  C75      1.0000 0.23750  0.00770  0.95430  Biso   1.000  C
  C76      1.0000 0.76250  0.99230  0.04570  Biso   1.000  C
  H81      1.0000 0.20520  0.97510  0.98040  Biso   1.000  H
  H82      1.0000 0.79480  0.02490  0.01960  Biso   1.000  H
  C77      1.0000 0.33040  0.05760  0.98720  Biso   1.000  C
  C78      1.0000 0.66960  0.94240  0.01280  Biso   1.000  C
  H83      1.0000 0.36190  0.05890  0.03550  Biso   1.000  H
  H84      1.0000 0.63810  0.94110  0.96450  Biso   1.000  H
  C79      1.0000 0.37800  0.10550  0.95100  Biso   1.000  C
  C80      1.0000 0.62200  0.89450  0.04900  Biso   1.000  C
  C81      1.0000 0.33150  0.10100  0.87880  Biso   1.000  C
  C82      1.0000 0.66850  0.89900  0.12120  Biso   1.000  C
  H85      1.0000 0.36480  0.13270  0.85220  Biso   1.000  H
  H86      1.0000 0.63520  0.86730  0.14780  Biso   1.000  H
  C83      1.0000 0.23880  0.05130  0.84650  Biso   1.000  C
  C84      1.0000 0.76120  0.94870  0.15350  Biso   1.000  C
  H87      1.0000 0.20750  0.04930  0.79790  Biso   1.000  H
  H88      1.0000 0.79250  0.95070  0.20210  Biso   1.000  H
  C85      1.0000 0.08020  0.57000  0.83600  Biso   1.000  C
  C86      1.0000 0.91980  0.43000  0.16400  Biso   1.000  C
  C87      1.0000 0.08210  0.65130  0.83420  Biso   1.000  C
  C88      1.0000 0.91790  0.34870  0.16580  Biso   1.000  C
  H89      1.0000 0.08570  0.70250  0.88340  Biso   1.000  H
  H90      1.0000 0.91430  0.29750  0.11660  Biso   1.000  H
  C89      1.0000 0.07880  0.65920  0.75870  Biso   1.000  C
  C90      1.0000 0.92120  0.34080  0.24130  Biso   1.000  C
  H91      1.0000 0.07730  0.71500  0.75800  Biso   1.000  H
  H92      1.0000 0.92270  0.28500  0.24200  Biso   1.000  H
  C91      1.0000 0.07780  0.58660  0.68900  Biso   1.000  C
  C92      1.0000 0.92220  0.41340  0.31100  Biso   1.000  C
  C93      1.0000 0.10080  0.51860  0.69890  Biso   1.000  C
  C94      1.0000 0.89920  0.48140  0.30110  Biso   1.000  C
  H93      1.0000 0.11510  0.46890  0.65270  Biso   1.000  H
  H94      1.0000 0.88490  0.53110  0.34730  Biso   1.000  H
  C95      1.0000 0.10590  0.51400  0.77280  Biso   1.000  C
  C96      1.0000 0.89410  0.48600  0.22720  Biso   1.000  C
  H95      1.0000 0.13120  0.46390  0.77500  Biso   1.000  H
  H96      1.0000 0.86880  0.53610  0.22500  Biso   1.000  H
  C97      1.0000 0.07520  0.59870  0.61440  Biso   1.000  C
  C98      1.0000 0.92480  0.40130  0.38560  Biso   1.000  C
  C99      1.0000 0.10730  0.59180  0.49760  Biso   1.000  C
  C100     1.0000 0.89270  0.40820  0.50240  Biso   1.000  C
  C101     1.0000 0.14640  0.57070  0.41960  Biso   1.000  C
  C102     1.0000 0.85360  0.42930  0.58040  Biso   1.000  C
  C103     1.0000 0.17320  0.48910  0.37180  Biso   1.000  C
  C104     1.0000 0.82680  0.51090  0.62820  Biso   1.000  C
  H97      1.0000 0.17690  0.44750  0.39400  Biso   1.000  H
  H98      1.0000 0.82310  0.55250  0.60600  Biso   1.000  H
  C105     1.0000 0.19500  0.46570  0.29280  Biso   1.000  C
  C106     1.0000 0.80500  0.53430  0.70720  Biso   1.000  C
  H99      1.0000 0.20570  0.40670  0.26080  Biso   1.000  H
  H100     1.0000 0.79430  0.59330  0.73920  Biso   1.000  H
  C107     1.0000 0.20090  0.52310  0.25920  Biso   1.000  C
  C108     1.0000 0.79910  0.47690  0.74080  Biso   1.000  C
  C109     1.0000 0.17470  0.60150  0.30320  Biso   1.000  C
  C110     1.0000 0.82530  0.39850  0.69680  Biso   1.000  C
  H101     1.0000 0.17310  0.64300  0.28070  Biso   1.000  H
  H102     1.0000 0.82690  0.35700  0.71930  Biso   1.000  H
  C111     1.0000 0.14930  0.62460  0.38250  Biso   1.000  C
  C112     1.0000 0.85070  0.37540  0.61750  Biso   1.000  C
  H103     1.0000 0.13300  0.68260  0.41220  Biso   1.000  H
  H104     1.0000 0.86700  0.31740  0.58780  Biso   1.000  H
  C113     1.0000 0.36670  0.71220  0.78010  Biso   1.000  C
  C114     1.0000 0.63330  0.28780  0.21990  Biso   1.000  C
  C115     1.0000 0.33550  0.79570  0.80760  Biso   1.000  C
  C116     1.0000 0.66450  0.20430  0.19240  Biso   1.000  C
  H105     1.0000 0.32840  0.82900  0.86330  Biso   1.000  H
  H106     1.0000 0.67160  0.17100  0.13670  Biso   1.000  H
  C117     1.0000 0.31460  0.82940  0.75140  Biso   1.000  C
  C118     1.0000 0.68540  0.17060  0.24860  Biso   1.000  C
  H107     1.0000 0.29470  0.88680  0.77020  Biso   1.000  H
  H108     1.0000 0.70530  0.11320  0.22980  Biso   1.000  H
  C119     1.0000 0.32170  0.78310  0.66990  Biso   1.000  C
  C120     1.0000 0.67830  0.21690  0.33010  Biso   1.000  C
  C121     1.0000 0.35200  0.69790  0.64290  Biso   1.000  C
  C122     1.0000 0.64800  0.30210  0.35710  Biso   1.000  C
  H109     1.0000 0.35630  0.66390  0.58690  Biso   1.000  H
  H110     1.0000 0.64370  0.33610  0.41310  Biso   1.000  H
  C123     1.0000 0.37550  0.66330  0.69790  Biso   1.000  C
  C124     1.0000 0.62450  0.33670  0.30210  Biso   1.000  C
  H111     1.0000 0.39740  0.60660  0.67950  Biso   1.000  H
  H112     1.0000 0.60260  0.39340  0.32050  Biso   1.000  H
  C125     1.0000 0.30500  0.82050  0.61270  Biso   1.000  C
  C126     1.0000 0.69500  0.17950  0.38730  Biso   1.000  C
  C127     1.0000 0.33210  0.85680  0.51480  Biso   1.000  C
  C128     1.0000 0.66790  0.14320  0.48520  Biso   1.000  C
  C129     1.0000 0.37210  0.86120  0.44330  Biso   1.000  C
  C130     1.0000 0.62790  0.13880  0.55670  Biso   1.000  C
  C131     1.0000 0.39470  0.78550  0.38040  Biso   1.000  C
  C132     1.0000 0.60530  0.21450  0.61960  Biso   1.000  C
  H113     1.0000 0.38850  0.73140  0.38520  Biso   1.000  H
  H114     1.0000 0.61150  0.26860  0.61480  Biso   1.000  H
  C133     1.0000 0.42660  0.78930  0.30990  Biso   1.000  C
  C134     1.0000 0.57340  0.21070  0.69010  Biso   1.000  C
  H115     1.0000 0.44190  0.73690  0.26720  Biso   1.000  H
  H116     1.0000 0.55810  0.26310  0.73280  Biso   1.000  H
  C135     1.0000 0.43670  0.86360  0.29970  Biso   1.000  C
  C136     1.0000 0.56330  0.13640  0.70030  Biso   1.000  C
  C137     1.0000 0.41950  0.93930  0.36310  Biso   1.000  C
  C138     1.0000 0.58050  0.06070  0.63690  Biso   1.000  C
  H117     1.0000 0.42970  0.99320  0.35820  Biso   1.000  H
  H118     1.0000 0.57030  0.00680  0.64180  Biso   1.000  H
  C139     1.0000 0.38780  0.93880  0.43400  Biso   1.000  C
  C140     1.0000 0.61220  0.06120  0.56600  Biso   1.000  C
  H119     1.0000 0.37650  0.99240  0.47710  Biso   1.000  H
  H120     1.0000 0.62350  0.00760  0.52290  Biso   1.000  H
  O1       1.0000 0.48470  0.67950  0.08670  Biso   1.000  O
  O2       1.0000 0.51530  0.32050  0.91330  Biso   1.000  O
  O3       1.0000 0.85190  0.55450  0.01060  Biso   1.000  O
  O4       1.0000 0.14810  0.44550  0.98940  Biso   1.000  O
  O5       1.0000 0.25030  0.61080  0.09190  Biso   1.000  O
  O6       1.0000 0.74970  0.38920  0.90810  Biso   1.000  O
  O7       1.0000 0.28800  0.72120  0.99310  Biso   1.000  O
  O8       1.0000 0.71200  0.27880  0.00690  Biso   1.000  O
  O9       1.0000 0.80300  0.57430  0.03410  Biso   1.000  O
  O10      1.0000 0.19700  0.42570  0.96590  Biso   1.000  O
