data_image0
_cell_length_a       4.1844
_cell_length_b       13.46
_cell_length_c       15.998
_cell_angle_alpha    113.74
_cell_angle_beta     92.58
_cell_angle_gamma    98.12

_symmetry_space_group_name_H-M    "P 1"
_symmetry_int_tables_number       1

loop_
  _symmetry_equiv_pos_as_xyz
  'x, y, z'

loop_
  _atom_site_label
  _atom_site_occupancy
  _atom_site_fract_x
  _atom_site_fract_y
  _atom_site_fract_z
  _atom_site_thermal_displace_type
  _atom_site_B_iso_or_equiv
  _atom_site_type_symbol
  I1       1.0000 0.53440  0.91519  0.29113  Biso   1.000  I
  I2       1.0000 0.46560  0.08481  0.70887  Biso   1.000  I
  I3       1.0000 0.95256  0.85977  0.04195  Biso   1.000  I
  I4       1.0000 0.04744  0.14023  0.95805  Biso   1.000  I
  I5       1.0000 0.62349  0.17446  0.20089  Biso   1.000  I
  I6       1.0000 0.37651  0.82554  0.79911  Biso   1.000  I
  Cu1      1.0000 0.01240  0.80796  0.30162  Biso   1.000  Cu
  Cu2      1.0000 0.98760  0.19204  0.69838  Biso   1.000  Cu
  Cu3      1.0000 0.51440  0.95951  0.14724  Biso   1.000  Cu
  Cu4      1.0000 0.48560  0.04049  0.85276  Biso   1.000  Cu
  Cu5      1.0000 0.06170  0.07906  0.09785  Biso   1.000  Cu
  Cu6      1.0000 0.93830  0.92094  0.90215  Biso   1.000  Cu
  N1       1.0000 0.88490  0.77220  0.41050  Biso   1.000  N
  N2       1.0000 0.11510  0.22780  0.58950  Biso   1.000  N
  N3       1.0000 0.81850  0.64270  0.22990  Biso   1.000  N
  N4       1.0000 0.18150  0.35730  0.77010  Biso   1.000  N
  C1       1.0000 0.92100  0.83550  0.49980  Biso   1.000  C
  C2       1.0000 0.07900  0.16450  0.50020  Biso   1.000  C
  H1       1.0000 0.05880  0.90520  0.52100  Biso   1.000  H
  H2       1.0000 0.94120  0.09480  0.47900  Biso   1.000  H
  C3       1.0000 0.77100  0.80700  0.56500  Biso   1.000  C
  C4       1.0000 0.22900  0.19300  0.43500  Biso   1.000  C
  H3       1.0000 0.80370  0.85620  0.62820  Biso   1.000  H
  H4       1.0000 0.19630  0.14380  0.37180  Biso   1.000  H
  C5       1.0000 0.57400  0.70480  0.53480  Biso   1.000  C
  C6       1.0000 0.42600  0.29520  0.46520  Biso   1.000  C
  H5       1.0000 0.46810  0.68230  0.57710  Biso   1.000  H
  H6       1.0000 0.53190  0.31770  0.42290  Biso   1.000  H
  C7       1.0000 0.53330  0.63520  0.44110  Biso   1.000  C
  C8       1.0000 0.46670  0.36480  0.55890  Biso   1.000  C
  C9       1.0000 0.33620  0.52800  0.40390  Biso   1.000  C
  C10      1.0000 0.66380  0.47200  0.59610  Biso   1.000  C
  H7       1.0000 0.22200  0.50330  0.44390  Biso   1.000  H
  H8       1.0000 0.77800  0.49670  0.55610  Biso   1.000  H
  C11      1.0000 0.30810  0.46100  0.31350  Biso   1.000  C
  C12      1.0000 0.69190  0.53900  0.68650  Biso   1.000  C
  H9       1.0000 0.17800  0.38980  0.29110  Biso   1.000  H
  H10      1.0000 0.82200  0.61020  0.70890  Biso   1.000  H
  C13      1.0000 0.47190  0.49640  0.25170  Biso   1.000  C
  C14      1.0000 0.52810  0.50360  0.74830  Biso   1.000  C
  C15      1.0000 0.45500  0.43070  0.15760  Biso   1.000  C
  C16      1.0000 0.54500  0.56930  0.84240  Biso   1.000  C
  H11      1.0000 0.33210  0.35810  0.13210  Biso   1.000  H
  H12      1.0000 0.66790  0.64190  0.86790  Biso   1.000  H
  C17      1.0000 0.61200  0.47090  0.10370  Biso   1.000  C
  C18      1.0000 0.38800  0.52910  0.89630  Biso   1.000  C
  H13      1.0000 0.60020  0.42680  0.03960  Biso   1.000  H
  H14      1.0000 0.39980  0.57320  0.96040  Biso   1.000  H
  C19      1.0000 0.79200  0.57710  0.14150  Biso   1.000  C
  C20      1.0000 0.20800  0.42290  0.85850  Biso   1.000  C
  H15      1.0000 0.90120  0.60370  0.10190  Biso   1.000  H
  H16      1.0000 0.09880  0.39630  0.89810  Biso   1.000  H
  C21      1.0000 0.66260  0.60240  0.28440  Biso   1.000  C
  C22      1.0000 0.33740  0.39760  0.71560  Biso   1.000  C
  C23      1.0000 0.69170  0.67150  0.38140  Biso   1.000  C
  C24      1.0000 0.30830  0.32850  0.61860  Biso   1.000  C
