data_image0
_cell_length_a       4.192
_cell_length_b       13.47
_cell_length_c       16.027
_cell_angle_alpha    113.73
_cell_angle_beta     92.64
_cell_angle_gamma    98.1

_symmetry_space_group_name_H-M    "P 1"
_symmetry_int_tables_number       1

loop_
  _symmetry_equiv_pos_as_xyz
  'x, y, z'

loop_
  _atom_site_label
  _atom_site_occupancy
  _atom_site_fract_x
  _atom_site_fract_y
  _atom_site_fract_z
  _atom_site_thermal_displace_type
  _atom_site_B_iso_or_equiv
  _atom_site_type_symbol
  I1       1.0000 0.04715  0.14020  0.45801  Biso   1.000  I
  I2       1.0000 0.95285  0.85980  0.54199  Biso   1.000  I
  I3       1.0000 0.37603  0.82555  0.29918  Biso   1.000  I
  I4       1.0000 0.62397  0.17445  0.70082  Biso   1.000  I
  I5       1.0000 0.46501  0.08495  0.20901  Biso   1.000  I
  I6       1.0000 0.53499  0.91505  0.79099  Biso   1.000  I
  Cu1      1.0000 0.93680  0.92120  0.40208  Biso   1.000  Cu
  Cu2      1.0000 0.06320  0.07880  0.59792  Biso   1.000  Cu
  Cu3      1.0000 0.48550  0.04069  0.35299  Biso   1.000  Cu
  Cu4      1.0000 0.51450  0.95931  0.64701  Biso   1.000  Cu
  Cu5      1.0000 0.98700  0.19225  0.19829  Biso   1.000  Cu
  Cu6      1.0000 0.01300  0.80775  0.80171  Biso   1.000  Cu
  N1       1.0000 0.11400  0.22720  0.08970  Biso   1.000  N
  N2       1.0000 0.88600  0.77280  0.91030  Biso   1.000  N
  N3       1.0000 0.18200  0.35720  0.26940  Biso   1.000  N
  N4       1.0000 0.81800  0.64280  0.73060  Biso   1.000  N
  C1       1.0000 0.21400  0.42240  0.35740  Biso   1.000  C
  C2       1.0000 0.78600  0.57760  0.64260  Biso   1.000  C
  H1       1.0000 0.11320  0.39410  0.39570  Biso   1.000  H
  H2       1.0000 0.88680  0.60590  0.60430  Biso   1.000  H
  C3       1.0000 0.38300  0.52930  0.39820  Biso   1.000  C
  C4       1.0000 0.61700  0.47070  0.60180  Biso   1.000  C
  H3       1.0000 0.38690  0.57230  0.46050  Biso   1.000  H
  H4       1.0000 0.61310  0.42770  0.53950  Biso   1.000  H
  C5       1.0000 0.54400  0.56890  0.34280  Biso   1.000  C
  C6       1.0000 0.45600  0.43110  0.65720  Biso   1.000  C
  H5       1.0000 0.66900  0.63920  0.36790  Biso   1.000  H
  H6       1.0000 0.33100  0.36080  0.63210  Biso   1.000  H
  C7       1.0000 0.52300  0.50480  0.24900  Biso   1.000  C
  C8       1.0000 0.47700  0.49520  0.75100  Biso   1.000  C
  C9       1.0000 0.70100  0.53650  0.18640  Biso   1.000  C
  C10      1.0000 0.29900  0.46350  0.81360  Biso   1.000  C
  H7       1.0000 0.84880  0.60220  0.20930  Biso   1.000  H
  H8       1.0000 0.15120  0.39780  0.79070  Biso   1.000  H
  C11      1.0000 0.66000  0.47330  0.09520  Biso   1.000  C
  C12      1.0000 0.34000  0.52670  0.90480  Biso   1.000  C
  H9       1.0000 0.75810  0.50040  0.05600  Biso   1.000  H
  H10      1.0000 0.24190  0.49960  0.94400  Biso   1.000  H
  C13      1.0000 0.46700  0.36490  0.05780  Biso   1.000  C
  C14      1.0000 0.53300  0.63510  0.94220  Biso   1.000  C
  C15      1.0000 0.41700  0.29600  0.96600  Biso   1.000  C
  C16      1.0000 0.58300  0.70400  0.03400  Biso   1.000  C
  H11      1.0000 0.51340  0.31850  0.92400  Biso   1.000  H
  H12      1.0000 0.48660  0.68150  0.07600  Biso   1.000  H
  C17      1.0000 0.22300  0.19350  0.93590  Biso   1.000  C
  C18      1.0000 0.77700  0.80650  0.06410  Biso   1.000  C
  H13      1.0000 0.18930  0.14570  0.87400  Biso   1.000  H
  H14      1.0000 0.81070  0.85430  0.12600  Biso   1.000  H
  C19      1.0000 0.08500  0.16510  0.99930  Biso   1.000  C
  C20      1.0000 0.91500  0.83490  0.00070  Biso   1.000  C
  H15      1.0000 0.95720  0.09560  0.97820  Biso   1.000  H
  H16      1.0000 0.04280  0.90440  0.02180  Biso   1.000  H
  C21      1.0000 0.31400  0.32730  0.11700  Biso   1.000  C
  C22      1.0000 0.68600  0.67270  0.88300  Biso   1.000  C
  C23      1.0000 0.33000  0.39840  0.21730  Biso   1.000  C
  C24      1.0000 0.67000  0.60160  0.78270  Biso   1.000  C
