data_image0
_cell_length_a       9.8888
_cell_length_b       10.7259
_cell_length_c       13.1808
_cell_angle_alpha    69.45
_cell_angle_beta     82.737
_cell_angle_gamma    70.075

_symmetry_space_group_name_H-M    "P 1"
_symmetry_int_tables_number       1

loop_
  _symmetry_equiv_pos_as_xyz
  'x, y, z'

loop_
  _atom_site_label
  _atom_site_occupancy
  _atom_site_fract_x
  _atom_site_fract_y
  _atom_site_fract_z
  _atom_site_thermal_displace_type
  _atom_site_B_iso_or_equiv
  _atom_site_type_symbol
  Cu1      1.0000 0.40027  0.58871  0.08625  Biso   1.000  Cu
  Cu2      1.0000 0.59973  0.41129  0.91375  Biso   1.000  Cu
  Cu3      1.0000 0.03274  0.83752  0.98414  Biso   1.000  Cu
  Cu4      1.0000 0.96726  0.16248  0.01586  Biso   1.000  Cu
  Cu5      1.0000 0.15483  0.53354  0.05125  Biso   1.000  Cu
  Cu6      1.0000 0.84517  0.46646  0.94875  Biso   1.000  Cu
  Cu7      1.0000 0.15312  0.70915  0.18339  Biso   1.000  Cu
  Cu8      1.0000 0.84688  0.29085  0.81661  Biso   1.000  Cu
  S1       1.0000 0.16403  0.91962  0.07883  Biso   1.000  S
  S2       1.0000 0.83597  0.08038  0.92117  Biso   1.000  S
  S3       1.0000 0.35015  0.04639  0.90221  Biso   1.000  S
  S4       1.0000 0.64985  0.95361  0.09779  Biso   1.000  S
  S5       1.0000 0.32517  0.56377  0.92703  Biso   1.000  S
  S6       1.0000 0.67483  0.43623  0.07297  Biso   1.000  S
  S7       1.0000 0.34792  0.77038  0.70750  Biso   1.000  S
  S8       1.0000 0.65208  0.22962  0.29250  Biso   1.000  S
  S9       1.0000 0.91965  0.67158  0.04980  Biso   1.000  S
  S10      1.0000 0.08035  0.32842  0.95020  Biso   1.000  S
  S11      1.0000 0.75967  0.57429  0.25791  Biso   1.000  S
  S12      1.0000 0.24033  0.42571  0.74209  Biso   1.000  S
  S13      1.0000 0.33675  0.50400  0.26153  Biso   1.000  S
  S14      1.0000 0.66325  0.49600  0.73847  Biso   1.000  S
  S15      1.0000 0.24920  0.25320  0.39916  Biso   1.000  S
  S16      1.0000 0.75080  0.74680  0.60084  Biso   1.000  S
  O1       1.0000 0.44550  0.83900  0.42330  Biso   1.000  O
  O2       1.0000 0.55450  0.16100  0.57670  Biso   1.000  O
  O3       1.0000 0.82120  0.21470  0.56770  Biso   1.000  O
  O4       1.0000 0.17880  0.78530  0.43230  Biso   1.000  O
  N1       1.0000 0.42130  0.77890  0.01220  Biso   1.000  N
  N2       1.0000 0.57870  0.22110  0.98780  Biso   1.000  N
  N3       1.0000 0.14950  0.83350  0.84720  Biso   1.000  N
  N4       1.0000 0.85050  0.16650  0.15280  Biso   1.000  N
  N5       1.0000 0.97250  0.66900  0.24590  Biso   1.000  N
  N6       1.0000 0.02750  0.33100  0.75410  Biso   1.000  N
  N7       1.0000 0.18460  0.38090  0.19540  Biso   1.000  N
  N8       1.0000 0.81540  0.61910  0.80460  Biso   1.000  N
  C1       1.0000 0.32350  0.89640  0.00260  Biso   1.000  C
  C2       1.0000 0.67650  0.10360  0.99740  Biso   1.000  C
  C3       1.0000 0.51600  0.94030  0.85830  Biso   1.000  C
  C4       1.0000 0.48400  0.05970  0.14170  Biso   1.000  C
  H1       1.0000 0.50730  0.94410  0.78470  Biso   1.000  H
  H2       1.0000 0.49270  0.05590  0.21530  Biso   1.000  H
  H3       1.0000 0.59480  0.97360  0.86080  Biso   1.000  H
  H4       1.0000 0.40520  0.02640  0.13920  Biso   1.000  H
  C5       1.0000 0.54290  0.78830  0.93760  Biso   1.000  C
  C6       1.0000 0.45710  0.21170  0.06240  Biso   1.000  C
  H5       1.0000 0.55720  0.72500  0.89680  Biso   1.000  H
  H6       1.0000 0.44280  0.27500  0.10320  Biso   1.000  H
  H7       1.0000 0.62960  0.75940  0.97850  Biso   1.000  H
  H8       1.0000 0.37040  0.24060  0.02150  Biso   1.000  H
  C7       1.0000 0.11630  0.96220  0.75330  Biso   1.000  C
  C8       1.0000 0.88370  0.03780  0.24670  Biso   1.000  C
  H9       1.0000 0.11730  0.03980  0.77450  Biso   1.000  H
  H10      1.0000 0.88270  0.96020  0.22550  Biso   1.000  H
  H11      1.0000 0.02060  0.98350  0.72770  Biso   1.000  H
  H12      1.0000 0.97940  0.01650  0.27230  Biso   1.000  H
  C9       1.0000 0.22330  0.94670  0.66360  Biso   1.000  C
  C10      1.0000 0.77670  0.05330  0.33640  Biso   1.000  C
  H13      1.0000 0.27430  0.01440  0.64780  Biso   1.000  H
  H14      1.0000 0.72570  0.98560  0.35220  Biso   1.000  H
  H15      1.0000 0.17460  0.96320  0.59850  Biso   1.000  H
  H16      1.0000 0.82540  0.03680  0.40150  Biso   1.000  H
  C11      1.0000 0.25840  0.73370  0.83340  Biso   1.000  C
  C12      1.0000 0.74160  0.26630  0.16660  Biso   1.000  C
  C13      1.0000 0.89590  0.64360  0.18880  Biso   1.000  C
  C14      1.0000 0.10410  0.35640  0.81120  Biso   1.000  C
  C15      1.0000 0.79970  0.59790  0.37810  Biso   1.000  C
  C16      1.0000 0.20030  0.40210  0.62190  Biso   1.000  C
  H17      1.0000 0.72240  0.67370  0.39360  Biso   1.000  H
  H18      1.0000 0.27760  0.32630  0.60640  Biso   1.000  H
  H19      1.0000 0.80950  0.51260  0.43950  Biso   1.000  H
  H20      1.0000 0.19050  0.48740  0.56050  Biso   1.000  H
  C17      1.0000 0.93080  0.63050  0.36020  Biso   1.000  C
  C18      1.0000 0.06920  0.36950  0.63980  Biso   1.000  C
  H21      1.0000 0.00670  0.54970  0.40160  Biso   1.000  H
  H22      1.0000 0.99330  0.45030  0.59840  Biso   1.000  H
  H23      1.0000 0.91990  0.70760  0.38600  Biso   1.000  H
  H24      1.0000 0.08010  0.29240  0.61400  Biso   1.000  H
  C19      1.0000 0.25020  0.38330  0.27180  Biso   1.000  C
  C20      1.0000 0.74980  0.61670  0.72820  Biso   1.000  C
  C21      1.0000 0.12060  0.26920  0.22860  Biso   1.000  C
  C22      1.0000 0.87940  0.73080  0.77140  Biso   1.000  C
  H25      1.0000 0.16990  0.20110  0.19250  Biso   1.000  H
  H26      1.0000 0.83010  0.79890  0.80750  Biso   1.000  H
  H27      1.0000 0.02040  0.30800  0.20710  Biso   1.000  H
  H28      1.0000 0.97960  0.69200  0.79290  Biso   1.000  H
  C23      1.0000 0.13030  0.19790  0.34850  Biso   1.000  C
  C24      1.0000 0.86970  0.80210  0.65150  Biso   1.000  C
  H29      1.0000 0.16590  0.09680  0.36520  Biso   1.000  H
  H30      1.0000 0.83410  0.90320  0.63480  Biso   1.000  H
  H31      1.0000 0.03590  0.22280  0.38160  Biso   1.000  H
  H32      1.0000 0.96410  0.77720  0.61840  Biso   1.000  H
