data_image0
_cell_length_a       10.4816
_cell_length_b       16.7672
_cell_length_c       16.053
_cell_angle_alpha    90
_cell_angle_beta     106.582
_cell_angle_gamma    90

_symmetry_space_group_name_H-M    "P 1"
_symmetry_int_tables_number       1

loop_
  _symmetry_equiv_pos_as_xyz
  'x, y, z'

loop_
  _atom_site_label
  _atom_site_occupancy
  _atom_site_fract_x
  _atom_site_fract_y
  _atom_site_fract_z
  _atom_site_thermal_displace_type
  _atom_site_B_iso_or_equiv
  _atom_site_type_symbol
  Cu1      1.0000 0.70152  0.05668  0.58221  Biso   1.000  Cu
  Cu2      1.0000 0.29848  0.55668  0.91779  Biso   1.000  Cu
  Cu3      1.0000 0.29848  0.94332  0.41779  Biso   1.000  Cu
  Cu4      1.0000 0.70152  0.44332  0.08221  Biso   1.000  Cu
  Cu5      1.0000 0.15325  0.96103  0.05653  Biso   1.000  Cu
  Cu6      1.0000 0.84675  0.46103  0.44347  Biso   1.000  Cu
  Cu7      1.0000 0.84675  0.03897  0.94347  Biso   1.000  Cu
  Cu8      1.0000 0.15325  0.53897  0.55653  Biso   1.000  Cu
  O1       1.0000 0.67479  0.18973  0.56910  Biso   1.000  O
  O2       1.0000 0.32521  0.68973  0.93090  Biso   1.000  O
  O3       1.0000 0.32521  0.81027  0.43090  Biso   1.000  O
  O4       1.0000 0.67479  0.31027  0.06910  Biso   1.000  O
  O5       1.0000 0.11047  0.82904  0.03508  Biso   1.000  O
  O6       1.0000 0.88953  0.32904  0.46492  Biso   1.000  O
  O7       1.0000 0.88953  0.17096  0.96492  Biso   1.000  O
  O8       1.0000 0.11047  0.67096  0.53508  Biso   1.000  O
  H1       1.0000 0.04730  0.82270  0.99160  Biso   1.000  H
  H2       1.0000 0.95270  0.32270  0.50840  Biso   1.000  H
  H3       1.0000 0.95270  0.17730  0.00840  Biso   1.000  H
  H4       1.0000 0.04730  0.67730  0.49160  Biso   1.000  H
  H5       1.0000 0.16880  0.80160  0.03550  Biso   1.000  H
  H6       1.0000 0.83120  0.30160  0.46450  Biso   1.000  H
  H7       1.0000 0.83120  0.19840  0.96450  Biso   1.000  H
  H8       1.0000 0.16880  0.69840  0.53550  Biso   1.000  H
  O9       1.0000 0.65405  0.25559  0.44552  Biso   1.000  O
  O10      1.0000 0.34595  0.75559  0.05448  Biso   1.000  O
  O11      1.0000 0.34595  0.74441  0.55448  Biso   1.000  O
  O12      1.0000 0.65405  0.24441  0.94552  Biso   1.000  O
  O13      1.0000 0.67060  0.29065  0.77829  Biso   1.000  O
  O14      1.0000 0.32940  0.79065  0.72171  Biso   1.000  O
  O15      1.0000 0.32940  0.70935  0.22171  Biso   1.000  O
  O16      1.0000 0.67060  0.20935  0.27829  Biso   1.000  O
  H9       1.0000 0.76420  0.28020  0.77550  Biso   1.000  H
  H10      1.0000 0.23580  0.78020  0.72450  Biso   1.000  H
  H11      1.0000 0.23580  0.71980  0.22450  Biso   1.000  H
  H12      1.0000 0.76420  0.21980  0.27550  Biso   1.000  H
  H13      1.0000 0.68070  0.28190  0.83150  Biso   1.000  H
  H14      1.0000 0.31930  0.78190  0.66850  Biso   1.000  H
  H15      1.0000 0.31930  0.71810  0.16850  Biso   1.000  H
  H16      1.0000 0.68070  0.21810  0.33150  Biso   1.000  H
  O17      1.0000 0.08191  0.25782  0.59493  Biso   1.000  O
  O18      1.0000 0.91809  0.75782  0.90507  Biso   1.000  O
  O19      1.0000 0.91809  0.74218  0.40507  Biso   1.000  O
  O20      1.0000 0.08191  0.24218  0.09493  Biso   1.000  O
  O21      1.0000 0.87170  0.25832  0.69802  Biso   1.000  O
  O22      1.0000 0.12830  0.75832  0.80198  Biso   1.000  O
  O23      1.0000 0.12830  0.74168  0.30198  Biso   1.000  O
  O24      1.0000 0.87170  0.24168  0.19802  Biso   1.000  O
  H17      1.0000 0.81800  0.22970  0.65020  Biso   1.000  H
  H18      1.0000 0.18200  0.72970  0.84980  Biso   1.000  H
  H19      1.0000 0.18200  0.77030  0.34980  Biso   1.000  H
  H20      1.0000 0.81800  0.27030  0.15020  Biso   1.000  H
  H21      1.0000 0.94150  0.25240  0.68450  Biso   1.000  H
  H22      1.0000 0.05850  0.75240  0.81550  Biso   1.000  H
  H23      1.0000 0.05850  0.74760  0.31550  Biso   1.000  H
  H24      1.0000 0.94150  0.24760  0.18450  Biso   1.000  H
  O25      1.0000 0.28168  0.24587  0.68661  Biso   1.000  O
  O26      1.0000 0.71832  0.74587  0.81339  Biso   1.000  O
  O27      1.0000 0.71832  0.75413  0.31339  Biso   1.000  O
  O28      1.0000 0.28168  0.25413  0.18661  Biso   1.000  O
  O29      1.0000 0.15633  0.23894  0.30079  Biso   1.000  O
  O30      1.0000 0.84367  0.73894  0.19921  Biso   1.000  O
  O31      1.0000 0.84367  0.76106  0.69921  Biso   1.000  O
  O32      1.0000 0.15633  0.26106  0.80079  Biso   1.000  O
  H25      1.0000 0.19940  0.24370  0.26570  Biso   1.000  H
  H26      1.0000 0.80060  0.74370  0.23430  Biso   1.000  H
  H27      1.0000 0.80060  0.75630  0.73430  Biso   1.000  H
  H28      1.0000 0.19940  0.25630  0.76570  Biso   1.000  H
  N1       1.0000 0.77860  0.03875  0.48972  Biso   1.000  N
  N2       1.0000 0.22140  0.53875  0.01028  Biso   1.000  N
  N3       1.0000 0.22140  0.96125  0.51028  Biso   1.000  N
  N4       1.0000 0.77860  0.46125  0.98972  Biso   1.000  N
  N5       1.0000 0.07710  0.97679  0.15038  Biso   1.000  N
  N6       1.0000 0.92290  0.47679  0.34962  Biso   1.000  N
  N7       1.0000 0.92290  0.02321  0.84962  Biso   1.000  N
  N8       1.0000 0.07710  0.52321  0.65038  Biso   1.000  N
  N9       1.0000 0.62950  0.03844  0.67684  Biso   1.000  N
  N10      1.0000 0.37050  0.53844  0.82316  Biso   1.000  N
  N11      1.0000 0.37050  0.96156  0.32316  Biso   1.000  N
  N12      1.0000 0.62950  0.46156  0.17684  Biso   1.000  N
  N13      1.0000 0.25420  0.98074  0.97584  Biso   1.000  N
  N14      1.0000 0.74580  0.48074  0.52416  Biso   1.000  N
  N15      1.0000 0.74580  0.01926  0.02416  Biso   1.000  N
  N16      1.0000 0.25420  0.51926  0.47584  Biso   1.000  N
  C1       1.0000 0.60750  0.22359  0.50069  Biso   1.000  C
  C2       1.0000 0.39250  0.72359  0.99931  Biso   1.000  C
  C3       1.0000 0.39250  0.77641  0.49931  Biso   1.000  C
  C4       1.0000 0.60750  0.27641  0.00069  Biso   1.000  C
  C5       1.0000 0.45830  0.22786  0.48426  Biso   1.000  C
  C6       1.0000 0.54170  0.72786  0.01574  Biso   1.000  C
  C7       1.0000 0.54170  0.77214  0.51574  Biso   1.000  C
  C8       1.0000 0.45830  0.27214  0.98426  Biso   1.000  C
  C9       1.0000 0.40310  0.23334  0.55353  Biso   1.000  C
  C10      1.0000 0.59690  0.73334  0.94647  Biso   1.000  C
  C11      1.0000 0.59690  0.76666  0.44647  Biso   1.000  C
  C12      1.0000 0.40310  0.26666  0.05353  Biso   1.000  C
  H29      1.0000 0.45760  0.23150  0.61050  Biso   1.000  H
  H30      1.0000 0.54240  0.73150  0.88950  Biso   1.000  H
  H31      1.0000 0.54240  0.76850  0.38950  Biso   1.000  H
  H32      1.0000 0.45760  0.26850  0.11050  Biso   1.000  H
  C13      1.0000 0.26580  0.24158  0.53695  Biso   1.000  C
  C14      1.0000 0.73420  0.74158  0.96305  Biso   1.000  C
  C15      1.0000 0.73420  0.75842  0.46305  Biso   1.000  C
  C16      1.0000 0.26580  0.25842  0.03695  Biso   1.000  C
  C17      1.0000 0.18520  0.24257  0.45185  Biso   1.000  C
  C18      1.0000 0.81480  0.74257  0.04815  Biso   1.000  C
  C19      1.0000 0.81480  0.75743  0.54815  Biso   1.000  C
  C20      1.0000 0.18520  0.25743  0.95185  Biso   1.000  C
  H33      1.0000 0.09350  0.24720  0.44090  Biso   1.000  H
  H34      1.0000 0.90650  0.74720  0.05910  Biso   1.000  H
  H35      1.0000 0.90650  0.75280  0.55910  Biso   1.000  H
  H36      1.0000 0.09350  0.25280  0.94090  Biso   1.000  H
  C21      1.0000 0.24010  0.23669  0.38222  Biso   1.000  C
  C22      1.0000 0.75990  0.73669  0.11778  Biso   1.000  C
  C23      1.0000 0.75990  0.76331  0.61778  Biso   1.000  C
  C24      1.0000 0.24010  0.26331  0.88222  Biso   1.000  C
  C25      1.0000 0.37730  0.22992  0.39922  Biso   1.000  C
  C26      1.0000 0.62270  0.72992  0.10078  Biso   1.000  C
  C27      1.0000 0.62270  0.77008  0.60078  Biso   1.000  C
  C28      1.0000 0.37730  0.27008  0.89922  Biso   1.000  C
  H37      1.0000 0.41490  0.22680  0.35340  Biso   1.000  H
  H38      1.0000 0.58510  0.72680  0.14660  Biso   1.000  H
  H39      1.0000 0.58510  0.77320  0.64660  Biso   1.000  H
  H40      1.0000 0.41490  0.27320  0.85340  Biso   1.000  H
  C29      1.0000 0.20510  0.24956  0.61158  Biso   1.000  C
  C30      1.0000 0.79490  0.74956  0.88842  Biso   1.000  C
  C31      1.0000 0.79490  0.75044  0.38842  Biso   1.000  C
  C32      1.0000 0.20510  0.25044  0.11158  Biso   1.000  C
  C33      1.0000 0.86880  0.08942  0.47608  Biso   1.000  C
  C34      1.0000 0.13120  0.58942  0.02392  Biso   1.000  C
  C35      1.0000 0.13120  0.91058  0.52392  Biso   1.000  C
  C36      1.0000 0.86880  0.41058  0.97608  Biso   1.000  C
  H41      1.0000 0.89170  0.13380  0.51190  Biso   1.000  H
  H42      1.0000 0.10830  0.63380  0.98810  Biso   1.000  H
  H43      1.0000 0.10830  0.86620  0.48810  Biso   1.000  H
  H44      1.0000 0.89170  0.36620  0.01190  Biso   1.000  H
  C37      1.0000 0.92950  0.07887  0.41132  Biso   1.000  C
  C38      1.0000 0.07050  0.57887  0.08868  Biso   1.000  C
  C39      1.0000 0.07050  0.92113  0.58868  Biso   1.000  C
  C40      1.0000 0.92950  0.42113  0.91132  Biso   1.000  C
  H45      1.0000 0.99120  0.11610  0.40390  Biso   1.000  H
  H46      1.0000 0.00880  0.61610  0.09610  Biso   1.000  H
  H47      1.0000 0.00880  0.88390  0.59610  Biso   1.000  H
  H48      1.0000 0.99120  0.38390  0.90390  Biso   1.000  H
  C41      1.0000 0.89890  0.01295  0.35709  Biso   1.000  C
  C42      1.0000 0.10110  0.51295  0.14291  Biso   1.000  C
  C43      1.0000 0.10110  0.98705  0.64291  Biso   1.000  C
  C44      1.0000 0.89890  0.48705  0.85709  Biso   1.000  C
  C45      1.0000 0.80460  0.96047  0.37105  Biso   1.000  C
  C46      1.0000 0.19540  0.46047  0.12895  Biso   1.000  C
  C47      1.0000 0.19540  0.03953  0.62895  Biso   1.000  C
  C48      1.0000 0.80460  0.53953  0.87105  Biso   1.000  C
  H49      1.0000 0.77950  0.91590  0.33570  Biso   1.000  H
  H50      1.0000 0.22050  0.41590  0.16430  Biso   1.000  H
  H51      1.0000 0.22050  0.08410  0.66430  Biso   1.000  H
  H52      1.0000 0.77950  0.58410  0.83570  Biso   1.000  H
  C49      1.0000 0.74820  0.97472  0.43749  Biso   1.000  C
  C50      1.0000 0.25180  0.47472  0.06251  Biso   1.000  C
  C51      1.0000 0.25180  0.02528  0.56251  Biso   1.000  C
  C52      1.0000 0.74820  0.52528  0.93749  Biso   1.000  C
  H53      1.0000 0.68640  0.93840  0.44650  Biso   1.000  H
  H54      1.0000 0.31360  0.43840  0.05350  Biso   1.000  H
  H55      1.0000 0.31360  0.06160  0.55350  Biso   1.000  H
  H56      1.0000 0.68640  0.56160  0.94650  Biso   1.000  H
  C53      1.0000 0.96280  0.99991  0.28681  Biso   1.000  C
  C54      1.0000 0.03720  0.49991  0.21319  Biso   1.000  C
  C55      1.0000 0.03720  0.00009  0.71319  Biso   1.000  C
  C56      1.0000 0.96280  0.50009  0.78681  Biso   1.000  C
  C57      1.0000 0.97110  0.92476  0.25280  Biso   1.000  C
  C58      1.0000 0.02890  0.42476  0.24720  Biso   1.000  C
  C59      1.0000 0.02890  0.07524  0.74720  Biso   1.000  C
  C60      1.0000 0.97110  0.57524  0.75280  Biso   1.000  C
  H57      1.0000 0.93850  0.88050  0.27500  Biso   1.000  H
  H58      1.0000 0.06150  0.38050  0.22500  Biso   1.000  H
  H59      1.0000 0.06150  0.11950  0.72500  Biso   1.000  H
  H60      1.0000 0.93850  0.61950  0.77500  Biso   1.000  H
  C61      1.0000 0.02810  0.91615  0.18575  Biso   1.000  C
  C62      1.0000 0.97190  0.41615  0.31425  Biso   1.000  C
  C63      1.0000 0.97190  0.08385  0.81425  Biso   1.000  C
  C64      1.0000 0.02810  0.58385  0.68575  Biso   1.000  C
  H61      1.0000 0.03260  0.86520  0.16390  Biso   1.000  H
  H62      1.0000 0.96740  0.36520  0.33610  Biso   1.000  H
  H63      1.0000 0.96740  0.13480  0.83610  Biso   1.000  H
  H64      1.0000 0.03260  0.63480  0.66390  Biso   1.000  H
  C65      1.0000 0.07110  0.04969  0.18426  Biso   1.000  C
  C66      1.0000 0.92890  0.54969  0.31574  Biso   1.000  C
  C67      1.0000 0.92890  0.95031  0.81574  Biso   1.000  C
  C68      1.0000 0.07110  0.45031  0.68426  Biso   1.000  C
  H65      1.0000 0.10550  0.09290  0.16140  Biso   1.000  H
  H66      1.0000 0.89450  0.59290  0.33860  Biso   1.000  H
  H67      1.0000 0.89450  0.90710  0.83860  Biso   1.000  H
  H68      1.0000 0.10550  0.40710  0.66140  Biso   1.000  H
  C69      1.0000 0.01620  0.06289  0.25162  Biso   1.000  C
  C70      1.0000 0.98380  0.56289  0.24838  Biso   1.000  C
  C71      1.0000 0.98380  0.93711  0.74838  Biso   1.000  C
  C72      1.0000 0.01620  0.43711  0.75162  Biso   1.000  C
  H69      1.0000 0.01490  0.11420  0.27350  Biso   1.000  H
  H70      1.0000 0.98510  0.61420  0.22650  Biso   1.000  H
  H71      1.0000 0.98510  0.88580  0.72650  Biso   1.000  H
  H72      1.0000 0.01490  0.38580  0.77350  Biso   1.000  H
  C73      1.0000 0.59420  0.96559  0.69590  Biso   1.000  C
  C74      1.0000 0.40580  0.46559  0.80410  Biso   1.000  C
  C75      1.0000 0.40580  0.03441  0.30410  Biso   1.000  C
  C76      1.0000 0.59420  0.53441  0.19590  Biso   1.000  C
  H73      1.0000 0.61560  0.92220  0.66640  Biso   1.000  H
  H74      1.0000 0.38440  0.42220  0.83360  Biso   1.000  H
  H75      1.0000 0.38440  0.07780  0.33360  Biso   1.000  H
  H76      1.0000 0.61560  0.57780  0.16640  Biso   1.000  H
  C77      1.0000 0.52750  0.95157  0.75720  Biso   1.000  C
  C78      1.0000 0.47250  0.45157  0.74280  Biso   1.000  C
  C79      1.0000 0.47250  0.04843  0.24280  Biso   1.000  C
  C80      1.0000 0.52750  0.54843  0.25720  Biso   1.000  C
  H77      1.0000 0.50530  0.89970  0.76830  Biso   1.000  H
  H78      1.0000 0.49470  0.39970  0.73170  Biso   1.000  H
  H79      1.0000 0.49470  0.10030  0.23170  Biso   1.000  H
  H80      1.0000 0.50530  0.60030  0.26830  Biso   1.000  H
  C81      1.0000 0.49370  0.01471  0.80214  Biso   1.000  C
  C82      1.0000 0.50630  0.51471  0.69786  Biso   1.000  C
  C83      1.0000 0.50630  0.98529  0.19786  Biso   1.000  C
  C84      1.0000 0.49370  0.48529  0.30214  Biso   1.000  C
  C85      1.0000 0.53660  0.08967  0.78522  Biso   1.000  C
  C86      1.0000 0.46340  0.58967  0.71478  Biso   1.000  C
  C87      1.0000 0.46340  0.91033  0.21478  Biso   1.000  C
  C88      1.0000 0.53660  0.41033  0.28522  Biso   1.000  C
  H81      1.0000 0.52110  0.13380  0.81610  Biso   1.000  H
  H82      1.0000 0.47890  0.63380  0.68390  Biso   1.000  H
  H83      1.0000 0.47890  0.86620  0.18390  Biso   1.000  H
  H84      1.0000 0.52110  0.36620  0.31610  Biso   1.000  H
  C89      1.0000 0.60230  0.09884  0.72261  Biso   1.000  C
  C90      1.0000 0.39770  0.59884  0.77739  Biso   1.000  C
  C91      1.0000 0.39770  0.90116  0.27739  Biso   1.000  C
  C92      1.0000 0.60230  0.40116  0.22261  Biso   1.000  C
  H85      1.0000 0.62890  0.14980  0.71190  Biso   1.000  H
  H86      1.0000 0.37110  0.64980  0.78810  Biso   1.000  H
  H87      1.0000 0.37110  0.85020  0.28810  Biso   1.000  H
  H88      1.0000 0.62890  0.35020  0.21190  Biso   1.000  H
  C93      1.0000 0.41280  0.00321  0.86326  Biso   1.000  C
  C94      1.0000 0.58720  0.50321  0.63674  Biso   1.000  C
  C95      1.0000 0.58720  0.99679  0.13674  Biso   1.000  C
  C96      1.0000 0.41280  0.49679  0.36326  Biso   1.000  C
  C97      1.0000 0.34520  0.93245  0.86468  Biso   1.000  C
  C98      1.0000 0.65480  0.43245  0.63532  Biso   1.000  C
  C99      1.0000 0.65480  0.06755  0.13532  Biso   1.000  C
  C100     1.0000 0.34520  0.56755  0.36468  Biso   1.000  C
  H89      1.0000 0.35180  0.89070  0.82800  Biso   1.000  H
  H90      1.0000 0.64820  0.39070  0.67200  Biso   1.000  H
  H91      1.0000 0.64820  0.10930  0.17200  Biso   1.000  H
  H92      1.0000 0.35180  0.60930  0.32800  Biso   1.000  H
  C101     1.0000 0.26800  0.92424  0.92082  Biso   1.000  C
  C102     1.0000 0.73200  0.42424  0.57918  Biso   1.000  C
  C103     1.0000 0.73200  0.07576  0.07918  Biso   1.000  C
  C104     1.0000 0.26800  0.57576  0.42082  Biso   1.000  C
  H93      1.0000 0.22300  0.87640  0.92020  Biso   1.000  H
  H94      1.0000 0.77700  0.37640  0.57980  Biso   1.000  H
  H95      1.0000 0.77700  0.12360  0.07980  Biso   1.000  H
  H96      1.0000 0.22300  0.62360  0.42020  Biso   1.000  H
  C105     1.0000 0.31970  0.04935  0.97444  Biso   1.000  C
  C106     1.0000 0.68030  0.54935  0.52556  Biso   1.000  C
  C107     1.0000 0.68030  0.95065  0.02556  Biso   1.000  C
  C108     1.0000 0.31970  0.45065  0.47444  Biso   1.000  C
  H97      1.0000 0.31160  0.09010  0.01190  Biso   1.000  H
  H98      1.0000 0.68840  0.59010  0.48810  Biso   1.000  H
  H99      1.0000 0.68840  0.90990  0.98810  Biso   1.000  H
  H100     1.0000 0.31160  0.40990  0.51190  Biso   1.000  H
  C109     1.0000 0.39850  0.06227  0.92008  Biso   1.000  C
  C110     1.0000 0.60150  0.56227  0.57992  Biso   1.000  C
  C111     1.0000 0.60150  0.93773  0.07992  Biso   1.000  C
  C112     1.0000 0.39850  0.43773  0.42008  Biso   1.000  C
  H101     1.0000 0.44220  0.11080  0.92160  Biso   1.000  H
  H102     1.0000 0.55780  0.61080  0.57840  Biso   1.000  H
  H103     1.0000 0.55780  0.88920  0.07840  Biso   1.000  H
  H104     1.0000 0.44220  0.38920  0.42160  Biso   1.000  H
