data_image0
_cell_length_a       16.0184
_cell_length_b       16.0184
_cell_length_c       16.0184
_cell_angle_alpha    90
_cell_angle_beta     90
_cell_angle_gamma    90

_symmetry_space_group_name_H-M    "P 1"
_symmetry_int_tables_number       1

loop_
  _symmetry_equiv_pos_as_xyz
  'x, y, z'

loop_
  _atom_site_label
  _atom_site_occupancy
  _atom_site_fract_x
  _atom_site_fract_y
  _atom_site_fract_z
  _atom_site_thermal_displace_type
  _atom_site_B_iso_or_equiv
  _atom_site_type_symbol
  Cu1      1.0000 0.50000  0.00000  0.25000  Biso   1.000  Cu
  Cu2      1.0000 0.50000  0.00000  0.75000  Biso   1.000  Cu
  Cu3      1.0000 0.25000  0.50000  0.00000  Biso   1.000  Cu
  Cu4      1.0000 0.75000  0.50000  0.00000  Biso   1.000  Cu
  Cu5      1.0000 0.00000  0.25000  0.50000  Biso   1.000  Cu
  Cu6      1.0000 0.00000  0.75000  0.50000  Biso   1.000  Cu
  B1       1.0000 0.25000  0.00000  0.50000  Biso   1.000  B
  B2       1.0000 0.75000  0.00000  0.50000  Biso   1.000  B
  B3       1.0000 0.50000  0.25000  0.00000  Biso   1.000  B
  B4       1.0000 0.50000  0.75000  0.00000  Biso   1.000  B
  B5       1.0000 0.00000  0.50000  0.25000  Biso   1.000  B
  B6       1.0000 0.00000  0.50000  0.75000  Biso   1.000  B
  N1       1.0000 0.40290  0.03120  0.32690  Biso   1.000  N
  N2       1.0000 0.59710  0.96880  0.32690  Biso   1.000  N
  N3       1.0000 0.59710  0.03120  0.67310  Biso   1.000  N
  N4       1.0000 0.40290  0.96880  0.67310  Biso   1.000  N
  N5       1.0000 0.32690  0.40290  0.03120  Biso   1.000  N
  N6       1.0000 0.32690  0.59710  0.96880  Biso   1.000  N
  N7       1.0000 0.67310  0.59710  0.03120  Biso   1.000  N
  N8       1.0000 0.67310  0.40290  0.96880  Biso   1.000  N
  N9       1.0000 0.03120  0.32690  0.40290  Biso   1.000  N
  N10      1.0000 0.96880  0.32690  0.59710  Biso   1.000  N
  N11      1.0000 0.03120  0.67310  0.59710  Biso   1.000  N
  N12      1.0000 0.96880  0.67310  0.40290  Biso   1.000  N
  N13      1.0000 0.53120  0.90290  0.82690  Biso   1.000  N
  N14      1.0000 0.46880  0.09710  0.82690  Biso   1.000  N
  N15      1.0000 0.53120  0.09710  0.17310  Biso   1.000  N
  N16      1.0000 0.46880  0.90290  0.17310  Biso   1.000  N
  N17      1.0000 0.90290  0.82690  0.53120  Biso   1.000  N
  N18      1.0000 0.09710  0.82690  0.46880  Biso   1.000  N
  N19      1.0000 0.09710  0.17310  0.53120  Biso   1.000  N
  N20      1.0000 0.90290  0.17310  0.46880  Biso   1.000  N
  N21      1.0000 0.82690  0.53120  0.90290  Biso   1.000  N
  N22      1.0000 0.82690  0.46880  0.09710  Biso   1.000  N
  N23      1.0000 0.17310  0.53120  0.09710  Biso   1.000  N
  N24      1.0000 0.17310  0.46880  0.90290  Biso   1.000  N
  N25      1.0000 0.30710  0.03020  0.42720  Biso   1.000  N
  N26      1.0000 0.69290  0.96980  0.42720  Biso   1.000  N
  N27      1.0000 0.69290  0.03020  0.57280  Biso   1.000  N
  N28      1.0000 0.30710  0.96980  0.57280  Biso   1.000  N
  N29      1.0000 0.42720  0.30710  0.03020  Biso   1.000  N
  N30      1.0000 0.42720  0.69290  0.96980  Biso   1.000  N
  N31      1.0000 0.57280  0.69290  0.03020  Biso   1.000  N
  N32      1.0000 0.57280  0.30710  0.96980  Biso   1.000  N
  N33      1.0000 0.03020  0.42720  0.30710  Biso   1.000  N
  N34      1.0000 0.96980  0.42720  0.69290  Biso   1.000  N
  N35      1.0000 0.03020  0.57280  0.69290  Biso   1.000  N
  N36      1.0000 0.96980  0.57280  0.30710  Biso   1.000  N
  N37      1.0000 0.53020  0.80710  0.92720  Biso   1.000  N
  N38      1.0000 0.46980  0.19290  0.92720  Biso   1.000  N
  N39      1.0000 0.53020  0.19290  0.07280  Biso   1.000  N
  N40      1.0000 0.46980  0.80710  0.07280  Biso   1.000  N
  N41      1.0000 0.80710  0.92720  0.53020  Biso   1.000  N
  N42      1.0000 0.19290  0.92720  0.46980  Biso   1.000  N
  N43      1.0000 0.19290  0.07280  0.53020  Biso   1.000  N
  N44      1.0000 0.80710  0.07280  0.46980  Biso   1.000  N
  N45      1.0000 0.92720  0.53020  0.80710  Biso   1.000  N
  N46      1.0000 0.92720  0.46980  0.19290  Biso   1.000  N
  N47      1.0000 0.07280  0.53020  0.19290  Biso   1.000  N
  N48      1.0000 0.07280  0.46980  0.80710  Biso   1.000  N
  C1       1.0000 0.30130  0.10630  0.38680  Biso   1.000  C
  C2       1.0000 0.69870  0.89370  0.38680  Biso   1.000  C
  C3       1.0000 0.69870  0.10630  0.61320  Biso   1.000  C
  C4       1.0000 0.30130  0.89370  0.61320  Biso   1.000  C
  C5       1.0000 0.38680  0.30130  0.10630  Biso   1.000  C
  C6       1.0000 0.38680  0.69870  0.89370  Biso   1.000  C
  C7       1.0000 0.61320  0.69870  0.10630  Biso   1.000  C
  C8       1.0000 0.61320  0.30130  0.89370  Biso   1.000  C
  C9       1.0000 0.10630  0.38680  0.30130  Biso   1.000  C
  C10      1.0000 0.89370  0.38680  0.69870  Biso   1.000  C
  C11      1.0000 0.10630  0.61320  0.69870  Biso   1.000  C
  C12      1.0000 0.89370  0.61320  0.30130  Biso   1.000  C
  C13      1.0000 0.60630  0.80130  0.88680  Biso   1.000  C
  C14      1.0000 0.39370  0.19870  0.88680  Biso   1.000  C
  C15      1.0000 0.60630  0.19870  0.11320  Biso   1.000  C
  C16      1.0000 0.39370  0.80130  0.11320  Biso   1.000  C
  C17      1.0000 0.80130  0.88680  0.60630  Biso   1.000  C
  C18      1.0000 0.19870  0.88680  0.39370  Biso   1.000  C
  C19      1.0000 0.19870  0.11320  0.60630  Biso   1.000  C
  C20      1.0000 0.80130  0.11320  0.39370  Biso   1.000  C
  C21      1.0000 0.88680  0.60630  0.80130  Biso   1.000  C
  C22      1.0000 0.88680  0.39370  0.19870  Biso   1.000  C
  C23      1.0000 0.11320  0.60630  0.19870  Biso   1.000  C
  C24      1.0000 0.11320  0.39370  0.80130  Biso   1.000  C
  H1       1.0000 0.26420  0.14930  0.39880  Biso   1.000  H
  H2       1.0000 0.73580  0.85070  0.39880  Biso   1.000  H
  H3       1.0000 0.73580  0.14930  0.60120  Biso   1.000  H
  H4       1.0000 0.26420  0.85070  0.60120  Biso   1.000  H
  H5       1.0000 0.39880  0.26420  0.14930  Biso   1.000  H
  H6       1.0000 0.39880  0.73580  0.85070  Biso   1.000  H
  H7       1.0000 0.60120  0.73580  0.14930  Biso   1.000  H
  H8       1.0000 0.60120  0.26420  0.85070  Biso   1.000  H
  H9       1.0000 0.14930  0.39880  0.26420  Biso   1.000  H
  H10      1.0000 0.85070  0.39880  0.73580  Biso   1.000  H
  H11      1.0000 0.14930  0.60120  0.73580  Biso   1.000  H
  H12      1.0000 0.85070  0.60120  0.26420  Biso   1.000  H
  H13      1.0000 0.64930  0.76420  0.89880  Biso   1.000  H
  H14      1.0000 0.35070  0.23580  0.89880  Biso   1.000  H
  H15      1.0000 0.64930  0.23580  0.10120  Biso   1.000  H
  H16      1.0000 0.35070  0.76420  0.10120  Biso   1.000  H
  H17      1.0000 0.76420  0.89880  0.64930  Biso   1.000  H
  H18      1.0000 0.23580  0.89880  0.35070  Biso   1.000  H
  H19      1.0000 0.23580  0.10120  0.64930  Biso   1.000  H
  H20      1.0000 0.76420  0.10120  0.35070  Biso   1.000  H
  H21      1.0000 0.89880  0.64930  0.76420  Biso   1.000  H
  H22      1.0000 0.89880  0.35070  0.23580  Biso   1.000  H
  H23      1.0000 0.10120  0.64930  0.23580  Biso   1.000  H
  H24      1.0000 0.10120  0.35070  0.76420  Biso   1.000  H
  C25      1.0000 0.36050  0.10580  0.32640  Biso   1.000  C
  C26      1.0000 0.63950  0.89420  0.32640  Biso   1.000  C
  C27      1.0000 0.63950  0.10580  0.67360  Biso   1.000  C
  C28      1.0000 0.36050  0.89420  0.67360  Biso   1.000  C
  C29      1.0000 0.32640  0.36050  0.10580  Biso   1.000  C
  C30      1.0000 0.32640  0.63950  0.89420  Biso   1.000  C
  C31      1.0000 0.67360  0.63950  0.10580  Biso   1.000  C
  C32      1.0000 0.67360  0.36050  0.89420  Biso   1.000  C
  C33      1.0000 0.10580  0.32640  0.36050  Biso   1.000  C
  C34      1.0000 0.89420  0.32640  0.63950  Biso   1.000  C
  C35      1.0000 0.10580  0.67360  0.63950  Biso   1.000  C
  C36      1.0000 0.89420  0.67360  0.36050  Biso   1.000  C
  C37      1.0000 0.60580  0.86050  0.82640  Biso   1.000  C
  C38      1.0000 0.39420  0.13950  0.82640  Biso   1.000  C
  C39      1.0000 0.60580  0.13950  0.17360  Biso   1.000  C
  C40      1.0000 0.39420  0.86050  0.17360  Biso   1.000  C
  C41      1.0000 0.86050  0.82640  0.60580  Biso   1.000  C
  C42      1.0000 0.13950  0.82640  0.39420  Biso   1.000  C
  C43      1.0000 0.13950  0.17360  0.60580  Biso   1.000  C
  C44      1.0000 0.86050  0.17360  0.39420  Biso   1.000  C
  C45      1.0000 0.82640  0.60580  0.86050  Biso   1.000  C
  C46      1.0000 0.82640  0.39420  0.13950  Biso   1.000  C
  C47      1.0000 0.17360  0.60580  0.13950  Biso   1.000  C
  C48      1.0000 0.17360  0.39420  0.86050  Biso   1.000  C
  H25      1.0000 0.37100  0.14960  0.28980  Biso   1.000  H
  H26      1.0000 0.62900  0.85040  0.28980  Biso   1.000  H
  H27      1.0000 0.62900  0.14960  0.71020  Biso   1.000  H
  H28      1.0000 0.37100  0.85040  0.71020  Biso   1.000  H
  H29      1.0000 0.28980  0.37100  0.14960  Biso   1.000  H
  H30      1.0000 0.28980  0.62900  0.85040  Biso   1.000  H
  H31      1.0000 0.71020  0.62900  0.14960  Biso   1.000  H
  H32      1.0000 0.71020  0.37100  0.85040  Biso   1.000  H
  H33      1.0000 0.14960  0.28980  0.37100  Biso   1.000  H
  H34      1.0000 0.85040  0.28980  0.62900  Biso   1.000  H
  H35      1.0000 0.14960  0.71020  0.62900  Biso   1.000  H
  H36      1.0000 0.85040  0.71020  0.37100  Biso   1.000  H
  H37      1.0000 0.64960  0.87100  0.78980  Biso   1.000  H
  H38      1.0000 0.35040  0.12900  0.78980  Biso   1.000  H
  H39      1.0000 0.64960  0.12900  0.21020  Biso   1.000  H
  H40      1.0000 0.35040  0.87100  0.21020  Biso   1.000  H
  H41      1.0000 0.87100  0.78980  0.64960  Biso   1.000  H
  H42      1.0000 0.12900  0.78980  0.35040  Biso   1.000  H
  H43      1.0000 0.12900  0.21020  0.64960  Biso   1.000  H
  H44      1.0000 0.87100  0.21020  0.35040  Biso   1.000  H
  H45      1.0000 0.78980  0.64960  0.87100  Biso   1.000  H
  H46      1.0000 0.78980  0.35040  0.12900  Biso   1.000  H
  H47      1.0000 0.21020  0.64960  0.12900  Biso   1.000  H
  H48      1.0000 0.21020  0.35040  0.87100  Biso   1.000  H
  C49      1.0000 0.37070  0.98930  0.38850  Biso   1.000  C
  C50      1.0000 0.62930  0.01070  0.38850  Biso   1.000  C
  C51      1.0000 0.62930  0.98930  0.61150  Biso   1.000  C
  C52      1.0000 0.37070  0.01070  0.61150  Biso   1.000  C
  C53      1.0000 0.38850  0.37070  0.98930  Biso   1.000  C
  C54      1.0000 0.38850  0.62930  0.01070  Biso   1.000  C
  C55      1.0000 0.61150  0.62930  0.98930  Biso   1.000  C
  C56      1.0000 0.61150  0.37070  0.01070  Biso   1.000  C
  C57      1.0000 0.98930  0.38850  0.37070  Biso   1.000  C
  C58      1.0000 0.01070  0.38850  0.62930  Biso   1.000  C
  C59      1.0000 0.98930  0.61150  0.62930  Biso   1.000  C
  C60      1.0000 0.01070  0.61150  0.37070  Biso   1.000  C
  C61      1.0000 0.48930  0.87070  0.88850  Biso   1.000  C
  C62      1.0000 0.51070  0.12930  0.88850  Biso   1.000  C
  C63      1.0000 0.48930  0.12930  0.11150  Biso   1.000  C
  C64      1.0000 0.51070  0.87070  0.11150  Biso   1.000  C
  C65      1.0000 0.87070  0.88850  0.48930  Biso   1.000  C
  C66      1.0000 0.12930  0.88850  0.51070  Biso   1.000  C
  C67      1.0000 0.12930  0.11150  0.48930  Biso   1.000  C
  C68      1.0000 0.87070  0.11150  0.51070  Biso   1.000  C
  C69      1.0000 0.88850  0.48930  0.87070  Biso   1.000  C
  C70      1.0000 0.88850  0.51070  0.12930  Biso   1.000  C
  C71      1.0000 0.11150  0.48930  0.12930  Biso   1.000  C
  C72      1.0000 0.11150  0.51070  0.87070  Biso   1.000  C
  C73      1.0000 0.40310  0.90470  0.41510  Biso   1.000  C
  C74      1.0000 0.59690  0.09530  0.41510  Biso   1.000  C
  C75      1.0000 0.59690  0.90470  0.58490  Biso   1.000  C
  C76      1.0000 0.40310  0.09530  0.58490  Biso   1.000  C
  C77      1.0000 0.41510  0.40310  0.90470  Biso   1.000  C
  C78      1.0000 0.41510  0.59690  0.09530  Biso   1.000  C
  C79      1.0000 0.58490  0.59690  0.90470  Biso   1.000  C
  C80      1.0000 0.58490  0.40310  0.09530  Biso   1.000  C
  C81      1.0000 0.90470  0.41510  0.40310  Biso   1.000  C
  C82      1.0000 0.09530  0.41510  0.59690  Biso   1.000  C
  C83      1.0000 0.90470  0.58490  0.59690  Biso   1.000  C
  C84      1.0000 0.09530  0.58490  0.40310  Biso   1.000  C
  C85      1.0000 0.40470  0.90310  0.91510  Biso   1.000  C
  C86      1.0000 0.59530  0.09690  0.91510  Biso   1.000  C
  C87      1.0000 0.40470  0.09690  0.08490  Biso   1.000  C
  C88      1.0000 0.59530  0.90310  0.08490  Biso   1.000  C
  C89      1.0000 0.90310  0.91510  0.40470  Biso   1.000  C
  C90      1.0000 0.09690  0.91510  0.59530  Biso   1.000  C
  C91      1.0000 0.09690  0.08490  0.40470  Biso   1.000  C
  C92      1.0000 0.90310  0.08490  0.59530  Biso   1.000  C
  C93      1.0000 0.91510  0.40470  0.90310  Biso   1.000  C
  C94      1.0000 0.91510  0.59530  0.09690  Biso   1.000  C
  C95      1.0000 0.08490  0.40470  0.09690  Biso   1.000  C
  C96      1.0000 0.08490  0.59530  0.90310  Biso   1.000  C
  H49      1.0000 0.44780  0.88810  0.37880  Biso   1.000  H
  H50      1.0000 0.55220  0.11190  0.37880  Biso   1.000  H
  H51      1.0000 0.55220  0.88810  0.62120  Biso   1.000  H
  H52      1.0000 0.44780  0.11190  0.62120  Biso   1.000  H
  H53      1.0000 0.37880  0.44780  0.88810  Biso   1.000  H
  H54      1.0000 0.37880  0.55220  0.11190  Biso   1.000  H
  H55      1.0000 0.62120  0.55220  0.88810  Biso   1.000  H
  H56      1.0000 0.62120  0.44780  0.11190  Biso   1.000  H
  H57      1.0000 0.88810  0.37880  0.44780  Biso   1.000  H
  H58      1.0000 0.11190  0.37880  0.55220  Biso   1.000  H
  H59      1.0000 0.88810  0.62120  0.55220  Biso   1.000  H
  H60      1.0000 0.11190  0.62120  0.44780  Biso   1.000  H
  H61      1.0000 0.38810  0.94780  0.87880  Biso   1.000  H
  H62      1.0000 0.61190  0.05220  0.87880  Biso   1.000  H
  H63      1.0000 0.38810  0.05220  0.12120  Biso   1.000  H
  H64      1.0000 0.61190  0.94780  0.12120  Biso   1.000  H
  H65      1.0000 0.94780  0.87880  0.38810  Biso   1.000  H
  H66      1.0000 0.05220  0.87880  0.61190  Biso   1.000  H
  H67      1.0000 0.05220  0.12120  0.38810  Biso   1.000  H
  H68      1.0000 0.94780  0.12120  0.61190  Biso   1.000  H
  H69      1.0000 0.87880  0.38810  0.94780  Biso   1.000  H
  H70      1.0000 0.87880  0.61190  0.05220  Biso   1.000  H
  H71      1.0000 0.12120  0.38810  0.05220  Biso   1.000  H
  H72      1.0000 0.12120  0.61190  0.94780  Biso   1.000  H
  H73      1.0000 0.35890  0.86440  0.41210  Biso   1.000  H
  H74      1.0000 0.64110  0.13560  0.41210  Biso   1.000  H
  H75      1.0000 0.64110  0.86440  0.58790  Biso   1.000  H
  H76      1.0000 0.35890  0.13560  0.58790  Biso   1.000  H
  H77      1.0000 0.41210  0.35890  0.86440  Biso   1.000  H
  H78      1.0000 0.41210  0.64110  0.13560  Biso   1.000  H
  H79      1.0000 0.58790  0.64110  0.86440  Biso   1.000  H
  H80      1.0000 0.58790  0.35890  0.13560  Biso   1.000  H
  H81      1.0000 0.86440  0.41210  0.35890  Biso   1.000  H
  H82      1.0000 0.13560  0.41210  0.64110  Biso   1.000  H
  H83      1.0000 0.86440  0.58790  0.64110  Biso   1.000  H
  H84      1.0000 0.13560  0.58790  0.35890  Biso   1.000  H
  H85      1.0000 0.36440  0.85890  0.91210  Biso   1.000  H
  H86      1.0000 0.63560  0.14110  0.91210  Biso   1.000  H
  H87      1.0000 0.36440  0.14110  0.08790  Biso   1.000  H
  H88      1.0000 0.63560  0.85890  0.08790  Biso   1.000  H
  H89      1.0000 0.85890  0.91210  0.36440  Biso   1.000  H
  H90      1.0000 0.14110  0.91210  0.63560  Biso   1.000  H
  H91      1.0000 0.14110  0.08790  0.36440  Biso   1.000  H
  H92      1.0000 0.85890  0.08790  0.63560  Biso   1.000  H
  H93      1.0000 0.91210  0.36440  0.85890  Biso   1.000  H
  H94      1.0000 0.91210  0.63560  0.14110  Biso   1.000  H
  H95      1.0000 0.08790  0.36440  0.14110  Biso   1.000  H
  H96      1.0000 0.08790  0.63560  0.85890  Biso   1.000  H
  H97      1.0000 0.42340  0.90790  0.47150  Biso   1.000  H
  H98      1.0000 0.57660  0.09210  0.47150  Biso   1.000  H
  H99      1.0000 0.57660  0.90790  0.52850  Biso   1.000  H
  H100     1.0000 0.42340  0.09210  0.52850  Biso   1.000  H
  H101     1.0000 0.47150  0.42340  0.90790  Biso   1.000  H
  H102     1.0000 0.47150  0.57660  0.09210  Biso   1.000  H
  H103     1.0000 0.52850  0.57660  0.90790  Biso   1.000  H
  H104     1.0000 0.52850  0.42340  0.09210  Biso   1.000  H
  H105     1.0000 0.90790  0.47150  0.42340  Biso   1.000  H
  H106     1.0000 0.09210  0.47150  0.57660  Biso   1.000  H
  H107     1.0000 0.90790  0.52850  0.57660  Biso   1.000  H
  H108     1.0000 0.09210  0.52850  0.42340  Biso   1.000  H
  H109     1.0000 0.40790  0.92340  0.97150  Biso   1.000  H
  H110     1.0000 0.59210  0.07660  0.97150  Biso   1.000  H
  H111     1.0000 0.40790  0.07660  0.02850  Biso   1.000  H
  H112     1.0000 0.59210  0.92340  0.02850  Biso   1.000  H
  H113     1.0000 0.92340  0.97150  0.40790  Biso   1.000  H
  H114     1.0000 0.07660  0.97150  0.59210  Biso   1.000  H
  H115     1.0000 0.07660  0.02850  0.40790  Biso   1.000  H
  H116     1.0000 0.92340  0.02850  0.59210  Biso   1.000  H
  H117     1.0000 0.97150  0.40790  0.92340  Biso   1.000  H
  H118     1.0000 0.97150  0.59210  0.07660  Biso   1.000  H
  H119     1.0000 0.02850  0.40790  0.07660  Biso   1.000  H
  H120     1.0000 0.02850  0.59210  0.92340  Biso   1.000  H
