data_image0
_cell_length_a       13.548
_cell_length_b       14.627
_cell_length_c       15.318
_cell_angle_alpha    73.728
_cell_angle_beta     73.792
_cell_angle_gamma    68.946

_symmetry_space_group_name_H-M    "P 1"
_symmetry_int_tables_number       1

loop_
  _symmetry_equiv_pos_as_xyz
  'x, y, z'

loop_
  _atom_site_label
  _atom_site_occupancy
  _atom_site_fract_x
  _atom_site_fract_y
  _atom_site_fract_z
  _atom_site_thermal_displace_type
  _atom_site_B_iso_or_equiv
  _atom_site_type_symbol
  Cu1      1.0000 0.07004  0.61241  0.23888  Biso   1.000  Cu
  Cu2      1.0000 0.92996  0.38759  0.76112  Biso   1.000  Cu
  Cu3      1.0000 0.46244  0.94253  0.27259  Biso   1.000  Cu
  Cu4      1.0000 0.53756  0.05747  0.72741  Biso   1.000  Cu
  B1       1.0000 0.38840  0.77850  0.01290  Biso   1.000  B
  B2       1.0000 0.61160  0.22150  0.98710  Biso   1.000  B
  B3       1.0000 0.74360  0.74980  0.52900  Biso   1.000  B
  B4       1.0000 0.25640  0.25020  0.47100  Biso   1.000  B
  N1       1.0000 0.73480  0.81470  0.59640  Biso   1.000  N
  N2       1.0000 0.26520  0.18530  0.40360  Biso   1.000  N
  N3       1.0000 0.15630  0.67640  0.12280  Biso   1.000  N
  N4       1.0000 0.84370  0.32360  0.87720  Biso   1.000  N
  N5       1.0000 0.63800  0.78810  0.49170  Biso   1.000  N
  N6       1.0000 0.36200  0.21190  0.50830  Biso   1.000  N
  N7       1.0000 0.52140  0.87110  0.39290  Biso   1.000  N
  N8       1.0000 0.47860  0.12890  0.60710  Biso   1.000  N
  N9       1.0000 0.76230  0.63840  0.57850  Biso   1.000  N
  N10      1.0000 0.23770  0.36160  0.42150  Biso   1.000  N
  N11      1.0000 0.37380  0.87870  0.94400  Biso   1.000  N
  N12      1.0000 0.62620  0.12130  0.05600  Biso   1.000  N
  N13      1.0000 0.95800  0.56210  0.21340  Biso   1.000  N
  N14      1.0000 0.04200  0.43790  0.78660  Biso   1.000  N
  N15      1.0000 0.83950  0.75640  0.44720  Biso   1.000  N
  N16      1.0000 0.16050  0.24360  0.55280  Biso   1.000  N
  N17      1.0000 0.83280  0.49410  0.67510  Biso   1.000  N
  N18      1.0000 0.16720  0.50590  0.32490  Biso   1.000  N
  N19      1.0000 0.28530  0.74620  0.03660  Biso   1.000  N
  N20      1.0000 0.71470  0.25380  0.96340  Biso   1.000  N
  N21      1.0000 0.42240  0.99580  0.82270  Biso   1.000  N
  N22      1.0000 0.57760  0.00420  0.17730  Biso   1.000  N
  N23      1.0000 0.96740  0.70880  0.32460  Biso   1.000  N
  N24      1.0000 0.03260  0.29120  0.67540  Biso   1.000  N
  N25      1.0000 0.65820  0.93410  0.68370  Biso   1.000  N
  N26      1.0000 0.34180  0.06590  0.31630  Biso   1.000  N
  N27      1.0000 0.48800  0.69900  0.97080  Biso   1.000  N
  N28      1.0000 0.51200  0.30100  0.02920  Biso   1.000  N
  N29      1.0000 0.43860  0.84780  0.21220  Biso   1.000  N
  N30      1.0000 0.56140  0.15220  0.78780  Biso   1.000  N
  N31      1.0000 0.41090  0.78590  0.10400  Biso   1.000  N
  N32      1.0000 0.58910  0.21410  0.89600  Biso   1.000  N
  N33      1.0000 0.58640  0.56560  0.90410  Biso   1.000  N
  N34      1.0000 0.41360  0.43440  0.09590  Biso   1.000  N
  C1       1.0000 0.77950  0.55350  0.18430  Biso   1.000  C
  C2       1.0000 0.22050  0.44650  0.81570  Biso   1.000  C
  C3       1.0000 0.84540  0.01140  0.31590  Biso   1.000  C
  C4       1.0000 0.15460  0.98860  0.68410  Biso   1.000  C
  H1       1.0000 0.81420  0.07940  0.31570  Biso   1.000  H
  H2       1.0000 0.18580  0.92060  0.68430  Biso   1.000  H
  C5       1.0000 0.53690  0.77670  0.53900  Biso   1.000  C
  C6       1.0000 0.46310  0.22330  0.46100  Biso   1.000  C
  C7       1.0000 0.28780  0.96770  0.94620  Biso   1.000  C
  C8       1.0000 0.71220  0.03230  0.05380  Biso   1.000  C
  C9       1.0000 0.44480  0.70490  0.17540  Biso   1.000  C
  C10      1.0000 0.55520  0.29510  0.82460  Biso   1.000  C
  C11      1.0000 0.75650  0.55960  0.54630  Biso   1.000  C
  C12      1.0000 0.24350  0.44040  0.45370  Biso   1.000  C
  C13      1.0000 0.79990  0.47150  0.60640  Biso   1.000  C
  C14      1.0000 0.20010  0.52850  0.39360  Biso   1.000  C
  C15      1.0000 0.59630  0.69110  0.95870  Biso   1.000  C
  C16      1.0000 0.40370  0.30890  0.04130  Biso   1.000  C
  C17      1.0000 0.85880  0.84400  0.38700  Biso   1.000  C
  C18      1.0000 0.14120  0.15600  0.61300  Biso   1.000  C
  C19      1.0000 0.64410  0.88600  0.62860  Biso   1.000  C
  C20      1.0000 0.35590  0.11400  0.37140  Biso   1.000  C
  H3       1.0000 0.57790  0.89970  0.61320  Biso   1.000  H
  H4       1.0000 0.42210  0.10030  0.38680  Biso   1.000  H
  C21      1.0000 0.48900  0.68130  0.32400  Biso   1.000  C
  C22      1.0000 0.51100  0.31870  0.67600  Biso   1.000  C
  H5       1.0000 0.50080  0.70590  0.36870  Biso   1.000  H
  H6       1.0000 0.49920  0.29410  0.63130  Biso   1.000  H
  C23      1.0000 0.76620  0.89090  0.68940  Biso   1.000  C
  C24      1.0000 0.23380  0.10910  0.31060  Biso   1.000  C
  C25      1.0000 0.08770  0.66910  0.98970  Biso   1.000  C
  C26      1.0000 0.91230  0.33090  0.01030  Biso   1.000  C
  H7       1.0000 0.03710  0.63710  0.02550  Biso   1.000  H
  H8       1.0000 0.96290  0.36290  0.97450  Biso   1.000  H
  C27      1.0000 0.62030  0.84460  0.40640  Biso   1.000  C
  C28      1.0000 0.37970  0.15540  0.59360  Biso   1.000  C
  H9       1.0000 0.67510  0.86320  0.36070  Biso   1.000  H
  H10      1.0000 0.32490  0.13680  0.63930  Biso   1.000  H
  C29      1.0000 0.15290  0.69260  0.03050  Biso   1.000  C
  C30      1.0000 0.84710  0.30740  0.96950  Biso   1.000  C
  C31      1.0000 0.46020  0.74420  0.24230  Biso   1.000  C
  C32      1.0000 0.53980  0.25580  0.75770  Biso   1.000  C
  C33      1.0000 0.23470  0.70840  0.12240  Biso   1.000  C
  C34      1.0000 0.76530  0.29160  0.87760  Biso   1.000  C
  H11      1.0000 0.25480  0.70560  0.17660  Biso   1.000  H
  H12      1.0000 0.74520  0.29440  0.82340  Biso   1.000  H
  C35      1.0000 0.81520  0.81750  0.63440  Biso   1.000  C
  C36      1.0000 0.18480  0.18250  0.36560  Biso   1.000  C
  C37      1.0000 0.24270  0.76260  0.87970  Biso   1.000  C
  C38      1.0000 0.75730  0.23740  0.12030  Biso   1.000  C
  H13      1.0000 0.29440  0.79270  0.84300  Biso   1.000  H
  H14      1.0000 0.70560  0.20730  0.15700  Biso   1.000  H
  C39      1.0000 0.31860  0.03920  0.87090  Biso   1.000  C
  C40      1.0000 0.68140  0.96080  0.12910  Biso   1.000  C
  C41      1.0000 0.23110  0.73780  0.97570  Biso   1.000  C
  C42      1.0000 0.76890  0.26220  0.02430  Biso   1.000  C
  C43      1.0000 0.40970  0.86690  0.13220  Biso   1.000  C
  C44      1.0000 0.59030  0.13310  0.86780  Biso   1.000  C
  H15      1.0000 0.38970  0.93130  0.09720  Biso   1.000  H
  H16      1.0000 0.61030  0.06870  0.90280  Biso   1.000  H
  C45      1.0000 0.46650  0.82810  0.47710  Biso   1.000  C
  C46      1.0000 0.53350  0.17190  0.52290  Biso   1.000  C
  C47      1.0000 0.44790  0.90330  0.86880  Biso   1.000  C
  C48      1.0000 0.55210  0.09670  0.13120  Biso   1.000  C
  H17      1.0000 0.51350  0.85670  0.85100  Biso   1.000  H
  H18      1.0000 0.48650  0.14330  0.14900  Biso   1.000  H
  C49      1.0000 0.80760  0.59230  0.65430  Biso   1.000  C
  C50      1.0000 0.19240  0.40770  0.34570  Biso   1.000  C
  H19      1.0000 0.82020  0.62800  0.68950  Biso   1.000  H
  H20      1.0000 0.17980  0.37200  0.31050  Biso   1.000  H
  C51      1.0000 0.48550  0.54470  0.26850  Biso   1.000  C
  C52      1.0000 0.51450  0.45530  0.73150  Biso   1.000  C
  H21      1.0000 0.49460  0.47660  0.27870  Biso   1.000  H
  H22      1.0000 0.50540  0.52340  0.72130  Biso   1.000  H
  C53      1.0000 0.35940  0.82790  0.50170  Biso   1.000  C
  C54      1.0000 0.64060  0.17210  0.49830  Biso   1.000  C
  H23      1.0000 0.31160  0.86250  0.46170  Biso   1.000  H
  H24      1.0000 0.68840  0.13750  0.53830  Biso   1.000  H
  C55      1.0000 0.50330  0.72510  0.62790  Biso   1.000  C
  C56      1.0000 0.49670  0.27490  0.37210  Biso   1.000  C
  H25      1.0000 0.54960  0.69260  0.66940  Biso   1.000  H
  H26      1.0000 0.45040  0.30740  0.33060  Biso   1.000  H
  C57      1.0000 0.32800  0.77400  0.58780  Biso   1.000  C
  C58      1.0000 0.67200  0.22600  0.41220  Biso   1.000  C
  H27      1.0000 0.25800  0.76980  0.60520  Biso   1.000  H
  H28      1.0000 0.74200  0.23020  0.39480  Biso   1.000  H
  C59      1.0000 0.17670  0.74160  0.84110  Biso   1.000  C
  C60      1.0000 0.82330  0.25840  0.15890  Biso   1.000  C
  H29      1.0000 0.18240  0.75910  0.77710  Biso   1.000  H
  H30      1.0000 0.81760  0.24090  0.22290  Biso   1.000  H
  C61      1.0000 0.92360  0.98080  0.24110  Biso   1.000  C
  C62      1.0000 0.07640  0.01920  0.75890  Biso   1.000  C
  H31      1.0000 0.94400  0.02890  0.19200  Biso   1.000  H
  H32      1.0000 0.05600  0.97110  0.80800  Biso   1.000  H
  C63      1.0000 0.93790  0.81210  0.31160  Biso   1.000  C
  C64      1.0000 0.06210  0.18790  0.68840  Biso   1.000  C
  C65      1.0000 0.82490  0.91040  0.73940  Biso   1.000  C
  C66      1.0000 0.17510  0.08960  0.26060  Biso   1.000  C
  H33      1.0000 0.79300  0.95930  0.77520  Biso   1.000  H
  H34      1.0000 0.20700  0.04070  0.22480  Biso   1.000  H
  C67      1.0000 0.71900  0.55830  0.47100  Biso   1.000  C
  C68      1.0000 0.28100  0.44170  0.52900  Biso   1.000  C
  H35      1.0000 0.68980  0.61700  0.43110  Biso   1.000  H
  H36      1.0000 0.31020  0.38300  0.56890  Biso   1.000  H
  C69      1.0000 0.64790  0.74900  0.97710  Biso   1.000  C
  C70      1.0000 0.35210  0.25100  0.02290  Biso   1.000  C
  H37      1.0000 0.60880  0.80390  0.00480  Biso   1.000  H
  H38      1.0000 0.39120  0.19610  0.99520  Biso   1.000  H
  C71      1.0000 0.49010  0.62050  0.93680  Biso   1.000  C
  C72      1.0000 0.50990  0.37950  0.06320  Biso   1.000  C
  H39      1.0000 0.42770  0.60750  0.93700  Biso   1.000  H
  H40      1.0000 0.57230  0.39250  0.06300  Biso   1.000  H
  C73      1.0000 0.80710  0.37810  0.59390  Biso   1.000  C
  C74      1.0000 0.19290  0.62190  0.40610  Biso   1.000  C
  H41      1.0000 0.83570  0.31920  0.63400  Biso   1.000  H
  H42      1.0000 0.16430  0.68080  0.36600  Biso   1.000  H
  C75      1.0000 0.10050  0.69450  0.89500  Biso   1.000  C
  C76      1.0000 0.89950  0.30550  0.10500  Biso   1.000  C
  H43      1.0000 0.05750  0.68010  0.86610  Biso   1.000  H
  H44      1.0000 0.94250  0.31990  0.13390  Biso   1.000  H
  C77      1.0000 0.65520  0.60830  0.91780  Biso   1.000  C
  C78      1.0000 0.34480  0.39170  0.08220  Biso   1.000  C
  C79      1.0000 0.45870  0.60400  0.18640  Biso   1.000  C
  C80      1.0000 0.54130  0.39600  0.81360  Biso   1.000  C
  H45      1.0000 0.45030  0.57820  0.14090  Biso   1.000  H
  H46      1.0000 0.54970  0.42180  0.85910  Biso   1.000  H
  C81      1.0000 0.81260  0.94380  0.39070  Biso   1.000  C
  C82      1.0000 0.18740  0.05620  0.60930  Biso   1.000  C
  H47      1.0000 0.76120  0.96460  0.44170  Biso   1.000  H
  H48      1.0000 0.23880  0.03540  0.55830  Biso   1.000  H
  C83      1.0000 0.97220  0.88130  0.23700  Biso   1.000  C
  C84      1.0000 0.02780  0.11870  0.76300  Biso   1.000  C
  H49      1.0000 0.02550  0.86130  0.18680  Biso   1.000  H
  H50      1.0000 0.97450  0.13870  0.81320  Biso   1.000  H
  C85      1.0000 0.49950  0.58110  0.33670  Biso   1.000  C
  C86      1.0000 0.50050  0.41890  0.66330  Biso   1.000  C
  H51      1.0000 0.51630  0.53790  0.39160  Biso   1.000  H
  H52      1.0000 0.48370  0.46210  0.60840  Biso   1.000  H
  C87      1.0000 0.92420  0.76470  0.62730  Biso   1.000  C
  C88      1.0000 0.07580  0.23530  0.37270  Biso   1.000  C
  H53      1.0000 0.95740  0.71750  0.58960  Biso   1.000  H
  H54      1.0000 0.04260  0.28250  0.41040  Biso   1.000  H
  C89      1.0000 0.12070  0.08770  0.98490  Biso   1.000  C
  C90      1.0000 0.87930  0.91230  0.01510  Biso   1.000  C
  H55      1.0000 0.05330  0.10560  0.02340  Biso   1.000  H
  H56      1.0000 0.94670  0.89440  0.97660  Biso   1.000  H
  C91      1.0000 0.90760  0.68130  0.40350  Biso   1.000  C
  C92      1.0000 0.09240  0.31870  0.59650  Biso   1.000  C
  H57      1.0000 0.91120  0.61470  0.42830  Biso   1.000  H
  H58      1.0000 0.08880  0.38530  0.57170  Biso   1.000  H
  C93      1.0000 0.14980  0.15950  0.91030  Biso   1.000  C
  C94      1.0000 0.85020  0.84050  0.08970  Biso   1.000  C
  H59      1.0000 0.10150  0.22340  0.89920  Biso   1.000  H
  H60      1.0000 0.89850  0.77660  0.10080  Biso   1.000  H
  C95      1.0000 0.18790  0.99090  0.00400  Biso   1.000  C
  C96      1.0000 0.81210  0.00910  0.99600  Biso   1.000  C
  H61      1.0000 0.16670  0.94370  0.05370  Biso   1.000  H
  H62      1.0000 0.83330  0.05630  0.94630  Biso   1.000  H
  C97      1.0000 0.39780  0.72530  0.65020  Biso   1.000  C
  C98      1.0000 0.60220  0.27470  0.34980  Biso   1.000  C
  H63      1.0000 0.37190  0.69200  0.70870  Biso   1.000  H
  H64      1.0000 0.62810  0.30800  0.29130  Biso   1.000  H
  C99      1.0000 0.24940  0.13620  0.85320  Biso   1.000  C
  C100     1.0000 0.75060  0.86380  0.14680  Biso   1.000  C
  H65      1.0000 0.27010  0.18400  0.80390  Biso   1.000  H
  H66      1.0000 0.72990  0.81600  0.19610  Biso   1.000  H
  C101     1.0000 0.76760  0.58120  0.89370  Biso   1.000  C
  C102     1.0000 0.23240  0.41880  0.10630  Biso   1.000  C
  H67      1.0000 0.80710  0.52620  0.86620  Biso   1.000  H
  H68      1.0000 0.19290  0.47380  0.13380  Biso   1.000  H
  C103     1.0000 0.81760  0.63780  0.91150  Biso   1.000  C
  C104     1.0000 0.18240  0.36220  0.08850  Biso   1.000  C
  H69      1.0000 0.89250  0.62060  0.89620  Biso   1.000  H
  H70      1.0000 0.10750  0.37940  0.10380  Biso   1.000  H
  C105     1.0000 0.76970  0.37810  0.51920  Biso   1.000  C
  C106     1.0000 0.23030  0.62190  0.48080  Biso   1.000  C
  H71      1.0000 0.77260  0.31750  0.50880  Biso   1.000  H
  H72      1.0000 0.22740  0.68250  0.49120  Biso   1.000  H
  C107     1.0000 0.75880  0.72180  0.95260  Biso   1.000  C
  C108     1.0000 0.24120  0.27820  0.04740  Biso   1.000  C
  H73      1.0000 0.79540  0.75930  0.96330  Biso   1.000  H
  H74      1.0000 0.20460  0.24070  0.03670  Biso   1.000  H
  C109     1.0000 0.72730  0.46640  0.45840  Biso   1.000  C
  C110     1.0000 0.27270  0.53360  0.54160  Biso   1.000  C
  H75      1.0000 0.70410  0.46270  0.40820  Biso   1.000  H
  H76      1.0000 0.29590  0.53730  0.59180  Biso   1.000  H
  C111     1.0000 0.93260  0.85450  0.73380  Biso   1.000  C
  C112     1.0000 0.06740  0.14550  0.26620  Biso   1.000  C
  H77      1.0000 0.97320  0.86420  0.76850  Biso   1.000  H
  H78      1.0000 0.02680  0.13580  0.23150  Biso   1.000  H
  C113     1.0000 0.88000  0.55850  0.19980  Biso   1.000  C
  C114     1.0000 0.12000  0.44150  0.80020  Biso   1.000  C
  C115     1.0000 0.98130  0.78410  0.67730  Biso   1.000  C
  C116     1.0000 0.01870  0.21590  0.32270  Biso   1.000  C
  H79      1.0000 0.05440  0.74930  0.67350  Biso   1.000  H
  H80      1.0000 0.94560  0.25070  0.32650  Biso   1.000  H
  N35      1.0000 0.95780  0.03890  0.51970  Biso   1.000  N
  N36      1.0000 0.04220  0.96110  0.48030  Biso   1.000  N
  C117     1.0000 0.88720  0.11800  0.57800  Biso   1.000  C
  C118     1.0000 0.11280  0.88200  0.42200  Biso   1.000  C
