data_image0
_cell_length_a       22.3798
_cell_length_b       22.3798
_cell_length_c       11.4888
_cell_angle_alpha    90
_cell_angle_beta     90
_cell_angle_gamma    90

_symmetry_space_group_name_H-M    "P 1"
_symmetry_int_tables_number       1

loop_
  _symmetry_equiv_pos_as_xyz
  'x, y, z'

loop_
  _atom_site_label
  _atom_site_occupancy
  _atom_site_fract_x
  _atom_site_fract_y
  _atom_site_fract_z
  _atom_site_thermal_displace_type
  _atom_site_B_iso_or_equiv
  _atom_site_type_symbol
  Cu1      1.0000 0.60060  0.35448  0.96230  Biso   1.000  Cu
  Cu2      1.0000 0.89940  0.14552  0.46230  Biso   1.000  Cu
  Cu3      1.0000 0.64552  0.10060  0.21230  Biso   1.000  Cu
  Cu4      1.0000 0.85448  0.39940  0.71230  Biso   1.000  Cu
  Cu5      1.0000 0.60060  0.64552  0.46230  Biso   1.000  Cu
  Cu6      1.0000 0.89940  0.85448  0.96230  Biso   1.000  Cu
  Cu7      1.0000 0.64552  0.89940  0.71230  Biso   1.000  Cu
  Cu8      1.0000 0.85448  0.60060  0.21230  Biso   1.000  Cu
  Cu9      1.0000 0.10060  0.85448  0.46230  Biso   1.000  Cu
  Cu10     1.0000 0.39940  0.64552  0.96230  Biso   1.000  Cu
  Cu11     1.0000 0.14552  0.60060  0.71230  Biso   1.000  Cu
  Cu12     1.0000 0.35448  0.89940  0.21230  Biso   1.000  Cu
  Cu13     1.0000 0.10060  0.14552  0.96230  Biso   1.000  Cu
  Cu14     1.0000 0.39940  0.35448  0.46230  Biso   1.000  Cu
  Cu15     1.0000 0.14552  0.39940  0.21230  Biso   1.000  Cu
  Cu16     1.0000 0.35448  0.10060  0.71230  Biso   1.000  Cu
  B1       1.0000 0.64786  0.40062  0.43470  Biso   1.000  B
  B2       1.0000 0.85214  0.09938  0.93470  Biso   1.000  B
  B3       1.0000 0.59938  0.14786  0.68470  Biso   1.000  B
  B4       1.0000 0.90062  0.35214  0.18470  Biso   1.000  B
  B5       1.0000 0.64786  0.59938  0.93470  Biso   1.000  B
  B6       1.0000 0.85214  0.90062  0.43470  Biso   1.000  B
  B7       1.0000 0.59938  0.85214  0.18470  Biso   1.000  B
  B8       1.0000 0.90062  0.64786  0.68470  Biso   1.000  B
  B9       1.0000 0.14786  0.90062  0.93470  Biso   1.000  B
  B10      1.0000 0.35214  0.59938  0.43470  Biso   1.000  B
  B11      1.0000 0.09938  0.64786  0.18470  Biso   1.000  B
  B12      1.0000 0.40062  0.85214  0.68470  Biso   1.000  B
  B13      1.0000 0.14786  0.09938  0.43470  Biso   1.000  B
  B14      1.0000 0.35214  0.40062  0.93470  Biso   1.000  B
  B15      1.0000 0.09938  0.35214  0.68470  Biso   1.000  B
  B16      1.0000 0.40062  0.14786  0.18470  Biso   1.000  B
  C1       1.0000 0.69698  0.49549  0.33890  Biso   1.000  C
  C2       1.0000 0.80302  0.00451  0.83890  Biso   1.000  C
  C3       1.0000 0.50451  0.19698  0.58890  Biso   1.000  C
  C4       1.0000 0.99549  0.30302  0.08890  Biso   1.000  C
  C5       1.0000 0.69698  0.50451  0.83890  Biso   1.000  C
  C6       1.0000 0.80302  0.99549  0.33890  Biso   1.000  C
  C7       1.0000 0.50451  0.80302  0.08890  Biso   1.000  C
  C8       1.0000 0.99549  0.69698  0.58890  Biso   1.000  C
  C9       1.0000 0.19698  0.99549  0.83890  Biso   1.000  C
  C10      1.0000 0.30302  0.50451  0.33890  Biso   1.000  C
  C11      1.0000 0.00451  0.69698  0.08890  Biso   1.000  C
  C12      1.0000 0.49549  0.80302  0.58890  Biso   1.000  C
  C13      1.0000 0.19698  0.00451  0.33890  Biso   1.000  C
  C14      1.0000 0.30302  0.49549  0.83890  Biso   1.000  C
  C15      1.0000 0.00451  0.30302  0.58890  Biso   1.000  C
  C16      1.0000 0.49549  0.19698  0.08890  Biso   1.000  C
  H1       1.0000 0.72920  0.47700  0.30260  Biso   1.000  H
  H2       1.0000 0.77080  0.02300  0.80260  Biso   1.000  H
  H3       1.0000 0.52300  0.22920  0.55260  Biso   1.000  H
  H4       1.0000 0.97700  0.27080  0.05260  Biso   1.000  H
  H5       1.0000 0.72920  0.52300  0.80260  Biso   1.000  H
  H6       1.0000 0.77080  0.97700  0.30260  Biso   1.000  H
  H7       1.0000 0.52300  0.77080  0.05260  Biso   1.000  H
  H8       1.0000 0.97700  0.72920  0.55260  Biso   1.000  H
  H9       1.0000 0.22920  0.97700  0.80260  Biso   1.000  H
  H10      1.0000 0.27080  0.52300  0.30260  Biso   1.000  H
  H11      1.0000 0.02300  0.72920  0.05260  Biso   1.000  H
  H12      1.0000 0.47700  0.77080  0.55260  Biso   1.000  H
  H13      1.0000 0.22920  0.02300  0.30260  Biso   1.000  H
  H14      1.0000 0.27080  0.47700  0.80260  Biso   1.000  H
  H15      1.0000 0.02300  0.27080  0.55260  Biso   1.000  H
  H16      1.0000 0.47700  0.22920  0.05260  Biso   1.000  H
  C17      1.0000 0.74542  0.32634  0.65050  Biso   1.000  C
  C18      1.0000 0.75458  0.17366  0.15050  Biso   1.000  C
  C19      1.0000 0.67366  0.24542  0.90050  Biso   1.000  C
  C20      1.0000 0.82634  0.25458  0.40050  Biso   1.000  C
  C21      1.0000 0.74542  0.67366  0.15050  Biso   1.000  C
  C22      1.0000 0.75458  0.82634  0.65050  Biso   1.000  C
  C23      1.0000 0.67366  0.75458  0.40050  Biso   1.000  C
  C24      1.0000 0.82634  0.74542  0.90050  Biso   1.000  C
  C25      1.0000 0.24542  0.82634  0.15050  Biso   1.000  C
  C26      1.0000 0.25458  0.67366  0.65050  Biso   1.000  C
  C27      1.0000 0.17366  0.74542  0.40050  Biso   1.000  C
  C28      1.0000 0.32634  0.75458  0.90050  Biso   1.000  C
  C29      1.0000 0.24542  0.17366  0.65050  Biso   1.000  C
  C30      1.0000 0.25458  0.32634  0.15050  Biso   1.000  C
  C31      1.0000 0.17366  0.25458  0.90050  Biso   1.000  C
  C32      1.0000 0.32634  0.24542  0.40050  Biso   1.000  C
  H17      1.0000 0.75580  0.29590  0.70190  Biso   1.000  H
  H18      1.0000 0.74420  0.20410  0.20190  Biso   1.000  H
  H19      1.0000 0.70410  0.25580  0.95190  Biso   1.000  H
  H20      1.0000 0.79590  0.24420  0.45190  Biso   1.000  H
  H21      1.0000 0.75580  0.70410  0.20190  Biso   1.000  H
  H22      1.0000 0.74420  0.79590  0.70190  Biso   1.000  H
  H23      1.0000 0.70410  0.74420  0.45190  Biso   1.000  H
  H24      1.0000 0.79590  0.75580  0.95190  Biso   1.000  H
  H25      1.0000 0.25580  0.79590  0.20190  Biso   1.000  H
  H26      1.0000 0.24420  0.70410  0.70190  Biso   1.000  H
  H27      1.0000 0.20410  0.75580  0.45190  Biso   1.000  H
  H28      1.0000 0.29590  0.74420  0.95190  Biso   1.000  H
  H29      1.0000 0.25580  0.20410  0.70190  Biso   1.000  H
  H30      1.0000 0.24420  0.29590  0.20190  Biso   1.000  H
  H31      1.0000 0.20410  0.24420  0.95190  Biso   1.000  H
  H32      1.0000 0.29590  0.25580  0.45190  Biso   1.000  H
  C33      1.0000 0.69426  0.32844  0.58770  Biso   1.000  C
  C34      1.0000 0.80574  0.17156  0.08770  Biso   1.000  C
  C35      1.0000 0.67156  0.19426  0.83770  Biso   1.000  C
  C36      1.0000 0.82844  0.30574  0.33770  Biso   1.000  C
  C37      1.0000 0.69426  0.67156  0.08770  Biso   1.000  C
  C38      1.0000 0.80574  0.82844  0.58770  Biso   1.000  C
  C39      1.0000 0.67156  0.80574  0.33770  Biso   1.000  C
  C40      1.0000 0.82844  0.69426  0.83770  Biso   1.000  C
  C41      1.0000 0.19426  0.82844  0.08770  Biso   1.000  C
  C42      1.0000 0.30574  0.67156  0.58770  Biso   1.000  C
  C43      1.0000 0.17156  0.69426  0.33770  Biso   1.000  C
  C44      1.0000 0.32844  0.80574  0.83770  Biso   1.000  C
  C45      1.0000 0.19426  0.17156  0.58770  Biso   1.000  C
  C46      1.0000 0.30574  0.32844  0.08770  Biso   1.000  C
  C47      1.0000 0.17156  0.30574  0.83770  Biso   1.000  C
  C48      1.0000 0.32844  0.19426  0.33770  Biso   1.000  C
  H33      1.0000 0.66370  0.30030  0.58840  Biso   1.000  H
  H34      1.0000 0.83630  0.19970  0.08840  Biso   1.000  H
  H35      1.0000 0.69970  0.16370  0.83840  Biso   1.000  H
  H36      1.0000 0.80030  0.33630  0.33840  Biso   1.000  H
  H37      1.0000 0.66370  0.69970  0.08840  Biso   1.000  H
  H38      1.0000 0.83630  0.80030  0.58840  Biso   1.000  H
  H39      1.0000 0.69970  0.83630  0.33840  Biso   1.000  H
  H40      1.0000 0.80030  0.66370  0.83840  Biso   1.000  H
  H41      1.0000 0.16370  0.80030  0.08840  Biso   1.000  H
  H42      1.0000 0.33630  0.69970  0.58840  Biso   1.000  H
  H43      1.0000 0.19970  0.66370  0.33840  Biso   1.000  H
  H44      1.0000 0.30030  0.83630  0.83840  Biso   1.000  H
  H45      1.0000 0.16370  0.19970  0.58840  Biso   1.000  H
  H46      1.0000 0.33630  0.30030  0.08840  Biso   1.000  H
  H47      1.0000 0.19970  0.33630  0.83840  Biso   1.000  H
  H48      1.0000 0.30030  0.16370  0.33840  Biso   1.000  H
  C49      1.0000 0.50844  0.39012  0.60820  Biso   1.000  C
  C50      1.0000 0.99156  0.10988  0.10820  Biso   1.000  C
  C51      1.0000 0.60988  0.00844  0.85820  Biso   1.000  C
  C52      1.0000 0.89012  0.49156  0.35820  Biso   1.000  C
  C53      1.0000 0.50844  0.60988  0.10820  Biso   1.000  C
  C54      1.0000 0.99156  0.89012  0.60820  Biso   1.000  C
  C55      1.0000 0.60988  0.99156  0.35820  Biso   1.000  C
  C56      1.0000 0.89012  0.50844  0.85820  Biso   1.000  C
  C57      1.0000 0.00844  0.89012  0.10820  Biso   1.000  C
  C58      1.0000 0.49156  0.60988  0.60820  Biso   1.000  C
  C59      1.0000 0.10988  0.50844  0.35820  Biso   1.000  C
  C60      1.0000 0.39012  0.99156  0.85820  Biso   1.000  C
  C61      1.0000 0.00844  0.10988  0.60820  Biso   1.000  C
  C62      1.0000 0.49156  0.39012  0.10820  Biso   1.000  C
  C63      1.0000 0.10988  0.49156  0.85820  Biso   1.000  C
  C64      1.0000 0.39012  0.00844  0.35820  Biso   1.000  C
  H49      1.0000 0.48500  0.39540  0.67420  Biso   1.000  H
  H50      1.0000 0.01500  0.10460  0.17420  Biso   1.000  H
  H51      1.0000 0.60460  0.98500  0.92420  Biso   1.000  H
  H52      1.0000 0.89540  0.51500  0.42420  Biso   1.000  H
  H53      1.0000 0.48500  0.60460  0.17420  Biso   1.000  H
  H54      1.0000 0.01500  0.89540  0.67420  Biso   1.000  H
  H55      1.0000 0.60460  0.01500  0.42420  Biso   1.000  H
  H56      1.0000 0.89540  0.48500  0.92420  Biso   1.000  H
  H57      1.0000 0.98500  0.89540  0.17420  Biso   1.000  H
  H58      1.0000 0.51500  0.60460  0.67420  Biso   1.000  H
  H59      1.0000 0.10460  0.48500  0.42420  Biso   1.000  H
  H60      1.0000 0.39540  0.01500  0.92420  Biso   1.000  H
  H61      1.0000 0.98500  0.10460  0.67420  Biso   1.000  H
  H62      1.0000 0.51500  0.39540  0.17420  Biso   1.000  H
  H63      1.0000 0.10460  0.51500  0.92420  Biso   1.000  H
  H64      1.0000 0.39540  0.98500  0.42420  Biso   1.000  H
  C65      1.0000 0.68349  0.55407  0.33510  Biso   1.000  C
  C66      1.0000 0.81651  0.94593  0.83510  Biso   1.000  C
  C67      1.0000 0.44593  0.18349  0.58510  Biso   1.000  C
  C68      1.0000 0.05407  0.31651  0.08510  Biso   1.000  C
  C69      1.0000 0.68349  0.44593  0.83510  Biso   1.000  C
  C70      1.0000 0.81651  0.05407  0.33510  Biso   1.000  C
  C71      1.0000 0.44593  0.81651  0.08510  Biso   1.000  C
  C72      1.0000 0.05407  0.68349  0.58510  Biso   1.000  C
  C73      1.0000 0.18349  0.05407  0.83510  Biso   1.000  C
  C74      1.0000 0.31651  0.44593  0.33510  Biso   1.000  C
  C75      1.0000 0.94593  0.68349  0.08510  Biso   1.000  C
  C76      1.0000 0.55407  0.81651  0.58510  Biso   1.000  C
  C77      1.0000 0.18349  0.94593  0.33510  Biso   1.000  C
  C78      1.0000 0.31651  0.55407  0.83510  Biso   1.000  C
  C79      1.0000 0.94593  0.31651  0.58510  Biso   1.000  C
  C80      1.0000 0.55407  0.18349  0.08510  Biso   1.000  C
  H65      1.0000 0.70500  0.58270  0.29420  Biso   1.000  H
  H66      1.0000 0.79500  0.91730  0.79420  Biso   1.000  H
  H67      1.0000 0.41730  0.20500  0.54420  Biso   1.000  H
  H68      1.0000 0.08270  0.29500  0.04420  Biso   1.000  H
  H69      1.0000 0.70500  0.41730  0.79420  Biso   1.000  H
  H70      1.0000 0.79500  0.08270  0.29420  Biso   1.000  H
  H71      1.0000 0.41730  0.79500  0.04420  Biso   1.000  H
  H72      1.0000 0.08270  0.70500  0.54420  Biso   1.000  H
  H73      1.0000 0.20500  0.08270  0.79420  Biso   1.000  H
  H74      1.0000 0.29500  0.41730  0.29420  Biso   1.000  H
  H75      1.0000 0.91730  0.70500  0.04420  Biso   1.000  H
  H76      1.0000 0.58270  0.79500  0.54420  Biso   1.000  H
  H77      1.0000 0.20500  0.91730  0.29420  Biso   1.000  H
  H78      1.0000 0.29500  0.58270  0.79420  Biso   1.000  H
  H79      1.0000 0.91730  0.29500  0.54420  Biso   1.000  H
  H80      1.0000 0.58270  0.20500  0.04420  Biso   1.000  H
  C81      1.0000 0.74825  0.40702  0.54960  Biso   1.000  C
  C82      1.0000 0.75175  0.09298  0.04960  Biso   1.000  C
  C83      1.0000 0.59298  0.24825  0.79960  Biso   1.000  C
  C84      1.0000 0.90702  0.25175  0.29960  Biso   1.000  C
  C85      1.0000 0.74825  0.59298  0.04960  Biso   1.000  C
  C86      1.0000 0.75175  0.90702  0.54960  Biso   1.000  C
  C87      1.0000 0.59298  0.75175  0.29960  Biso   1.000  C
  C88      1.0000 0.90702  0.74825  0.79960  Biso   1.000  C
  C89      1.0000 0.24825  0.90702  0.04960  Biso   1.000  C
  C90      1.0000 0.25175  0.59298  0.54960  Biso   1.000  C
  C91      1.0000 0.09298  0.74825  0.29960  Biso   1.000  C
  C92      1.0000 0.40702  0.75175  0.79960  Biso   1.000  C
  C93      1.0000 0.24825  0.09298  0.54960  Biso   1.000  C
  C94      1.0000 0.25175  0.40702  0.04960  Biso   1.000  C
  C95      1.0000 0.09298  0.25175  0.79960  Biso   1.000  C
  C96      1.0000 0.40702  0.24825  0.29960  Biso   1.000  C
  H81      1.0000 0.76080  0.44310  0.51790  Biso   1.000  H
  H82      1.0000 0.73920  0.05690  0.01790  Biso   1.000  H
  H83      1.0000 0.55690  0.26080  0.76790  Biso   1.000  H
  H84      1.0000 0.94310  0.23920  0.26790  Biso   1.000  H
  H85      1.0000 0.76080  0.55690  0.01790  Biso   1.000  H
  H86      1.0000 0.73920  0.94310  0.51790  Biso   1.000  H
  H87      1.0000 0.55690  0.73920  0.26790  Biso   1.000  H
  H88      1.0000 0.94310  0.76080  0.76790  Biso   1.000  H
  H89      1.0000 0.26080  0.94310  0.01790  Biso   1.000  H
  H90      1.0000 0.23920  0.55690  0.51790  Biso   1.000  H
  H91      1.0000 0.05690  0.76080  0.26790  Biso   1.000  H
  H92      1.0000 0.44310  0.73920  0.76790  Biso   1.000  H
  H93      1.0000 0.26080  0.05690  0.51790  Biso   1.000  H
  H94      1.0000 0.23920  0.44310  0.01790  Biso   1.000  H
  H95      1.0000 0.05690  0.23920  0.76790  Biso   1.000  H
  H96      1.0000 0.44310  0.26080  0.26790  Biso   1.000  H
  C97      1.0000 0.56825  0.40141  0.60180  Biso   1.000  C
  C98      1.0000 0.93175  0.09859  0.10180  Biso   1.000  C
  C99      1.0000 0.59859  0.06825  0.85180  Biso   1.000  C
  C100     1.0000 0.90141  0.43175  0.35180  Biso   1.000  C
  C101     1.0000 0.56825  0.59859  0.10180  Biso   1.000  C
  C102     1.0000 0.93175  0.90141  0.60180  Biso   1.000  C
  C103     1.0000 0.59859  0.93175  0.35180  Biso   1.000  C
  C104     1.0000 0.90141  0.56825  0.85180  Biso   1.000  C
  C105     1.0000 0.06825  0.90141  0.10180  Biso   1.000  C
  C106     1.0000 0.43175  0.59859  0.60180  Biso   1.000  C
  C107     1.0000 0.09859  0.56825  0.35180  Biso   1.000  C
  C108     1.0000 0.40141  0.93175  0.85180  Biso   1.000  C
  C109     1.0000 0.06825  0.09859  0.60180  Biso   1.000  C
  C110     1.0000 0.43175  0.40141  0.10180  Biso   1.000  C
  C111     1.0000 0.09859  0.43175  0.85180  Biso   1.000  C
  C112     1.0000 0.40141  0.06825  0.35180  Biso   1.000  C
  H97      1.0000 0.59250  0.41540  0.66160  Biso   1.000  H
  H98      1.0000 0.90750  0.08460  0.16160  Biso   1.000  H
  H99      1.0000 0.58460  0.09250  0.91160  Biso   1.000  H
  H100     1.0000 0.91540  0.40750  0.41160  Biso   1.000  H
  H101     1.0000 0.59250  0.58460  0.16160  Biso   1.000  H
  H102     1.0000 0.90750  0.91540  0.66160  Biso   1.000  H
  H103     1.0000 0.58460  0.90750  0.41160  Biso   1.000  H
  H104     1.0000 0.91540  0.59250  0.91160  Biso   1.000  H
  H105     1.0000 0.09250  0.91540  0.16160  Biso   1.000  H
  H106     1.0000 0.40750  0.58460  0.66160  Biso   1.000  H
  H107     1.0000 0.08460  0.59250  0.41160  Biso   1.000  H
  H108     1.0000 0.41540  0.90750  0.91160  Biso   1.000  H
  H109     1.0000 0.09250  0.08460  0.66160  Biso   1.000  H
  H110     1.0000 0.40750  0.41540  0.16160  Biso   1.000  H
  H111     1.0000 0.08460  0.40750  0.91160  Biso   1.000  H
  H112     1.0000 0.41540  0.09250  0.41160  Biso   1.000  H
  C113     1.0000 0.61695  0.51275  0.44130  Biso   1.000  C
  C114     1.0000 0.88305  0.98725  0.94130  Biso   1.000  C
  C115     1.0000 0.48725  0.11695  0.69130  Biso   1.000  C
  C116     1.0000 0.01275  0.38305  0.19130  Biso   1.000  C
  C117     1.0000 0.61695  0.48725  0.94130  Biso   1.000  C
  C118     1.0000 0.88305  0.01275  0.44130  Biso   1.000  C
  C119     1.0000 0.48725  0.88305  0.19130  Biso   1.000  C
  C120     1.0000 0.01275  0.61695  0.69130  Biso   1.000  C
  C121     1.0000 0.11695  0.01275  0.94130  Biso   1.000  C
  C122     1.0000 0.38305  0.48725  0.44130  Biso   1.000  C
  C123     1.0000 0.98725  0.61695  0.19130  Biso   1.000  C
  C124     1.0000 0.51275  0.88305  0.69130  Biso   1.000  C
  C125     1.0000 0.11695  0.98725  0.44130  Biso   1.000  C
  C126     1.0000 0.38305  0.51275  0.94130  Biso   1.000  C
  C127     1.0000 0.98725  0.38305  0.69130  Biso   1.000  C
  C128     1.0000 0.51275  0.11695  0.19130  Biso   1.000  C
  H113     1.0000 0.58370  0.50690  0.48840  Biso   1.000  H
  H114     1.0000 0.91630  0.99310  0.98840  Biso   1.000  H
  H115     1.0000 0.49310  0.08370  0.73840  Biso   1.000  H
  H116     1.0000 0.00690  0.41630  0.23840  Biso   1.000  H
  H117     1.0000 0.58370  0.49310  0.98840  Biso   1.000  H
  H118     1.0000 0.91630  0.00690  0.48840  Biso   1.000  H
  H119     1.0000 0.49310  0.91630  0.23840  Biso   1.000  H
  H120     1.0000 0.00690  0.58370  0.73840  Biso   1.000  H
  H121     1.0000 0.08370  0.00690  0.98840  Biso   1.000  H
  H122     1.0000 0.41630  0.49310  0.48840  Biso   1.000  H
  H123     1.0000 0.99310  0.58370  0.23840  Biso   1.000  H
  H124     1.0000 0.50690  0.91630  0.73840  Biso   1.000  H
  H125     1.0000 0.08370  0.99310  0.48840  Biso   1.000  H
  H126     1.0000 0.41630  0.50690  0.98840  Biso   1.000  H
  H127     1.0000 0.99310  0.41630  0.73840  Biso   1.000  H
  H128     1.0000 0.50690  0.08370  0.23840  Biso   1.000  H
  C129     1.0000 0.63914  0.38613  0.21050  Biso   1.000  C
  C130     1.0000 0.86086  0.11387  0.71050  Biso   1.000  C
  C131     1.0000 0.61387  0.13914  0.46050  Biso   1.000  C
  C132     1.0000 0.88613  0.36086  0.96050  Biso   1.000  C
  C133     1.0000 0.63914  0.61387  0.71050  Biso   1.000  C
  C134     1.0000 0.86086  0.88613  0.21050  Biso   1.000  C
  C135     1.0000 0.61387  0.86086  0.96050  Biso   1.000  C
  C136     1.0000 0.88613  0.63914  0.46050  Biso   1.000  C
  C137     1.0000 0.13914  0.88613  0.71050  Biso   1.000  C
  C138     1.0000 0.36086  0.61387  0.21050  Biso   1.000  C
  C139     1.0000 0.11387  0.63914  0.96050  Biso   1.000  C
  C140     1.0000 0.38613  0.86086  0.46050  Biso   1.000  C
  C141     1.0000 0.13914  0.11387  0.21050  Biso   1.000  C
  C142     1.0000 0.36086  0.38613  0.71050  Biso   1.000  C
  C143     1.0000 0.11387  0.36086  0.46050  Biso   1.000  C
  C144     1.0000 0.38613  0.13914  0.96050  Biso   1.000  C
  H129     1.0000 0.63170  0.42610  0.19370  Biso   1.000  H
  H130     1.0000 0.86830  0.07390  0.69370  Biso   1.000  H
  H131     1.0000 0.57390  0.13170  0.44370  Biso   1.000  H
  H132     1.0000 0.92610  0.36830  0.94370  Biso   1.000  H
  H133     1.0000 0.63170  0.57390  0.69370  Biso   1.000  H
  H134     1.0000 0.86830  0.92610  0.19370  Biso   1.000  H
  H135     1.0000 0.57390  0.86830  0.94370  Biso   1.000  H
  H136     1.0000 0.92610  0.63170  0.44370  Biso   1.000  H
  H137     1.0000 0.13170  0.92610  0.69370  Biso   1.000  H
  H138     1.0000 0.36830  0.57390  0.19370  Biso   1.000  H
  H139     1.0000 0.07390  0.63170  0.94370  Biso   1.000  H
  H140     1.0000 0.42610  0.86830  0.44370  Biso   1.000  H
  H141     1.0000 0.13170  0.07390  0.19370  Biso   1.000  H
  H142     1.0000 0.36830  0.42610  0.69370  Biso   1.000  H
  H143     1.0000 0.07390  0.36830  0.44370  Biso   1.000  H
  H144     1.0000 0.42610  0.13170  0.94370  Biso   1.000  H
  C145     1.0000 0.53582  0.36919  0.43500  Biso   1.000  C
  C146     1.0000 0.96418  0.13081  0.93500  Biso   1.000  C
  C147     1.0000 0.63081  0.03582  0.68500  Biso   1.000  C
  C148     1.0000 0.86919  0.46418  0.18500  Biso   1.000  C
  C149     1.0000 0.53582  0.63081  0.93500  Biso   1.000  C
  C150     1.0000 0.96418  0.86919  0.43500  Biso   1.000  C
  C151     1.0000 0.63081  0.96418  0.18500  Biso   1.000  C
  C152     1.0000 0.86919  0.53582  0.68500  Biso   1.000  C
  C153     1.0000 0.03582  0.86919  0.93500  Biso   1.000  C
  C154     1.0000 0.46418  0.63081  0.43500  Biso   1.000  C
  C155     1.0000 0.13081  0.53582  0.18500  Biso   1.000  C
  C156     1.0000 0.36919  0.96418  0.68500  Biso   1.000  C
  C157     1.0000 0.03582  0.13081  0.43500  Biso   1.000  C
  C158     1.0000 0.46418  0.36919  0.93500  Biso   1.000  C
  C159     1.0000 0.13081  0.46418  0.68500  Biso   1.000  C
  C160     1.0000 0.36919  0.03582  0.18500  Biso   1.000  C
  H145     1.0000 0.53520  0.35700  0.35770  Biso   1.000  H
  H146     1.0000 0.96480  0.14300  0.85770  Biso   1.000  H
  H147     1.0000 0.64300  0.03520  0.60770  Biso   1.000  H
  H148     1.0000 0.85700  0.46480  0.10770  Biso   1.000  H
  H149     1.0000 0.53520  0.64300  0.85770  Biso   1.000  H
  H150     1.0000 0.96480  0.85700  0.35770  Biso   1.000  H
  H151     1.0000 0.64300  0.96480  0.10770  Biso   1.000  H
  H152     1.0000 0.85700  0.53520  0.60770  Biso   1.000  H
  H153     1.0000 0.03520  0.85700  0.85770  Biso   1.000  H
  H154     1.0000 0.46480  0.64300  0.35770  Biso   1.000  H
  H155     1.0000 0.14300  0.53520  0.10770  Biso   1.000  H
  H156     1.0000 0.35700  0.96480  0.60770  Biso   1.000  H
  H157     1.0000 0.03520  0.14300  0.35770  Biso   1.000  H
  H158     1.0000 0.46480  0.35700  0.85770  Biso   1.000  H
  H159     1.0000 0.14300  0.46480  0.60770  Biso   1.000  H
  H160     1.0000 0.35700  0.03520  0.10770  Biso   1.000  H
  C161     1.0000 0.65964  0.30523  0.30560  Biso   1.000  C
  C162     1.0000 0.84036  0.19477  0.80560  Biso   1.000  C
  C163     1.0000 0.69477  0.15964  0.55560  Biso   1.000  C
  C164     1.0000 0.80523  0.34036  0.05560  Biso   1.000  C
  C165     1.0000 0.65964  0.69477  0.80560  Biso   1.000  C
  C166     1.0000 0.84036  0.80523  0.30560  Biso   1.000  C
  C167     1.0000 0.69477  0.84036  0.05560  Biso   1.000  C
  C168     1.0000 0.80523  0.65964  0.55560  Biso   1.000  C
  C169     1.0000 0.15964  0.80523  0.80560  Biso   1.000  C
  C170     1.0000 0.34036  0.69477  0.30560  Biso   1.000  C
  C171     1.0000 0.19477  0.65964  0.05560  Biso   1.000  C
  C172     1.0000 0.30523  0.84036  0.55560  Biso   1.000  C
  C173     1.0000 0.15964  0.19477  0.30560  Biso   1.000  C
  C174     1.0000 0.34036  0.30523  0.80560  Biso   1.000  C
  C175     1.0000 0.19477  0.34036  0.55560  Biso   1.000  C
  C176     1.0000 0.30523  0.15964  0.05560  Biso   1.000  C
  H161     1.0000 0.66900  0.27800  0.36410  Biso   1.000  H
  H162     1.0000 0.83100  0.22200  0.86410  Biso   1.000  H
  H163     1.0000 0.72200  0.16900  0.61410  Biso   1.000  H
  H164     1.0000 0.77800  0.33100  0.11410  Biso   1.000  H
  H165     1.0000 0.66900  0.72200  0.86410  Biso   1.000  H
  H166     1.0000 0.83100  0.77800  0.36410  Biso   1.000  H
  H167     1.0000 0.72200  0.83100  0.11410  Biso   1.000  H
  H168     1.0000 0.77800  0.66900  0.61410  Biso   1.000  H
  H169     1.0000 0.16900  0.77800  0.86410  Biso   1.000  H
  H170     1.0000 0.33100  0.72200  0.36410  Biso   1.000  H
  H171     1.0000 0.22200  0.66900  0.11410  Biso   1.000  H
  H172     1.0000 0.27800  0.83100  0.61410  Biso   1.000  H
  H173     1.0000 0.16900  0.22200  0.36410  Biso   1.000  H
  H174     1.0000 0.33100  0.27800  0.86410  Biso   1.000  H
  H175     1.0000 0.22200  0.33100  0.61410  Biso   1.000  H
  H176     1.0000 0.27800  0.16900  0.11410  Biso   1.000  H
  C177     1.0000 0.65042  0.29233  0.19230  Biso   1.000  C
  C178     1.0000 0.84958  0.20767  0.69230  Biso   1.000  C
  C179     1.0000 0.70767  0.15042  0.44230  Biso   1.000  C
  C180     1.0000 0.79233  0.34958  0.94230  Biso   1.000  C
  C181     1.0000 0.65042  0.70767  0.69230  Biso   1.000  C
  C182     1.0000 0.84958  0.79233  0.19230  Biso   1.000  C
  C183     1.0000 0.70767  0.84958  0.94230  Biso   1.000  C
  C184     1.0000 0.79233  0.65042  0.44230  Biso   1.000  C
  C185     1.0000 0.15042  0.79233  0.69230  Biso   1.000  C
  C186     1.0000 0.34958  0.70767  0.19230  Biso   1.000  C
  C187     1.0000 0.20767  0.65042  0.94230  Biso   1.000  C
  C188     1.0000 0.29233  0.84958  0.44230  Biso   1.000  C
  C189     1.0000 0.15042  0.20767  0.19230  Biso   1.000  C
  C190     1.0000 0.34958  0.29233  0.69230  Biso   1.000  C
  C191     1.0000 0.20767  0.34958  0.44230  Biso   1.000  C
  C192     1.0000 0.29233  0.15042  0.94230  Biso   1.000  C
  H177     1.0000 0.65250  0.25430  0.16000  Biso   1.000  H
  H178     1.0000 0.84750  0.24570  0.66000  Biso   1.000  H
  H179     1.0000 0.74570  0.15250  0.41000  Biso   1.000  H
  H180     1.0000 0.75430  0.34750  0.91000  Biso   1.000  H
  H181     1.0000 0.65250  0.74570  0.66000  Biso   1.000  H
  H182     1.0000 0.84750  0.75430  0.16000  Biso   1.000  H
  H183     1.0000 0.74570  0.84750  0.91000  Biso   1.000  H
  H184     1.0000 0.75430  0.65250  0.41000  Biso   1.000  H
  H185     1.0000 0.15250  0.75430  0.66000  Biso   1.000  H
  H186     1.0000 0.34750  0.74570  0.16000  Biso   1.000  H
  H187     1.0000 0.24570  0.65250  0.91000  Biso   1.000  H
  H188     1.0000 0.25430  0.84750  0.41000  Biso   1.000  H
  H189     1.0000 0.15250  0.24570  0.16000  Biso   1.000  H
  H190     1.0000 0.34750  0.25430  0.66000  Biso   1.000  H
  H191     1.0000 0.24570  0.34750  0.41000  Biso   1.000  H
  H192     1.0000 0.25430  0.15250  0.91000  Biso   1.000  H
  N1       1.0000 0.63746  0.34387  0.13140  Biso   1.000  N
  N2       1.0000 0.86254  0.15613  0.63140  Biso   1.000  N
  N3       1.0000 0.65613  0.13746  0.38140  Biso   1.000  N
  N4       1.0000 0.84387  0.36254  0.88140  Biso   1.000  N
  N5       1.0000 0.63746  0.65613  0.63140  Biso   1.000  N
  N6       1.0000 0.86254  0.84387  0.13140  Biso   1.000  N
  N7       1.0000 0.65613  0.86254  0.88140  Biso   1.000  N
  N8       1.0000 0.84387  0.63746  0.38140  Biso   1.000  N
  N9       1.0000 0.13746  0.84387  0.63140  Biso   1.000  N
  N10      1.0000 0.36254  0.65613  0.13140  Biso   1.000  N
  N11      1.0000 0.15613  0.63746  0.88140  Biso   1.000  N
  N12      1.0000 0.34387  0.86254  0.38140  Biso   1.000  N
  N13      1.0000 0.13746  0.15613  0.13140  Biso   1.000  N
  N14      1.0000 0.36254  0.34387  0.63140  Biso   1.000  N
  N15      1.0000 0.15613  0.36254  0.38140  Biso   1.000  N
  N16      1.0000 0.34387  0.13746  0.88140  Biso   1.000  N
  N17      1.0000 0.65275  0.36613  0.31910  Biso   1.000  N
  N18      1.0000 0.84725  0.13387  0.81910  Biso   1.000  N
  N19      1.0000 0.63387  0.15275  0.56910  Biso   1.000  N
  N20      1.0000 0.86613  0.34725  0.06910  Biso   1.000  N
  N21      1.0000 0.65275  0.63387  0.81910  Biso   1.000  N
  N22      1.0000 0.84725  0.86613  0.31910  Biso   1.000  N
  N23      1.0000 0.63387  0.84725  0.06910  Biso   1.000  N
  N24      1.0000 0.86613  0.65275  0.56910  Biso   1.000  N
  N25      1.0000 0.15275  0.86613  0.81910  Biso   1.000  N
  N26      1.0000 0.34725  0.63387  0.31910  Biso   1.000  N
  N27      1.0000 0.13387  0.65275  0.06910  Biso   1.000  N
  N28      1.0000 0.36613  0.84725  0.56910  Biso   1.000  N
  N29      1.0000 0.15275  0.13387  0.31910  Biso   1.000  N
  N30      1.0000 0.34725  0.36613  0.81910  Biso   1.000  N
  N31      1.0000 0.13387  0.34725  0.56910  Biso   1.000  N
  N32      1.0000 0.36613  0.15275  0.06910  Biso   1.000  N
  N33      1.0000 0.48774  0.36962  0.50185  Biso   1.000  N
  N34      1.0000 0.01226  0.13038  0.00185  Biso   1.000  N
  N35      1.0000 0.63038  0.98774  0.75185  Biso   1.000  N
  N36      1.0000 0.86962  0.51226  0.25185  Biso   1.000  N
  N37      1.0000 0.48774  0.63038  0.00185  Biso   1.000  N
  N38      1.0000 0.01226  0.86962  0.50185  Biso   1.000  N
  N39      1.0000 0.63038  0.01226  0.25185  Biso   1.000  N
  N40      1.0000 0.86962  0.48774  0.75185  Biso   1.000  N
  N41      1.0000 0.98774  0.86962  0.00185  Biso   1.000  N
  N42      1.0000 0.51226  0.63038  0.50185  Biso   1.000  N
  N43      1.0000 0.13038  0.48774  0.25185  Biso   1.000  N
  N44      1.0000 0.36962  0.01226  0.75185  Biso   1.000  N
  N45      1.0000 0.98774  0.13038  0.50185  Biso   1.000  N
  N46      1.0000 0.51226  0.36962  0.00185  Biso   1.000  N
  N47      1.0000 0.13038  0.51226  0.75185  Biso   1.000  N
  N48      1.0000 0.36962  0.98774  0.25185  Biso   1.000  N
  N49      1.0000 0.77981  0.37608  0.62694  Biso   1.000  N
  N50      1.0000 0.72019  0.12392  0.12694  Biso   1.000  N
  N51      1.0000 0.62392  0.27981  0.87694  Biso   1.000  N
  N52      1.0000 0.87608  0.22019  0.37694  Biso   1.000  N
  N53      1.0000 0.77981  0.62392  0.12694  Biso   1.000  N
  N54      1.0000 0.72019  0.87608  0.62694  Biso   1.000  N
  N55      1.0000 0.62392  0.72019  0.37694  Biso   1.000  N
  N56      1.0000 0.87608  0.77981  0.87694  Biso   1.000  N
  N57      1.0000 0.27981  0.87608  0.12694  Biso   1.000  N
  N58      1.0000 0.22019  0.62392  0.62694  Biso   1.000  N
  N59      1.0000 0.12392  0.77981  0.37694  Biso   1.000  N
  N60      1.0000 0.37608  0.72019  0.87694  Biso   1.000  N
  N61      1.0000 0.27981  0.12392  0.62694  Biso   1.000  N
  N62      1.0000 0.22019  0.37608  0.12694  Biso   1.000  N
  N63      1.0000 0.12392  0.22019  0.87694  Biso   1.000  N
  N64      1.0000 0.37608  0.27981  0.37694  Biso   1.000  N
  N65      1.0000 0.65387  0.46778  0.40733  Biso   1.000  N
  N66      1.0000 0.84613  0.03222  0.90733  Biso   1.000  N
  N67      1.0000 0.53222  0.15387  0.65733  Biso   1.000  N
  N68      1.0000 0.96778  0.34613  0.15733  Biso   1.000  N
  N69      1.0000 0.65387  0.53222  0.90733  Biso   1.000  N
  N70      1.0000 0.84613  0.96778  0.40733  Biso   1.000  N
  N71      1.0000 0.53222  0.84613  0.15733  Biso   1.000  N
  N72      1.0000 0.96778  0.65387  0.65733  Biso   1.000  N
  N73      1.0000 0.15387  0.96778  0.90733  Biso   1.000  N
  N74      1.0000 0.34613  0.53222  0.40733  Biso   1.000  N
  N75      1.0000 0.03222  0.65387  0.15733  Biso   1.000  N
  N76      1.0000 0.46778  0.84613  0.65733  Biso   1.000  N
  N77      1.0000 0.15387  0.03222  0.40733  Biso   1.000  N
  N78      1.0000 0.34613  0.46778  0.90733  Biso   1.000  N
  N79      1.0000 0.03222  0.34613  0.65733  Biso   1.000  N
  N80      1.0000 0.46778  0.15387  0.15733  Biso   1.000  N
  N81      1.0000 0.58591  0.38809  0.48948  Biso   1.000  N
  N82      1.0000 0.91409  0.11191  0.98948  Biso   1.000  N
  N83      1.0000 0.61191  0.08591  0.73948  Biso   1.000  N
  N84      1.0000 0.88809  0.41409  0.23948  Biso   1.000  N
  N85      1.0000 0.58591  0.61191  0.98948  Biso   1.000  N
  N86      1.0000 0.91409  0.88809  0.48948  Biso   1.000  N
  N87      1.0000 0.61191  0.91409  0.23948  Biso   1.000  N
  N88      1.0000 0.88809  0.58591  0.73948  Biso   1.000  N
  N89      1.0000 0.08591  0.88809  0.98948  Biso   1.000  N
  N90      1.0000 0.41409  0.61191  0.48948  Biso   1.000  N
  N91      1.0000 0.11191  0.58591  0.23948  Biso   1.000  N
  N92      1.0000 0.38809  0.91409  0.73948  Biso   1.000  N
  N93      1.0000 0.08591  0.11191  0.48948  Biso   1.000  N
  N94      1.0000 0.41409  0.38809  0.98948  Biso   1.000  N
  N95      1.0000 0.11191  0.41409  0.73948  Biso   1.000  N
  N96      1.0000 0.38809  0.08591  0.23948  Biso   1.000  N
  N97      1.0000 0.63310  0.56557  0.40070  Biso   1.000  N
  N98      1.0000 0.86690  0.93443  0.90070  Biso   1.000  N
  N99      1.0000 0.43443  0.13310  0.65070  Biso   1.000  N
  N100     1.0000 0.06557  0.36690  0.15070  Biso   1.000  N
  N101     1.0000 0.63310  0.43443  0.90070  Biso   1.000  N
  N102     1.0000 0.86690  0.06557  0.40070  Biso   1.000  N
  N103     1.0000 0.43443  0.86690  0.15070  Biso   1.000  N
  N104     1.0000 0.06557  0.63310  0.65070  Biso   1.000  N
  N105     1.0000 0.13310  0.06557  0.90070  Biso   1.000  N
  N106     1.0000 0.36690  0.43443  0.40070  Biso   1.000  N
  N107     1.0000 0.93443  0.63310  0.15070  Biso   1.000  N
  N108     1.0000 0.56557  0.86690  0.65070  Biso   1.000  N
  N109     1.0000 0.13310  0.93443  0.40070  Biso   1.000  N
  N110     1.0000 0.36690  0.56557  0.90070  Biso   1.000  N
  N111     1.0000 0.93443  0.36690  0.65070  Biso   1.000  N
  N112     1.0000 0.56557  0.13310  0.15070  Biso   1.000  N
  N113     1.0000 0.69599  0.38042  0.52215  Biso   1.000  N
  N114     1.0000 0.80401  0.11958  0.02215  Biso   1.000  N
  N115     1.0000 0.61958  0.19599  0.77215  Biso   1.000  N
  N116     1.0000 0.88042  0.30401  0.27215  Biso   1.000  N
  N117     1.0000 0.69599  0.61958  0.02215  Biso   1.000  N
  N118     1.0000 0.80401  0.88042  0.52215  Biso   1.000  N
  N119     1.0000 0.61958  0.80401  0.27215  Biso   1.000  N
  N120     1.0000 0.88042  0.69599  0.77215  Biso   1.000  N
  N121     1.0000 0.19599  0.88042  0.02215  Biso   1.000  N
  N122     1.0000 0.30401  0.61958  0.52215  Biso   1.000  N
  N123     1.0000 0.11958  0.69599  0.27215  Biso   1.000  N
  N124     1.0000 0.38042  0.80401  0.77215  Biso   1.000  N
  N125     1.0000 0.19599  0.11958  0.52215  Biso   1.000  N
  N126     1.0000 0.30401  0.38042  0.02215  Biso   1.000  N
  N127     1.0000 0.11958  0.30401  0.77215  Biso   1.000  N
  N128     1.0000 0.38042  0.19599  0.27215  Biso   1.000  N
