data_image0
_cell_length_a       8.0101
_cell_length_b       14.0853
_cell_length_c       10.0845
_cell_angle_alpha    90
_cell_angle_beta     94.248
_cell_angle_gamma    90

_symmetry_space_group_name_H-M    "P 1"
_symmetry_int_tables_number       1

loop_
  _symmetry_equiv_pos_as_xyz
  'x, y, z'

loop_
  _atom_site_label
  _atom_site_occupancy
  _atom_site_fract_x
  _atom_site_fract_y
  _atom_site_fract_z
  _atom_site_thermal_displace_type
  _atom_site_B_iso_or_equiv
  _atom_site_type_symbol
  Cu1      1.0000 0.93841  0.90614  0.05067  Biso   1.000  Cu
  Cu2      1.0000 0.06159  0.40614  0.44933  Biso   1.000  Cu
  Cu3      1.0000 0.06159  0.09386  0.94933  Biso   1.000  Cu
  Cu4      1.0000 0.93841  0.59386  0.55067  Biso   1.000  Cu
  B1       1.0000 0.44420  0.85700  0.64160  Biso   1.000  B
  B2       1.0000 0.55580  0.35700  0.85840  Biso   1.000  B
  B3       1.0000 0.55580  0.14300  0.35840  Biso   1.000  B
  B4       1.0000 0.44420  0.64300  0.14160  Biso   1.000  B
  H1       1.0000 0.46800  0.86820  0.54000  Biso   1.000  H
  H2       1.0000 0.53200  0.36820  0.96000  Biso   1.000  H
  H3       1.0000 0.53200  0.13180  0.46000  Biso   1.000  H
  H4       1.0000 0.46800  0.63180  0.04000  Biso   1.000  H
  N1       1.0000 0.61640  0.85387  0.72270  Biso   1.000  N
  N2       1.0000 0.38360  0.35387  0.77730  Biso   1.000  N
  N3       1.0000 0.38360  0.14613  0.27730  Biso   1.000  N
  N4       1.0000 0.61640  0.64613  0.22270  Biso   1.000  N
  N5       1.0000 0.82370  0.86993  0.88100  Biso   1.000  N
  N6       1.0000 0.17630  0.36993  0.61900  Biso   1.000  N
  N7       1.0000 0.17630  0.13007  0.11900  Biso   1.000  N
  N8       1.0000 0.82370  0.63007  0.38100  Biso   1.000  N
  N9       1.0000 0.33360  0.93820  0.68750  Biso   1.000  N
  N10      1.0000 0.66640  0.43820  0.81250  Biso   1.000  N
  N11      1.0000 0.66640  0.06180  0.31250  Biso   1.000  N
  N12      1.0000 0.33360  0.56180  0.18750  Biso   1.000  N
  N13      1.0000 0.17330  0.03055  0.80500  Biso   1.000  N
  N14      1.0000 0.82670  0.53055  0.69500  Biso   1.000  N
  N15      1.0000 0.82670  0.96945  0.19500  Biso   1.000  N
  N16      1.0000 0.17330  0.46945  0.30500  Biso   1.000  N
  N17      1.0000 0.35380  0.76051  0.65650  Biso   1.000  N
  N18      1.0000 0.64620  0.26051  0.84350  Biso   1.000  N
  N19      1.0000 0.64620  0.23949  0.34350  Biso   1.000  N
  N20      1.0000 0.35380  0.73949  0.15650  Biso   1.000  N
  N21      1.0000 0.15720  0.65075  0.61540  Biso   1.000  N
  N22      1.0000 0.84280  0.15075  0.88460  Biso   1.000  N
  N23      1.0000 0.84280  0.34925  0.38460  Biso   1.000  N
  N24      1.0000 0.15720  0.84925  0.11540  Biso   1.000  N
  C1       1.0000 0.66320  0.88290  0.84630  Biso   1.000  C
  C2       1.0000 0.33680  0.38290  0.65370  Biso   1.000  C
  C3       1.0000 0.33680  0.11710  0.15370  Biso   1.000  C
  C4       1.0000 0.66320  0.61710  0.34630  Biso   1.000  C
  H5       1.0000 0.58930  0.90970  0.90250  Biso   1.000  H
  H6       1.0000 0.41070  0.40970  0.59750  Biso   1.000  H
  H7       1.0000 0.41070  0.09030  0.09750  Biso   1.000  H
  H8       1.0000 0.58930  0.59030  0.40250  Biso   1.000  H
  C5       1.0000 0.76060  0.81890  0.67570  Biso   1.000  C
  C6       1.0000 0.23940  0.31890  0.82430  Biso   1.000  C
  C7       1.0000 0.23940  0.18110  0.32430  Biso   1.000  C
  C8       1.0000 0.76060  0.68110  0.17570  Biso   1.000  C
  H9       1.0000 0.77080  0.79270  0.59200  Biso   1.000  H
  H10      1.0000 0.22920  0.29270  0.90800  Biso   1.000  H
  H11      1.0000 0.22920  0.20730  0.40800  Biso   1.000  H
  H12      1.0000 0.77080  0.70730  0.09200  Biso   1.000  H
  C9       1.0000 0.88440  0.82920  0.77180  Biso   1.000  C
  C10      1.0000 0.11560  0.32920  0.72820  Biso   1.000  C
  C11      1.0000 0.11560  0.17080  0.22820  Biso   1.000  C
  C12      1.0000 0.88440  0.67080  0.27180  Biso   1.000  C
  H13      1.0000 0.99520  0.81120  0.76500  Biso   1.000  H
  H14      1.0000 0.00480  0.31120  0.73500  Biso   1.000  H
  H15      1.0000 0.00480  0.18880  0.23500  Biso   1.000  H
  H16      1.0000 0.99520  0.68880  0.26500  Biso   1.000  H
  C13      1.0000 0.27120  0.95510  0.80640  Biso   1.000  C
  C14      1.0000 0.72880  0.45510  0.69360  Biso   1.000  C
  C15      1.0000 0.72880  0.04490  0.19360  Biso   1.000  C
  C16      1.0000 0.27120  0.54490  0.30640  Biso   1.000  C
  H17      1.0000 0.29490  0.91750  0.88120  Biso   1.000  H
  H18      1.0000 0.70510  0.41750  0.61880  Biso   1.000  H
  H19      1.0000 0.70510  0.08250  0.11880  Biso   1.000  H
  H20      1.0000 0.29490  0.58250  0.38120  Biso   1.000  H
  C17      1.0000 0.26890  0.00850  0.60610  Biso   1.000  C
  C18      1.0000 0.73110  0.50850  0.89390  Biso   1.000  C
  C19      1.0000 0.73110  0.99150  0.39390  Biso   1.000  C
  C20      1.0000 0.26890  0.49150  0.10610  Biso   1.000  C
  H21      1.0000 0.28860  0.01670  0.51710  Biso   1.000  H
  H22      1.0000 0.71140  0.51670  0.98290  Biso   1.000  H
  H23      1.0000 0.71140  0.98330  0.48290  Biso   1.000  H
  H24      1.0000 0.28860  0.48330  0.01710  Biso   1.000  H
  C21      1.0000 0.17170  0.06390  0.67690  Biso   1.000  C
  C22      1.0000 0.82830  0.56390  0.82310  Biso   1.000  C
  C23      1.0000 0.82830  0.93610  0.32310  Biso   1.000  C
  C24      1.0000 0.17170  0.43610  0.17690  Biso   1.000  C
  H25      1.0000 0.11240  0.11680  0.64410  Biso   1.000  H
  H26      1.0000 0.88760  0.61680  0.85590  Biso   1.000  H
  H27      1.0000 0.88760  0.88320  0.35590  Biso   1.000  H
  H28      1.0000 0.11240  0.38320  0.14410  Biso   1.000  H
  C25      1.0000 0.21750  0.73290  0.58100  Biso   1.000  C
  C26      1.0000 0.78250  0.23290  0.91900  Biso   1.000  C
  C27      1.0000 0.78250  0.26710  0.41900  Biso   1.000  C
  C28      1.0000 0.21750  0.76710  0.08100  Biso   1.000  C
  H29      1.0000 0.17010  0.76880  0.51050  Biso   1.000  H
  H30      1.0000 0.82990  0.26880  0.98950  Biso   1.000  H
  H31      1.0000 0.82990  0.23120  0.48950  Biso   1.000  H
  H32      1.0000 0.17010  0.73120  0.01050  Biso   1.000  H
  C29      1.0000 0.26100  0.62320  0.72070  Biso   1.000  C
  C30      1.0000 0.73900  0.12320  0.77930  Biso   1.000  C
  C31      1.0000 0.73900  0.37680  0.27930  Biso   1.000  C
  C32      1.0000 0.26100  0.87680  0.22070  Biso   1.000  C
  H33      1.0000 0.25090  0.56720  0.76840  Biso   1.000  H
  H34      1.0000 0.74910  0.06720  0.73160  Biso   1.000  H
  H35      1.0000 0.74910  0.43280  0.23160  Biso   1.000  H
  H36      1.0000 0.25090  0.93280  0.26840  Biso   1.000  H
  C33      1.0000 0.38090  0.68910  0.74590  Biso   1.000  C
  C34      1.0000 0.61910  0.18910  0.75410  Biso   1.000  C
  C35      1.0000 0.61910  0.31090  0.25410  Biso   1.000  C
  C36      1.0000 0.38090  0.81090  0.24590  Biso   1.000  C
  H37      1.0000 0.46720  0.68620  0.81280  Biso   1.000  H
  H38      1.0000 0.53280  0.18620  0.68720  Biso   1.000  H
  H39      1.0000 0.53280  0.31380  0.18720  Biso   1.000  H
  H40      1.0000 0.46720  0.81380  0.31280  Biso   1.000  H
