data_image0
_cell_length_a       13.3048
_cell_length_b       13.4544
_cell_length_c       18.2388
_cell_angle_alpha    90
_cell_angle_beta     111.373
_cell_angle_gamma    90

_symmetry_space_group_name_H-M    "P 1"
_symmetry_int_tables_number       1

loop_
  _symmetry_equiv_pos_as_xyz
  'x, y, z'

loop_
  _atom_site_label
  _atom_site_occupancy
  _atom_site_fract_x
  _atom_site_fract_y
  _atom_site_fract_z
  _atom_site_thermal_displace_type
  _atom_site_B_iso_or_equiv
  _atom_site_type_symbol
  Cu1      1.0000 0.11808  0.12653  0.06371  Biso   1.000  Cu
  Cu2      1.0000 0.11808  0.87347  0.56371  Biso   1.000  Cu
  Cu3      1.0000 0.61808  0.62653  0.06371  Biso   1.000  Cu
  Cu4      1.0000 0.61808  0.37347  0.56371  Biso   1.000  Cu
  B1       1.0000 0.98210  0.16100  0.73310  Biso   1.000  B
  B2       1.0000 0.98210  0.83900  0.23310  Biso   1.000  B
  B3       1.0000 0.48210  0.66100  0.73310  Biso   1.000  B
  B4       1.0000 0.48210  0.33900  0.23310  Biso   1.000  B
  C1       1.0000 0.05850  0.16000  0.89300  Biso   1.000  C
  C2       1.0000 0.05850  0.84000  0.39300  Biso   1.000  C
  C3       1.0000 0.55850  0.66000  0.89300  Biso   1.000  C
  C4       1.0000 0.55850  0.34000  0.39300  Biso   1.000  C
  N1       1.0000 0.06250  0.09210  0.95360  Biso   1.000  N
  N2       1.0000 0.06250  0.90790  0.45360  Biso   1.000  N
  N3       1.0000 0.56250  0.59210  0.95360  Biso   1.000  N
  N4       1.0000 0.56250  0.40790  0.45360  Biso   1.000  N
  C5       1.0000 0.01670  0.00090  0.91760  Biso   1.000  C
  C6       1.0000 0.01670  0.99910  0.41760  Biso   1.000  C
  C7       1.0000 0.51670  0.50090  0.91760  Biso   1.000  C
  C8       1.0000 0.51670  0.49910  0.41760  Biso   1.000  C
  H1       1.0000 0.00920  0.94360  0.94370  Biso   1.000  H
  H2       1.0000 0.00920  0.05640  0.44370  Biso   1.000  H
  H3       1.0000 0.50920  0.44360  0.94370  Biso   1.000  H
  H4       1.0000 0.50920  0.55640  0.44370  Biso   1.000  H
  C9       1.0000 0.98450  0.01240  0.83480  Biso   1.000  C
  C10      1.0000 0.98450  0.98760  0.33480  Biso   1.000  C
  C11      1.0000 0.48450  0.51240  0.83480  Biso   1.000  C
  C12      1.0000 0.48450  0.48760  0.33480  Biso   1.000  C
  H5       1.0000 0.95210  0.96400  0.79720  Biso   1.000  H
  H6       1.0000 0.95210  0.03600  0.29720  Biso   1.000  H
  H7       1.0000 0.45210  0.46400  0.79720  Biso   1.000  H
  H8       1.0000 0.45210  0.53600  0.29720  Biso   1.000  H
  N5       1.0000 0.01030  0.11070  0.81960  Biso   1.000  N
  N6       1.0000 0.01030  0.88930  0.31960  Biso   1.000  N
  N7       1.0000 0.51030  0.61070  0.81960  Biso   1.000  N
  N8       1.0000 0.51030  0.38930  0.31960  Biso   1.000  N
  C13      1.0000 0.08500  0.25770  0.90460  Biso   1.000  C
  C14      1.0000 0.08500  0.74230  0.40460  Biso   1.000  C
  C15      1.0000 0.58500  0.75770  0.90460  Biso   1.000  C
  C16      1.0000 0.58500  0.24230  0.40460  Biso   1.000  C
  H9       1.0000 0.12990  0.26830  0.95860  Biso   1.000  H
  H10      1.0000 0.12990  0.73170  0.45860  Biso   1.000  H
  H11      1.0000 0.62990  0.76830  0.95860  Biso   1.000  H
  H12      1.0000 0.62990  0.23170  0.45860  Biso   1.000  H
  H13      1.0000 0.02010  0.29660  0.89210  Biso   1.000  H
  H14      1.0000 0.02010  0.70340  0.39210  Biso   1.000  H
  H15      1.0000 0.52010  0.79660  0.89210  Biso   1.000  H
  H16      1.0000 0.52010  0.20340  0.39210  Biso   1.000  H
  H17      1.0000 0.12280  0.27740  0.87120  Biso   1.000  H
  H18      1.0000 0.12280  0.72260  0.37120  Biso   1.000  H
  H19      1.0000 0.62280  0.77740  0.87120  Biso   1.000  H
  H20      1.0000 0.62280  0.22260  0.37120  Biso   1.000  H
  C17      1.0000 0.82730  0.26100  0.64350  Biso   1.000  C
  C18      1.0000 0.82730  0.73900  0.14350  Biso   1.000  C
  C19      1.0000 0.32730  0.76100  0.64350  Biso   1.000  C
  C20      1.0000 0.32730  0.23900  0.14350  Biso   1.000  C
  N9       1.0000 0.87620  0.19790  0.70940  Biso   1.000  N
  N10      1.0000 0.87620  0.80210  0.20940  Biso   1.000  N
  N11      1.0000 0.37620  0.69790  0.70940  Biso   1.000  N
  N12      1.0000 0.37620  0.30210  0.20940  Biso   1.000  N
  C21      1.0000 0.80460  0.18920  0.75070  Biso   1.000  C
  C22      1.0000 0.80460  0.81080  0.25070  Biso   1.000  C
  C23      1.0000 0.30460  0.68920  0.75070  Biso   1.000  C
  C24      1.0000 0.30460  0.31080  0.25070  Biso   1.000  C
  H21      1.0000 0.81660  0.15220  0.79620  Biso   1.000  H
  H22      1.0000 0.81660  0.84780  0.29620  Biso   1.000  H
  H23      1.0000 0.31660  0.65220  0.79620  Biso   1.000  H
  H24      1.0000 0.31660  0.34780  0.29620  Biso   1.000  H
  C25      1.0000 0.71140  0.24690  0.71050  Biso   1.000  C
  C26      1.0000 0.71140  0.75310  0.21050  Biso   1.000  C
  C27      1.0000 0.21140  0.74690  0.71050  Biso   1.000  C
  C28      1.0000 0.21140  0.25310  0.21050  Biso   1.000  C
  H25      1.0000 0.65160  0.25440  0.72500  Biso   1.000  H
  H26      1.0000 0.65160  0.74560  0.22500  Biso   1.000  H
  H27      1.0000 0.15160  0.75440  0.72500  Biso   1.000  H
  H28      1.0000 0.15160  0.24560  0.22500  Biso   1.000  H
  N13      1.0000 0.72540  0.29130  0.64420  Biso   1.000  N
  N14      1.0000 0.72540  0.70870  0.14420  Biso   1.000  N
  N15      1.0000 0.22540  0.79130  0.64420  Biso   1.000  N
  N16      1.0000 0.22540  0.20870  0.14420  Biso   1.000  N
  C29      1.0000 0.86770  0.28480  0.59030  Biso   1.000  C
  C30      1.0000 0.86770  0.71520  0.09030  Biso   1.000  C
  C31      1.0000 0.36770  0.78480  0.59030  Biso   1.000  C
  C32      1.0000 0.36770  0.21520  0.09030  Biso   1.000  C
  H29      1.0000 0.82510  0.33670  0.55740  Biso   1.000  H
  H30      1.0000 0.82510  0.66330  0.05740  Biso   1.000  H
  H31      1.0000 0.32510  0.83670  0.55740  Biso   1.000  H
  H32      1.0000 0.32510  0.16330  0.05740  Biso   1.000  H
  H33      1.0000 0.86720  0.22760  0.55870  Biso   1.000  H
  H34      1.0000 0.86720  0.77240  0.05870  Biso   1.000  H
  H35      1.0000 0.36720  0.72760  0.55870  Biso   1.000  H
  H36      1.0000 0.36720  0.27240  0.05870  Biso   1.000  H
  H37      1.0000 0.94060  0.30760  0.61590  Biso   1.000  H
  H38      1.0000 0.94060  0.69240  0.11590  Biso   1.000  H
  H39      1.0000 0.44060  0.80760  0.61590  Biso   1.000  H
  H40      1.0000 0.44060  0.19240  0.11590  Biso   1.000  H
  C33      1.0000 0.98880  0.99260  0.63460  Biso   1.000  C
  C34      1.0000 0.98880  0.00740  0.13460  Biso   1.000  C
  C35      1.0000 0.48880  0.49260  0.63460  Biso   1.000  C
  C36      1.0000 0.48880  0.50740  0.13460  Biso   1.000  C
  N17      1.0000 0.00150  0.05450  0.70040  Biso   1.000  N
  N18      1.0000 0.00150  0.94550  0.20040  Biso   1.000  N
  N19      1.0000 0.50150  0.55450  0.70040  Biso   1.000  N
  N20      1.0000 0.50150  0.44550  0.20040  Biso   1.000  N
  C37      1.0000 0.11320  0.05890  0.74730  Biso   1.000  C
  C38      1.0000 0.11320  0.94110  0.24730  Biso   1.000  C
  C39      1.0000 0.61320  0.55890  0.74730  Biso   1.000  C
  C40      1.0000 0.61320  0.44110  0.24730  Biso   1.000  C
  H41      1.0000 0.14400  0.09430  0.79390  Biso   1.000  H
  H42      1.0000 0.14400  0.90570  0.29390  Biso   1.000  H
  H43      1.0000 0.64400  0.59430  0.79390  Biso   1.000  H
  H44      1.0000 0.64400  0.40570  0.29390  Biso   1.000  H
  C41      1.0000 0.16950  0.99970  0.71050  Biso   1.000  C
  C42      1.0000 0.16950  0.00030  0.21050  Biso   1.000  C
  C43      1.0000 0.66950  0.49970  0.71050  Biso   1.000  C
  C44      1.0000 0.66950  0.50030  0.21050  Biso   1.000  C
  H45      1.0000 0.24380  0.98950  0.72870  Biso   1.000  H
  H46      1.0000 0.24380  0.01050  0.22870  Biso   1.000  H
  H47      1.0000 0.74380  0.48950  0.72870  Biso   1.000  H
  H48      1.0000 0.74380  0.51050  0.22870  Biso   1.000  H
  N21      1.0000 0.09270  0.95870  0.64080  Biso   1.000  N
  N22      1.0000 0.09270  0.04130  0.14080  Biso   1.000  N
  N23      1.0000 0.59270  0.45870  0.64080  Biso   1.000  N
  N24      1.0000 0.59270  0.54130  0.14080  Biso   1.000  N
  C45      1.0000 0.88880  0.97000  0.59570  Biso   1.000  C
  C46      1.0000 0.88880  0.03000  0.09570  Biso   1.000  C
  C47      1.0000 0.38880  0.47000  0.59570  Biso   1.000  C
  C48      1.0000 0.38880  0.53000  0.09570  Biso   1.000  C
  H49      1.0000 0.88290  0.93620  0.54810  Biso   1.000  H
  H50      1.0000 0.88290  0.06380  0.04810  Biso   1.000  H
  H51      1.0000 0.38290  0.43620  0.54810  Biso   1.000  H
  H52      1.0000 0.38290  0.56380  0.04810  Biso   1.000  H
  H53      1.0000 0.84660  0.03030  0.58280  Biso   1.000  H
  H54      1.0000 0.84660  0.96970  0.08280  Biso   1.000  H
  H55      1.0000 0.34660  0.53030  0.58280  Biso   1.000  H
  H56      1.0000 0.34660  0.46970  0.08280  Biso   1.000  H
  H57      1.0000 0.86250  0.92840  0.62730  Biso   1.000  H
  H58      1.0000 0.86250  0.07160  0.12730  Biso   1.000  H
  H59      1.0000 0.36250  0.42840  0.62730  Biso   1.000  H
  H60      1.0000 0.36250  0.57160  0.12730  Biso   1.000  H
  Cu5      1.0000 0.87859  0.37619  0.08406  Biso   1.000  Cu
  Cu6      1.0000 0.87859  0.62381  0.58406  Biso   1.000  Cu
  Cu7      1.0000 0.37859  0.87619  0.08406  Biso   1.000  Cu
  Cu8      1.0000 0.37859  0.12381  0.58406  Biso   1.000  Cu
  B5       1.0000 0.07200  0.38970  0.40920  Biso   1.000  B
  B6       1.0000 0.07200  0.61030  0.90920  Biso   1.000  B
  B7       1.0000 0.57200  0.88970  0.40920  Biso   1.000  B
  B8       1.0000 0.57200  0.11030  0.90920  Biso   1.000  B
  C49      1.0000 0.98920  0.41710  0.25700  Biso   1.000  C
  C50      1.0000 0.98920  0.58290  0.75700  Biso   1.000  C
  C51      1.0000 0.48920  0.91710  0.25700  Biso   1.000  C
  C52      1.0000 0.48920  0.08290  0.75700  Biso   1.000  C
  N25      1.0000 0.01610  0.36530  0.32940  Biso   1.000  N
  N26      1.0000 0.01610  0.63470  0.82940  Biso   1.000  N
  N27      1.0000 0.51610  0.86530  0.32940  Biso   1.000  N
  N28      1.0000 0.51610  0.13470  0.82940  Biso   1.000  N
  C53      1.0000 0.97760  0.26630  0.31250  Biso   1.000  C
  C54      1.0000 0.97760  0.73370  0.81250  Biso   1.000  C
  C55      1.0000 0.47760  0.76630  0.31250  Biso   1.000  C
  C56      1.0000 0.47760  0.23370  0.81250  Biso   1.000  C
  H61      1.0000 0.98450  0.21640  0.34930  Biso   1.000  H
  H62      1.0000 0.98450  0.78360  0.84930  Biso   1.000  H
  H63      1.0000 0.48450  0.71640  0.34930  Biso   1.000  H
  H64      1.0000 0.48450  0.28360  0.84930  Biso   1.000  H
  C57      1.0000 0.92690  0.25690  0.22950  Biso   1.000  C
  C58      1.0000 0.92690  0.74310  0.72950  Biso   1.000  C
  C59      1.0000 0.42690  0.75690  0.22950  Biso   1.000  C
  C60      1.0000 0.42690  0.24310  0.72950  Biso   1.000  C
  H65      1.0000 0.89470  0.19970  0.20250  Biso   1.000  H
  H66      1.0000 0.89470  0.80030  0.70250  Biso   1.000  H
  H67      1.0000 0.39470  0.69970  0.20250  Biso   1.000  H
  H68      1.0000 0.39470  0.30030  0.70250  Biso   1.000  H
  N29      1.0000 0.93410  0.35010  0.19520  Biso   1.000  N
  N30      1.0000 0.93410  0.64990  0.69520  Biso   1.000  N
  N31      1.0000 0.43410  0.85010  0.19520  Biso   1.000  N
  N32      1.0000 0.43410  0.14990  0.69520  Biso   1.000  N
  C61      1.0000 0.01400  0.50950  0.24300  Biso   1.000  C
  C62      1.0000 0.01400  0.49050  0.74300  Biso   1.000  C
  C63      1.0000 0.51400  0.00950  0.24300  Biso   1.000  C
  C64      1.0000 0.51400  0.99050  0.74300  Biso   1.000  C
  H69      1.0000 0.99790  0.51780  0.18760  Biso   1.000  H
  H70      1.0000 0.99790  0.48220  0.68760  Biso   1.000  H
  H71      1.0000 0.49790  0.01780  0.18760  Biso   1.000  H
  H72      1.0000 0.49790  0.98220  0.68760  Biso   1.000  H
  H73      1.0000 0.08920  0.52140  0.27130  Biso   1.000  H
  H74      1.0000 0.08920  0.47860  0.77130  Biso   1.000  H
  H75      1.0000 0.58920  0.02140  0.27130  Biso   1.000  H
  H76      1.0000 0.58920  0.97860  0.77130  Biso   1.000  H
  H77      1.0000 0.97190  0.55590  0.26000  Biso   1.000  H
  H78      1.0000 0.97190  0.44410  0.76000  Biso   1.000  H
  H79      1.0000 0.47190  0.05590  0.26000  Biso   1.000  H
  H80      1.0000 0.47190  0.94410  0.76000  Biso   1.000  H
  C65      1.0000 0.92580  0.48910  0.47280  Biso   1.000  C
  C66      1.0000 0.92580  0.51090  0.97280  Biso   1.000  C
  C67      1.0000 0.42580  0.98910  0.47280  Biso   1.000  C
  C68      1.0000 0.42580  0.01090  0.97280  Biso   1.000  C
  N33      1.0000 0.01260  0.43700  0.46260  Biso   1.000  N
  N34      1.0000 0.01260  0.56300  0.96260  Biso   1.000  N
  N35      1.0000 0.51260  0.93700  0.46260  Biso   1.000  N
  N36      1.0000 0.51260  0.06300  0.96260  Biso   1.000  N
  C69      1.0000 0.10990  0.46820  0.52260  Biso   1.000  C
  C70      1.0000 0.10990  0.53180  0.02260  Biso   1.000  C
  C71      1.0000 0.60990  0.96820  0.52260  Biso   1.000  C
  C72      1.0000 0.60990  0.03180  0.02260  Biso   1.000  C
  H81      1.0000 0.17890  0.44580  0.52970  Biso   1.000  H
  H82      1.0000 0.17890  0.55420  0.02970  Biso   1.000  H
  H83      1.0000 0.67890  0.94580  0.52970  Biso   1.000  H
  H84      1.0000 0.67890  0.05420  0.02970  Biso   1.000  H
  C73      1.0000 0.08320  0.53950  0.57000  Biso   1.000  C
  C74      1.0000 0.08320  0.46050  0.07000  Biso   1.000  C
  C75      1.0000 0.58320  0.03950  0.57000  Biso   1.000  C
  C76      1.0000 0.58320  0.96050  0.07000  Biso   1.000  C
  H85      1.0000 0.13170  0.57200  0.61350  Biso   1.000  H
  H86      1.0000 0.13170  0.42800  0.11350  Biso   1.000  H
  H87      1.0000 0.63170  0.07200  0.61350  Biso   1.000  H
  H88      1.0000 0.63170  0.92800  0.11350  Biso   1.000  H
  N37      1.0000 0.96950  0.55240  0.53920  Biso   1.000  N
  N38      1.0000 0.96950  0.44760  0.03920  Biso   1.000  N
  N39      1.0000 0.46950  0.05240  0.53920  Biso   1.000  N
  N40      1.0000 0.46950  0.94760  0.03920  Biso   1.000  N
  C77      1.0000 0.83700  0.46260  0.41740  Biso   1.000  C
  C78      1.0000 0.83700  0.53740  0.91740  Biso   1.000  C
  C79      1.0000 0.33700  0.96260  0.41740  Biso   1.000  C
  C80      1.0000 0.33700  0.03740  0.91740  Biso   1.000  C
  H89      1.0000 0.84660  0.46400  0.36770  Biso   1.000  H
  H90      1.0000 0.84660  0.53600  0.86770  Biso   1.000  H
  H91      1.0000 0.34660  0.96400  0.36770  Biso   1.000  H
  H92      1.0000 0.34660  0.03600  0.86770  Biso   1.000  H
  H93      1.0000 0.78030  0.50780  0.41580  Biso   1.000  H
  H94      1.0000 0.78030  0.49220  0.91580  Biso   1.000  H
  H95      1.0000 0.28030  0.00780  0.41580  Biso   1.000  H
  H96      1.0000 0.28030  0.99220  0.91580  Biso   1.000  H
  H97      1.0000 0.81800  0.39660  0.42750  Biso   1.000  H
  H98      1.0000 0.81800  0.60340  0.92750  Biso   1.000  H
  H99      1.0000 0.31800  0.89660  0.42750  Biso   1.000  H
  H100     1.0000 0.31800  0.10340  0.92750  Biso   1.000  H
  C81      1.0000 0.22190  0.26450  0.47180  Biso   1.000  C
  C82      1.0000 0.22190  0.73550  0.97180  Biso   1.000  C
  C83      1.0000 0.72190  0.76450  0.47180  Biso   1.000  C
  C84      1.0000 0.72190  0.23550  0.97180  Biso   1.000  C
  N41      1.0000 0.12270  0.31260  0.46160  Biso   1.000  N
  N42      1.0000 0.12270  0.68740  0.96160  Biso   1.000  N
  N43      1.0000 0.62270  0.81260  0.46160  Biso   1.000  N
  N44      1.0000 0.62270  0.18740  0.96160  Biso   1.000  N
  C85      1.0000 0.08910  0.28160  0.52340  Biso   1.000  C
  C86      1.0000 0.08910  0.71840  0.02340  Biso   1.000  C
  C87      1.0000 0.58910  0.78160  0.52340  Biso   1.000  C
  C88      1.0000 0.58910  0.21840  0.02340  Biso   1.000  C
  H101     1.0000 0.02670  0.30190  0.53090  Biso   1.000  H
  H102     1.0000 0.02670  0.69810  0.03090  Biso   1.000  H
  H103     1.0000 0.52670  0.80190  0.53090  Biso   1.000  H
  H104     1.0000 0.52670  0.19810  0.03090  Biso   1.000  H
  C89      1.0000 0.16740  0.21430  0.57190  Biso   1.000  C
  C90      1.0000 0.16740  0.78570  0.07190  Biso   1.000  C
  C91      1.0000 0.66740  0.71430  0.57190  Biso   1.000  C
  C92      1.0000 0.66740  0.28570  0.07190  Biso   1.000  C
  H105     1.0000 0.16540  0.18270  0.61670  Biso   1.000  H
  H106     1.0000 0.16540  0.81730  0.11670  Biso   1.000  H
  H107     1.0000 0.66540  0.68270  0.61670  Biso   1.000  H
  H108     1.0000 0.66540  0.31730  0.11670  Biso   1.000  H
  N45      1.0000 0.24950  0.20370  0.53990  Biso   1.000  N
  N46      1.0000 0.24950  0.79630  0.03990  Biso   1.000  N
  N47      1.0000 0.74950  0.70370  0.53990  Biso   1.000  N
  N48      1.0000 0.74950  0.29630  0.03990  Biso   1.000  N
  C93      1.0000 0.27800  0.28410  0.43010  Biso   1.000  C
  C94      1.0000 0.27800  0.71590  0.93010  Biso   1.000  C
  C95      1.0000 0.77800  0.78410  0.43010  Biso   1.000  C
  C96      1.0000 0.77800  0.21590  0.93010  Biso   1.000  C
  H109     1.0000 0.34050  0.24240  0.44600  Biso   1.000  H
  H110     1.0000 0.34050  0.75760  0.94600  Biso   1.000  H
  H111     1.0000 0.84050  0.74240  0.44600  Biso   1.000  H
  H112     1.0000 0.84050  0.25760  0.94600  Biso   1.000  H
  H113     1.0000 0.29930  0.35260  0.43710  Biso   1.000  H
  H114     1.0000 0.29930  0.64740  0.93710  Biso   1.000  H
  H115     1.0000 0.79930  0.85260  0.43710  Biso   1.000  H
  H116     1.0000 0.79930  0.14740  0.93710  Biso   1.000  H
  H117     1.0000 0.23530  0.27210  0.37570  Biso   1.000  H
  H118     1.0000 0.23530  0.72790  0.87570  Biso   1.000  H
  H119     1.0000 0.73530  0.77210  0.37570  Biso   1.000  H
  H120     1.0000 0.73530  0.22790  0.87570  Biso   1.000  H
