data_image0
_cell_length_a       9.0107
_cell_length_b       9.2903
_cell_length_c       15.7168
_cell_angle_alpha    103.806
_cell_angle_beta     91.307
_cell_angle_gamma    115.131

_symmetry_space_group_name_H-M    "P 1"
_symmetry_int_tables_number       1

loop_
  _symmetry_equiv_pos_as_xyz
  'x, y, z'

loop_
  _atom_site_label
  _atom_site_occupancy
  _atom_site_fract_x
  _atom_site_fract_y
  _atom_site_fract_z
  _atom_site_thermal_displace_type
  _atom_site_B_iso_or_equiv
  _atom_site_type_symbol
  Cu1      1.0000 0.29887  0.94192  0.98178  Biso   1.000  Cu
  Cu2      1.0000 0.70113  0.05808  0.01822  Biso   1.000  Cu
  Cu3      1.0000 0.86898  0.75945  0.42793  Biso   1.000  Cu
  Cu4      1.0000 0.13102  0.24055  0.57207  Biso   1.000  Cu
  N1       1.0000 0.50580  0.61320  0.22243  Biso   1.000  N
  N2       1.0000 0.49420  0.38680  0.77757  Biso   1.000  N
  N3       1.0000 0.06140  0.73760  0.46698  Biso   1.000  N
  N4       1.0000 0.93860  0.26240  0.53302  Biso   1.000  N
  N5       1.0000 0.35430  0.82000  0.72013  Biso   1.000  N
  N6       1.0000 0.64570  0.18000  0.27987  Biso   1.000  N
  N7       1.0000 0.26750  0.82630  0.07520  Biso   1.000  N
  N8       1.0000 0.73250  0.17370  0.92480  Biso   1.000  N
  N9       1.0000 0.56380  0.83300  0.61452  Biso   1.000  N
  N10      1.0000 0.43620  0.16700  0.38548  Biso   1.000  N
  N11      1.0000 0.27960  0.38360  0.10545  Biso   1.000  N
  N12      1.0000 0.72040  0.61640  0.89455  Biso   1.000  N
  N13      1.0000 0.28050  0.78570  0.55755  Biso   1.000  N
  N14      1.0000 0.71950  0.21430  0.44245  Biso   1.000  N
  N15      1.0000 0.73260  0.72390  0.32119  Biso   1.000  N
  N16      1.0000 0.26740  0.27610  0.67881  Biso   1.000  N
  N17      1.0000 0.75980  0.80660  0.53759  Biso   1.000  N
  N18      1.0000 0.24020  0.19340  0.46241  Biso   1.000  N
  N19      1.0000 0.27690  0.66010  0.15457  Biso   1.000  N
  N20      1.0000 0.72310  0.33990  0.84543  Biso   1.000  N
  N21      1.0000 0.30120  0.84010  0.85868  Biso   1.000  N
  N22      1.0000 0.69880  0.15990  0.14132  Biso   1.000  N
  N23      1.0000 0.27920  0.15270  0.02073  Biso   1.000  N
  N24      1.0000 0.72080  0.84730  0.97927  Biso   1.000  N
  C1       1.0000 0.56840  0.64640  0.30718  Biso   1.000  C
  C2       1.0000 0.43160  0.35360  0.69282  Biso   1.000  C
  H1       1.0000 0.50350  0.61820  0.35120  Biso   1.000  H
  H2       1.0000 0.49650  0.38180  0.64880  Biso   1.000  H
  C3       1.0000 0.36680  0.92140  0.79977  Biso   1.000  C
  C4       1.0000 0.63320  0.07860  0.20023  Biso   1.000  C
  H3       1.0000 0.41600  0.03610  0.81220  Biso   1.000  H
  H4       1.0000 0.58400  0.96390  0.18780  Biso   1.000  H
  C5       1.0000 0.16420  0.83390  0.54053  Biso   1.000  C
  C6       1.0000 0.83580  0.16610  0.45947  Biso   1.000  C
  H5       1.0000 0.15700  0.92530  0.57660  Biso   1.000  H
  H6       1.0000 0.84300  0.07470  0.42340  Biso   1.000  H
  C7       1.0000 0.11470  0.61850  0.43411  Biso   1.000  C
  C8       1.0000 0.88530  0.38150  0.56589  Biso   1.000  C
  H7       1.0000 0.06710  0.53300  0.38220  Biso   1.000  H
  H8       1.0000 0.93290  0.46700  0.61780  Biso   1.000  H
  C9       1.0000 0.63530  0.84730  0.54070  Biso   1.000  C
  C10      1.0000 0.36470  0.15270  0.45930  Biso   1.000  C
  H9       1.0000 0.60090  0.88200  0.49650  Biso   1.000  H
  H10      1.0000 0.39910  0.11800  0.50350  Biso   1.000  H
  C11      1.0000 0.14650  0.17150  0.98835  Biso   1.000  C
  C12      1.0000 0.85350  0.82850  0.01165  Biso   1.000  C
  H11      1.0000 0.06970  0.09950  0.93890  Biso   1.000  H
  H12      1.0000 0.93030  0.90050  0.06110  Biso   1.000  H
  C13      1.0000 0.30600  0.70460  0.07846  Biso   1.000  C
  C14      1.0000 0.69400  0.29540  0.92154  Biso   1.000  C
  H13      1.0000 0.34830  0.65520  0.03330  Biso   1.000  H
  H14      1.0000 0.65170  0.34480  0.96670  Biso   1.000  H
  C15      1.0000 0.14520  0.31110  0.03979  Biso   1.000  C
  C16      1.0000 0.85480  0.68890  0.96021  Biso   1.000  C
  H15      1.0000 0.06790  0.35030  0.03210  Biso   1.000  H
  H16      1.0000 0.93210  0.64970  0.96790  Biso   1.000  H
  C17      1.0000 0.35530  0.28260  0.09030  Biso   1.000  C
  C18      1.0000 0.64470  0.71740  0.90970  Biso   1.000  C
  H17      1.0000 0.45060  0.30260  0.12510  Biso   1.000  H
  H18      1.0000 0.54940  0.69740  0.87490  Biso   1.000  H
  C19      1.0000 0.27430  0.66230  0.72885  Biso   1.000  C
  C20      1.0000 0.72570  0.33770  0.27115  Biso   1.000  C
  H19      1.0000 0.24730  0.56470  0.68480  Biso   1.000  H
  H20      1.0000 0.75270  0.43530  0.31520  Biso   1.000  H
  C21      1.0000 0.63990  0.67490  0.17871  Biso   1.000  C
  C22      1.0000 0.36010  0.32510  0.82129  Biso   1.000  C
  H21      1.0000 0.63660  0.67090  0.11900  Biso   1.000  H
  H22      1.0000 0.36340  0.32910  0.88100  Biso   1.000  H
  C23      1.0000 0.21050  0.86210  0.15451  Biso   1.000  C
  C24      1.0000 0.78950  0.13790  0.84549  Biso   1.000  C
  H23      1.0000 0.17390  0.94300  0.17190  Biso   1.000  H
  H24      1.0000 0.82610  0.05700  0.82810  Biso   1.000  H
  C25      1.0000 0.24720  0.64610  0.48939  Biso   1.000  C
  C26      1.0000 0.75280  0.35390  0.51061  Biso   1.000  C
  H25      1.0000 0.30530  0.58270  0.48270  Biso   1.000  H
  H26      1.0000 0.69470  0.41730  0.51730  Biso   1.000  H
  C27      1.0000 0.64920  0.77780  0.66186  Biso   1.000  C
  C28      1.0000 0.35080  0.22220  0.33814  Biso   1.000  C
  H27      1.0000 0.62850  0.75470  0.71600  Biso   1.000  H
  H28      1.0000 0.37150  0.24530  0.28400  Biso   1.000  H
  C29      1.0000 0.21590  0.76130  0.20331  Biso   1.000  C
  C30      1.0000 0.78410  0.23870  0.79669  Biso   1.000  C
  H29      1.0000 0.18420  0.76090  0.25920  Biso   1.000  H
  H30      1.0000 0.81580  0.23910  0.74080  Biso   1.000  H
  C31      1.0000 0.76910  0.76320  0.61483  Biso   1.000  C
  C32      1.0000 0.23090  0.23680  0.38517  Biso   1.000  C
  H31      1.0000 0.84560  0.72920  0.63200  Biso   1.000  H
  H32      1.0000 0.15440  0.27080  0.36800  Biso   1.000  H
  C33      1.0000 0.24170  0.67510  0.81435  Biso   1.000  C
  C34      1.0000 0.75830  0.32490  0.18565  Biso   1.000  C
  H33      1.0000 0.18820  0.58720  0.83840  Biso   1.000  H
  H34      1.0000 0.81180  0.41280  0.16160  Biso   1.000  H
  C35      1.0000 0.77730  0.74260  0.23919  Biso   1.000  C
  C36      1.0000 0.22270  0.25740  0.76081  Biso   1.000  C
  H35      1.0000 0.88540  0.79380  0.22750  Biso   1.000  H
  H36      1.0000 0.11460  0.20620  0.77250  Biso   1.000  H
  B1       1.0000 0.41860  0.87700  0.63831  Biso   1.000  B
  B2       1.0000 0.58140  0.12300  0.36169  Biso   1.000  B
  H37      1.0000 0.45680  0.99660  0.65070  Biso   1.000  H
  H38      1.0000 0.54320  0.00340  0.34930  Biso   1.000  H
  B3       1.0000 0.31890  0.53430  0.18643  Biso   1.000  B
  B4       1.0000 0.68110  0.46570  0.81357  Biso   1.000  B
  H39      1.0000 0.25230  0.49860  0.23250  Biso   1.000  H
  H40      1.0000 0.74770  0.50140  0.76750  Biso   1.000  H
