data_image0
_cell_length_a       24.026
_cell_length_b       18.0135
_cell_length_c       15.4627
_cell_angle_alpha    90
_cell_angle_beta     109.465
_cell_angle_gamma    90

_symmetry_space_group_name_H-M    "P 1"
_symmetry_int_tables_number       1

loop_
  _symmetry_equiv_pos_as_xyz
  'x, y, z'

loop_
  _atom_site_label
  _atom_site_occupancy
  _atom_site_fract_x
  _atom_site_fract_y
  _atom_site_fract_z
  _atom_site_thermal_displace_type
  _atom_site_B_iso_or_equiv
  _atom_site_type_symbol
  Cu1      1.0000 0.81878  0.05513  0.43984  Biso   1.000  Cu
  Cu2      1.0000 0.31878  0.55513  0.43984  Biso   1.000  Cu
  Cu3      1.0000 0.18122  0.05513  0.06016  Biso   1.000  Cu
  Cu4      1.0000 0.68122  0.55513  0.06016  Biso   1.000  Cu
  Cu5      1.0000 0.18122  0.94487  0.56016  Biso   1.000  Cu
  Cu6      1.0000 0.68122  0.44487  0.56016  Biso   1.000  Cu
  Cu7      1.0000 0.81878  0.94487  0.93984  Biso   1.000  Cu
  Cu8      1.0000 0.31878  0.44487  0.93984  Biso   1.000  Cu
  Cu9      1.0000 0.50000  0.89248  0.25000  Biso   1.000  Cu
  Cu10     1.0000 0.00000  0.39248  0.25000  Biso   1.000  Cu
  Cu11     1.0000 0.50000  0.10752  0.75000  Biso   1.000  Cu
  Cu12     1.0000 0.00000  0.60752  0.75000  Biso   1.000  Cu
  I1       1.0000 0.91575  0.07373  0.57520  Biso   1.000  I
  I2       1.0000 0.41575  0.57373  0.57520  Biso   1.000  I
  I3       1.0000 0.08425  0.07373  0.92480  Biso   1.000  I
  I4       1.0000 0.58425  0.57373  0.92480  Biso   1.000  I
  I5       1.0000 0.08425  0.92627  0.42480  Biso   1.000  I
  I6       1.0000 0.58425  0.42627  0.42480  Biso   1.000  I
  I7       1.0000 0.91575  0.92627  0.07520  Biso   1.000  I
  I8       1.0000 0.41575  0.42627  0.07520  Biso   1.000  I
  N1       1.0000 0.75440  0.87610  0.26460  Biso   1.000  N
  N2       1.0000 0.25440  0.37610  0.26460  Biso   1.000  N
  N3       1.0000 0.24560  0.87610  0.23540  Biso   1.000  N
  N4       1.0000 0.74560  0.37610  0.23540  Biso   1.000  N
  N5       1.0000 0.24560  0.12390  0.73540  Biso   1.000  N
  N6       1.0000 0.74560  0.62390  0.73540  Biso   1.000  N
  N7       1.0000 0.75440  0.12390  0.76460  Biso   1.000  N
  N8       1.0000 0.25440  0.62390  0.76460  Biso   1.000  N
  N9       1.0000 0.80310  0.95720  0.37490  Biso   1.000  N
  N10      1.0000 0.30310  0.45720  0.37490  Biso   1.000  N
  N11      1.0000 0.19690  0.95720  0.12510  Biso   1.000  N
  N12      1.0000 0.69690  0.45720  0.12510  Biso   1.000  N
  N13      1.0000 0.19690  0.04280  0.62510  Biso   1.000  N
  N14      1.0000 0.69690  0.54280  0.62510  Biso   1.000  N
  N15      1.0000 0.80310  0.04280  0.87490  Biso   1.000  N
  N16      1.0000 0.30310  0.54280  0.87490  Biso   1.000  N
  N17      1.0000 0.64590  0.88560  0.17940  Biso   1.000  N
  N18      1.0000 0.14590  0.38560  0.17940  Biso   1.000  N
  N19      1.0000 0.35410  0.88560  0.32060  Biso   1.000  N
  N20      1.0000 0.85410  0.38560  0.32060  Biso   1.000  N
  N21      1.0000 0.35410  0.11440  0.82060  Biso   1.000  N
  N22      1.0000 0.85410  0.61440  0.82060  Biso   1.000  N
  N23      1.0000 0.64590  0.11440  0.67940  Biso   1.000  N
  N24      1.0000 0.14590  0.61440  0.67940  Biso   1.000  N
  N25      1.0000 0.55710  0.90290  0.19460  Biso   1.000  N
  N26      1.0000 0.05710  0.40290  0.19460  Biso   1.000  N
  N27      1.0000 0.44290  0.90290  0.30540  Biso   1.000  N
  N28      1.0000 0.94290  0.40290  0.30540  Biso   1.000  N
  N29      1.0000 0.44290  0.09710  0.80540  Biso   1.000  N
  N30      1.0000 0.94290  0.59710  0.80540  Biso   1.000  N
  N31      1.0000 0.55710  0.09710  0.69460  Biso   1.000  N
  N32      1.0000 0.05710  0.59710  0.69460  Biso   1.000  N
  N33      1.0000 0.69850  0.76080  0.19560  Biso   1.000  N
  N34      1.0000 0.19850  0.26080  0.19560  Biso   1.000  N
  N35      1.0000 0.30150  0.76080  0.30440  Biso   1.000  N
  N36      1.0000 0.80150  0.26080  0.30440  Biso   1.000  N
  N37      1.0000 0.30150  0.23920  0.80440  Biso   1.000  N
  N38      1.0000 0.80150  0.73920  0.80440  Biso   1.000  N
  N39      1.0000 0.69850  0.23920  0.69560  Biso   1.000  N
  N40      1.0000 0.19850  0.73920  0.69560  Biso   1.000  N
  N41      1.0000 0.68750  0.64040  0.15370  Biso   1.000  N
  N42      1.0000 0.18750  0.14040  0.15370  Biso   1.000  N
  N43      1.0000 0.31250  0.64040  0.34630  Biso   1.000  N
  N44      1.0000 0.81250  0.14040  0.34630  Biso   1.000  N
  N45      1.0000 0.31250  0.35960  0.84630  Biso   1.000  N
  N46      1.0000 0.81250  0.85960  0.84630  Biso   1.000  N
  N47      1.0000 0.68750  0.35960  0.65370  Biso   1.000  N
  N48      1.0000 0.18750  0.85960  0.65370  Biso   1.000  N
  N49      1.0000 0.71350  0.86020  0.09110  Biso   1.000  N
  N50      1.0000 0.21350  0.36020  0.09110  Biso   1.000  N
  N51      1.0000 0.28650  0.86020  0.40890  Biso   1.000  N
  N52      1.0000 0.78650  0.36020  0.40890  Biso   1.000  N
  N53      1.0000 0.28650  0.13980  0.90890  Biso   1.000  N
  N54      1.0000 0.78650  0.63980  0.90890  Biso   1.000  N
  N55      1.0000 0.71350  0.13980  0.59110  Biso   1.000  N
  N56      1.0000 0.21350  0.63980  0.59110  Biso   1.000  N
  N57      1.0000 0.75460  0.90730  0.99180  Biso   1.000  N
  N58      1.0000 0.25460  0.40730  0.99180  Biso   1.000  N
  N59      1.0000 0.24540  0.90730  0.50820  Biso   1.000  N
  N60      1.0000 0.74540  0.40730  0.50820  Biso   1.000  N
  N61      1.0000 0.24540  0.09270  0.00820  Biso   1.000  N
  N62      1.0000 0.74540  0.59270  0.00820  Biso   1.000  N
  N63      1.0000 0.75460  0.09270  0.49180  Biso   1.000  N
  N64      1.0000 0.25460  0.59270  0.49180  Biso   1.000  N
  C1       1.0000 0.75330  0.93970  0.31140  Biso   1.000  C
  C2       1.0000 0.25330  0.43970  0.31140  Biso   1.000  C
  C3       1.0000 0.24670  0.93970  0.18860  Biso   1.000  C
  C4       1.0000 0.74670  0.43970  0.18860  Biso   1.000  C
  C5       1.0000 0.24670  0.06030  0.68860  Biso   1.000  C
  C6       1.0000 0.74670  0.56030  0.68860  Biso   1.000  C
  C7       1.0000 0.75330  0.06030  0.81140  Biso   1.000  C
  C8       1.0000 0.25330  0.56030  0.81140  Biso   1.000  C
  H1       1.0000 0.71950  0.96870  0.29910  Biso   1.000  H
  H2       1.0000 0.21950  0.46870  0.29910  Biso   1.000  H
  H3       1.0000 0.28050  0.96870  0.20090  Biso   1.000  H
  H4       1.0000 0.78050  0.46870  0.20090  Biso   1.000  H
  H5       1.0000 0.28050  0.03130  0.70090  Biso   1.000  H
  H6       1.0000 0.78050  0.53130  0.70090  Biso   1.000  H
  H7       1.0000 0.71950  0.03130  0.79910  Biso   1.000  H
  H8       1.0000 0.21950  0.53130  0.79910  Biso   1.000  H
  C9       1.0000 0.84210  0.90100  0.37210  Biso   1.000  C
  C10      1.0000 0.34210  0.40100  0.37210  Biso   1.000  C
  C11      1.0000 0.15790  0.90100  0.12790  Biso   1.000  C
  C12      1.0000 0.65790  0.40100  0.12790  Biso   1.000  C
  C13      1.0000 0.15790  0.09900  0.62790  Biso   1.000  C
  C14      1.0000 0.65790  0.59900  0.62790  Biso   1.000  C
  C15      1.0000 0.84210  0.09900  0.87210  Biso   1.000  C
  C16      1.0000 0.34210  0.59900  0.87210  Biso   1.000  C
  C17      1.0000 0.81140  0.84910  0.30300  Biso   1.000  C
  C18      1.0000 0.31140  0.34910  0.30300  Biso   1.000  C
  C19      1.0000 0.18860  0.84910  0.19700  Biso   1.000  C
  C20      1.0000 0.68860  0.34910  0.19700  Biso   1.000  C
  C21      1.0000 0.18860  0.15090  0.69700  Biso   1.000  C
  C22      1.0000 0.68860  0.65090  0.69700  Biso   1.000  C
  C23      1.0000 0.81140  0.15090  0.80300  Biso   1.000  C
  C24      1.0000 0.31140  0.65090  0.80300  Biso   1.000  C
  C25      1.0000 0.84020  0.78810  0.28510  Biso   1.000  C
  C26      1.0000 0.34020  0.28810  0.28510  Biso   1.000  C
  C27      1.0000 0.15980  0.78810  0.21490  Biso   1.000  C
  C28      1.0000 0.65980  0.28810  0.21490  Biso   1.000  C
  C29      1.0000 0.15980  0.21190  0.71490  Biso   1.000  C
  C30      1.0000 0.65980  0.71190  0.71490  Biso   1.000  C
  C31      1.0000 0.84020  0.21190  0.78510  Biso   1.000  C
  C32      1.0000 0.34020  0.71190  0.78510  Biso   1.000  C
  H9       1.0000 0.82100  0.75450  0.23920  Biso   1.000  H
  H10      1.0000 0.32100  0.25450  0.23920  Biso   1.000  H
  H11      1.0000 0.17900  0.75450  0.26080  Biso   1.000  H
  H12      1.0000 0.67900  0.25450  0.26080  Biso   1.000  H
  H13      1.0000 0.17900  0.24550  0.76080  Biso   1.000  H
  H14      1.0000 0.67900  0.74550  0.76080  Biso   1.000  H
  H15      1.0000 0.82100  0.24550  0.73920  Biso   1.000  H
  H16      1.0000 0.32100  0.74550  0.73920  Biso   1.000  H
  C33      1.0000 0.89870  0.77890  0.33780  Biso   1.000  C
  C34      1.0000 0.39870  0.27890  0.33780  Biso   1.000  C
  C35      1.0000 0.10130  0.77890  0.16220  Biso   1.000  C
  C36      1.0000 0.60130  0.27890  0.16220  Biso   1.000  C
  C37      1.0000 0.10130  0.22110  0.66220  Biso   1.000  C
  C38      1.0000 0.60130  0.72110  0.66220  Biso   1.000  C
  C39      1.0000 0.89870  0.22110  0.83780  Biso   1.000  C
  C40      1.0000 0.39870  0.72110  0.83780  Biso   1.000  C
  H17      1.0000 0.91860  0.73730  0.32780  Biso   1.000  H
  H18      1.0000 0.41860  0.23730  0.32780  Biso   1.000  H
  H19      1.0000 0.08140  0.73730  0.17220  Biso   1.000  H
  H20      1.0000 0.58140  0.23730  0.17220  Biso   1.000  H
  H21      1.0000 0.08140  0.26270  0.67220  Biso   1.000  H
  H22      1.0000 0.58140  0.76270  0.67220  Biso   1.000  H
  H23      1.0000 0.91860  0.26270  0.82780  Biso   1.000  H
  H24      1.0000 0.41860  0.76270  0.82780  Biso   1.000  H
  C41      1.0000 0.92940  0.82960  0.40590  Biso   1.000  C
  C42      1.0000 0.42940  0.32960  0.40590  Biso   1.000  C
  C43      1.0000 0.07060  0.82960  0.09410  Biso   1.000  C
  C44      1.0000 0.57060  0.32960  0.09410  Biso   1.000  C
  C45      1.0000 0.07060  0.17040  0.59410  Biso   1.000  C
  C46      1.0000 0.57060  0.67040  0.59410  Biso   1.000  C
  C47      1.0000 0.92940  0.17040  0.90590  Biso   1.000  C
  C48      1.0000 0.42940  0.67040  0.90590  Biso   1.000  C
  H25      1.0000 0.96900  0.82150  0.43920  Biso   1.000  H
  H26      1.0000 0.46900  0.32150  0.43920  Biso   1.000  H
  H27      1.0000 0.03100  0.82150  0.06080  Biso   1.000  H
  H28      1.0000 0.53100  0.32150  0.06080  Biso   1.000  H
  H29      1.0000 0.03100  0.17850  0.56080  Biso   1.000  H
  H30      1.0000 0.53100  0.67850  0.56080  Biso   1.000  H
  H31      1.0000 0.96900  0.17850  0.93920  Biso   1.000  H
  H32      1.0000 0.46900  0.67850  0.93920  Biso   1.000  H
  C49      1.0000 0.90120  0.89090  0.42320  Biso   1.000  C
  C50      1.0000 0.40120  0.39090  0.42320  Biso   1.000  C
  C51      1.0000 0.09880  0.89090  0.07680  Biso   1.000  C
  C52      1.0000 0.59880  0.39090  0.07680  Biso   1.000  C
  C53      1.0000 0.09880  0.10910  0.57680  Biso   1.000  C
  C54      1.0000 0.59880  0.60910  0.57680  Biso   1.000  C
  C55      1.0000 0.90120  0.10910  0.92320  Biso   1.000  C
  C56      1.0000 0.40120  0.60910  0.92320  Biso   1.000  C
  H33      1.0000 0.92120  0.92500  0.46810  Biso   1.000  H
  H34      1.0000 0.42120  0.42500  0.46810  Biso   1.000  H
  H35      1.0000 0.07880  0.92500  0.03190  Biso   1.000  H
  H36      1.0000 0.57880  0.42500  0.03190  Biso   1.000  H
  H37      1.0000 0.07880  0.07500  0.53190  Biso   1.000  H
  H38      1.0000 0.57880  0.57500  0.53190  Biso   1.000  H
  H39      1.0000 0.92120  0.07500  0.96810  Biso   1.000  H
  H40      1.0000 0.42120  0.57500  0.96810  Biso   1.000  H
  C57      1.0000 0.60310  0.85980  0.20990  Biso   1.000  C
  C58      1.0000 0.10310  0.35980  0.20990  Biso   1.000  C
  C59      1.0000 0.39690  0.85980  0.29010  Biso   1.000  C
  C60      1.0000 0.89690  0.35980  0.29010  Biso   1.000  C
  C61      1.0000 0.39690  0.14020  0.79010  Biso   1.000  C
  C62      1.0000 0.89690  0.64020  0.79010  Biso   1.000  C
  C63      1.0000 0.60310  0.14020  0.70990  Biso   1.000  C
  C64      1.0000 0.10310  0.64020  0.70990  Biso   1.000  C
  H41      1.0000 0.60610  0.81440  0.23980  Biso   1.000  H
  H42      1.0000 0.10610  0.31440  0.23980  Biso   1.000  H
  H43      1.0000 0.39390  0.81440  0.26020  Biso   1.000  H
  H44      1.0000 0.89390  0.31440  0.26020  Biso   1.000  H
  H45      1.0000 0.39390  0.18560  0.76020  Biso   1.000  H
  H46      1.0000 0.89390  0.68560  0.76020  Biso   1.000  H
  H47      1.0000 0.60610  0.18560  0.73980  Biso   1.000  H
  H48      1.0000 0.10610  0.68560  0.73980  Biso   1.000  H
  C65      1.0000 0.56970  0.96480  0.14880  Biso   1.000  C
  C66      1.0000 0.06970  0.46480  0.14880  Biso   1.000  C
  C67      1.0000 0.43030  0.96480  0.35120  Biso   1.000  C
  C68      1.0000 0.93030  0.46480  0.35120  Biso   1.000  C
  C69      1.0000 0.43030  0.03520  0.85120  Biso   1.000  C
  C70      1.0000 0.93030  0.53520  0.85120  Biso   1.000  C
  C71      1.0000 0.56970  0.03520  0.64880  Biso   1.000  C
  C72      1.0000 0.06970  0.53520  0.64880  Biso   1.000  C
  C73      1.0000 0.62490  0.95480  0.14030  Biso   1.000  C
  C74      1.0000 0.12490  0.45480  0.14030  Biso   1.000  C
  C75      1.0000 0.37510  0.95480  0.35970  Biso   1.000  C
  C76      1.0000 0.87510  0.45480  0.35970  Biso   1.000  C
  C77      1.0000 0.37510  0.04520  0.85970  Biso   1.000  C
  C78      1.0000 0.87510  0.54520  0.85970  Biso   1.000  C
  C79      1.0000 0.62490  0.04520  0.64030  Biso   1.000  C
  C80      1.0000 0.12490  0.54520  0.64030  Biso   1.000  C
  C81      1.0000 0.64930  0.00860  0.09990  Biso   1.000  C
  C82      1.0000 0.14930  0.50860  0.09990  Biso   1.000  C
  C83      1.0000 0.35070  0.00860  0.40010  Biso   1.000  C
  C84      1.0000 0.85070  0.50860  0.40010  Biso   1.000  C
  C85      1.0000 0.35070  0.99140  0.90010  Biso   1.000  C
  C86      1.0000 0.85070  0.49140  0.90010  Biso   1.000  C
  C87      1.0000 0.64930  0.99140  0.59990  Biso   1.000  C
  C88      1.0000 0.14930  0.49140  0.59990  Biso   1.000  C
  H49      1.0000 0.68690  0.00390  0.09610  Biso   1.000  H
  H50      1.0000 0.18690  0.50390  0.09610  Biso   1.000  H
  H51      1.0000 0.31310  0.00390  0.40390  Biso   1.000  H
  H52      1.0000 0.81310  0.50390  0.40390  Biso   1.000  H
  H53      1.0000 0.31310  0.99610  0.90390  Biso   1.000  H
  H54      1.0000 0.81310  0.49610  0.90390  Biso   1.000  H
  H55      1.0000 0.68690  0.99610  0.59610  Biso   1.000  H
  H56      1.0000 0.18690  0.49610  0.59610  Biso   1.000  H
  C89      1.0000 0.61410  0.06990  0.06550  Biso   1.000  C
  C90      1.0000 0.11410  0.56990  0.06550  Biso   1.000  C
  C91      1.0000 0.38590  0.06990  0.43450  Biso   1.000  C
  C92      1.0000 0.88590  0.56990  0.43450  Biso   1.000  C
  C93      1.0000 0.38590  0.93010  0.93450  Biso   1.000  C
  C94      1.0000 0.88590  0.43010  0.93450  Biso   1.000  C
  C95      1.0000 0.61410  0.93010  0.56550  Biso   1.000  C
  C96      1.0000 0.11410  0.43010  0.56550  Biso   1.000  C
  H57      1.0000 0.62820  0.10730  0.03670  Biso   1.000  H
  H58      1.0000 0.12820  0.60730  0.03670  Biso   1.000  H
  H59      1.0000 0.37180  0.10730  0.46330  Biso   1.000  H
  H60      1.0000 0.87180  0.60730  0.46330  Biso   1.000  H
  H61      1.0000 0.37180  0.89270  0.96330  Biso   1.000  H
  H62      1.0000 0.87180  0.39270  0.96330  Biso   1.000  H
  H63      1.0000 0.62820  0.89270  0.53670  Biso   1.000  H
  H64      1.0000 0.12820  0.39270  0.53670  Biso   1.000  H
  C97      1.0000 0.55790  0.07710  0.07290  Biso   1.000  C
  C98      1.0000 0.05790  0.57710  0.07290  Biso   1.000  C
  C99      1.0000 0.44210  0.07710  0.42710  Biso   1.000  C
  C100     1.0000 0.94210  0.57710  0.42710  Biso   1.000  C
  C101     1.0000 0.44210  0.92290  0.92710  Biso   1.000  C
  C102     1.0000 0.94210  0.42290  0.92710  Biso   1.000  C
  C103     1.0000 0.55790  0.92290  0.57290  Biso   1.000  C
  C104     1.0000 0.05790  0.42290  0.57290  Biso   1.000  C
  H65      1.0000 0.53520  0.11850  0.04760  Biso   1.000  H
  H66      1.0000 0.03520  0.61850  0.04760  Biso   1.000  H
  H67      1.0000 0.46480  0.11850  0.45240  Biso   1.000  H
  H68      1.0000 0.96480  0.61850  0.45240  Biso   1.000  H
  H69      1.0000 0.46480  0.88150  0.95240  Biso   1.000  H
  H70      1.0000 0.96480  0.38150  0.95240  Biso   1.000  H
  H71      1.0000 0.53520  0.88150  0.54760  Biso   1.000  H
  H72      1.0000 0.03520  0.38150  0.54760  Biso   1.000  H
  C105     1.0000 0.53560  0.02560  0.11560  Biso   1.000  C
  C106     1.0000 0.03560  0.52560  0.11560  Biso   1.000  C
  C107     1.0000 0.46440  0.02560  0.38440  Biso   1.000  C
  C108     1.0000 0.96440  0.52560  0.38440  Biso   1.000  C
  C109     1.0000 0.46440  0.97440  0.88440  Biso   1.000  C
  C110     1.0000 0.96440  0.47440  0.88440  Biso   1.000  C
  C111     1.0000 0.53560  0.97440  0.61560  Biso   1.000  C
  C112     1.0000 0.03560  0.47440  0.61560  Biso   1.000  C
  H73      1.0000 0.49880  0.03140  0.12220  Biso   1.000  H
  H74      1.0000 0.99880  0.53140  0.12220  Biso   1.000  H
  H75      1.0000 0.50120  0.03140  0.37780  Biso   1.000  H
  H76      1.0000 0.00120  0.53140  0.37780  Biso   1.000  H
  H77      1.0000 0.50120  0.96860  0.87780  Biso   1.000  H
  H78      1.0000 0.00120  0.46860  0.87780  Biso   1.000  H
  H79      1.0000 0.49880  0.96860  0.62220  Biso   1.000  H
  H80      1.0000 0.99880  0.46860  0.62220  Biso   1.000  H
  C113     1.0000 0.69330  0.70760  0.13000  Biso   1.000  C
  C114     1.0000 0.19330  0.20760  0.13000  Biso   1.000  C
  C115     1.0000 0.30670  0.70760  0.37000  Biso   1.000  C
  C116     1.0000 0.80670  0.20760  0.37000  Biso   1.000  C
  C117     1.0000 0.30670  0.29240  0.87000  Biso   1.000  C
  C118     1.0000 0.80670  0.79240  0.87000  Biso   1.000  C
  C119     1.0000 0.69330  0.29240  0.63000  Biso   1.000  C
  C120     1.0000 0.19330  0.79240  0.63000  Biso   1.000  C
  H81      1.0000 0.69400  0.71940  0.07180  Biso   1.000  H
  H82      1.0000 0.19400  0.21940  0.07180  Biso   1.000  H
  H83      1.0000 0.30600  0.71940  0.42820  Biso   1.000  H
  H84      1.0000 0.80600  0.21940  0.42820  Biso   1.000  H
  H85      1.0000 0.30600  0.28060  0.92820  Biso   1.000  H
  H86      1.0000 0.80600  0.78060  0.92820  Biso   1.000  H
  H87      1.0000 0.69400  0.28060  0.57180  Biso   1.000  H
  H88      1.0000 0.19400  0.78060  0.57180  Biso   1.000  H
  C121     1.0000 0.68930  0.64560  0.24480  Biso   1.000  C
  C122     1.0000 0.18930  0.14560  0.24480  Biso   1.000  C
  C123     1.0000 0.31070  0.64560  0.25520  Biso   1.000  C
  C124     1.0000 0.81070  0.14560  0.25520  Biso   1.000  C
  C125     1.0000 0.31070  0.35440  0.75520  Biso   1.000  C
  C126     1.0000 0.81070  0.85440  0.75520  Biso   1.000  C
  C127     1.0000 0.68930  0.35440  0.74480  Biso   1.000  C
  C128     1.0000 0.18930  0.85440  0.74480  Biso   1.000  C
  C129     1.0000 0.69640  0.72060  0.27160  Biso   1.000  C
  C130     1.0000 0.19640  0.22060  0.27160  Biso   1.000  C
  C131     1.0000 0.30360  0.72060  0.22840  Biso   1.000  C
  C132     1.0000 0.80360  0.22060  0.22840  Biso   1.000  C
  C133     1.0000 0.30360  0.27940  0.72840  Biso   1.000  C
  C134     1.0000 0.80360  0.77940  0.72840  Biso   1.000  C
  C135     1.0000 0.69640  0.27940  0.77160  Biso   1.000  C
  C136     1.0000 0.19640  0.77940  0.77160  Biso   1.000  C
  C137     1.0000 0.69890  0.74140  0.35930  Biso   1.000  C
  C138     1.0000 0.19890  0.24140  0.35930  Biso   1.000  C
  C139     1.0000 0.30110  0.74140  0.14070  Biso   1.000  C
  C140     1.0000 0.80110  0.24140  0.14070  Biso   1.000  C
  C141     1.0000 0.30110  0.25860  0.64070  Biso   1.000  C
  C142     1.0000 0.80110  0.75860  0.64070  Biso   1.000  C
  C143     1.0000 0.69890  0.25860  0.85930  Biso   1.000  C
  C144     1.0000 0.19890  0.75860  0.85930  Biso   1.000  C
  H89      1.0000 0.70390  0.79080  0.37790  Biso   1.000  H
  H90      1.0000 0.20390  0.29080  0.37790  Biso   1.000  H
  H91      1.0000 0.29610  0.79080  0.12210  Biso   1.000  H
  H92      1.0000 0.79610  0.29080  0.12210  Biso   1.000  H
  H93      1.0000 0.29610  0.20920  0.62210  Biso   1.000  H
  H94      1.0000 0.79610  0.70920  0.62210  Biso   1.000  H
  H95      1.0000 0.70390  0.20920  0.87790  Biso   1.000  H
  H96      1.0000 0.20390  0.70920  0.87790  Biso   1.000  H
  C145     1.0000 0.69370  0.68720  0.41650  Biso   1.000  C
  C146     1.0000 0.19370  0.18720  0.41650  Biso   1.000  C
  C147     1.0000 0.30630  0.68720  0.08350  Biso   1.000  C
  C148     1.0000 0.80630  0.18720  0.08350  Biso   1.000  C
  C149     1.0000 0.30630  0.31280  0.58350  Biso   1.000  C
  C150     1.0000 0.80630  0.81280  0.58350  Biso   1.000  C
  C151     1.0000 0.69370  0.31280  0.91650  Biso   1.000  C
  C152     1.0000 0.19370  0.81280  0.91650  Biso   1.000  C
  H97      1.0000 0.69470  0.69990  0.47530  Biso   1.000  H
  H98      1.0000 0.19470  0.19990  0.47530  Biso   1.000  H
  H99      1.0000 0.30530  0.69990  0.02470  Biso   1.000  H
  H100     1.0000 0.80530  0.19990  0.02470  Biso   1.000  H
  H101     1.0000 0.30530  0.30010  0.52470  Biso   1.000  H
  H102     1.0000 0.80530  0.80010  0.52470  Biso   1.000  H
  H103     1.0000 0.69470  0.30010  0.97530  Biso   1.000  H
  H104     1.0000 0.19470  0.80010  0.97530  Biso   1.000  H
  C153     1.0000 0.68690  0.61230  0.39000  Biso   1.000  C
  C154     1.0000 0.18690  0.11230  0.39000  Biso   1.000  C
  C155     1.0000 0.31310  0.61230  0.11000  Biso   1.000  C
  C156     1.0000 0.81310  0.11230  0.11000  Biso   1.000  C
  C157     1.0000 0.31310  0.38770  0.61000  Biso   1.000  C
  C158     1.0000 0.81310  0.88770  0.61000  Biso   1.000  C
  C159     1.0000 0.68690  0.38770  0.89000  Biso   1.000  C
  C160     1.0000 0.18690  0.88770  0.89000  Biso   1.000  C
  H105     1.0000 0.68350  0.57660  0.43140  Biso   1.000  H
  H106     1.0000 0.18350  0.07660  0.43140  Biso   1.000  H
  H107     1.0000 0.31650  0.57660  0.06860  Biso   1.000  H
  H108     1.0000 0.81650  0.07660  0.06860  Biso   1.000  H
  H109     1.0000 0.31650  0.42340  0.56860  Biso   1.000  H
  H110     1.0000 0.81650  0.92340  0.56860  Biso   1.000  H
  H111     1.0000 0.68350  0.42340  0.93140  Biso   1.000  H
  H112     1.0000 0.18350  0.92340  0.93140  Biso   1.000  H
  C161     1.0000 0.68510  0.59080  0.30390  Biso   1.000  C
  C162     1.0000 0.18510  0.09080  0.30390  Biso   1.000  C
  C163     1.0000 0.31490  0.59080  0.19610  Biso   1.000  C
  C164     1.0000 0.81490  0.09080  0.19610  Biso   1.000  C
  C165     1.0000 0.31490  0.40920  0.69610  Biso   1.000  C
  C166     1.0000 0.81490  0.90920  0.69610  Biso   1.000  C
  C167     1.0000 0.68510  0.40920  0.80390  Biso   1.000  C
  C168     1.0000 0.18510  0.90920  0.80390  Biso   1.000  C
  H113     1.0000 0.68120  0.54120  0.28630  Biso   1.000  H
  H114     1.0000 0.18120  0.04120  0.28630  Biso   1.000  H
  H115     1.0000 0.31880  0.54120  0.21370  Biso   1.000  H
  H116     1.0000 0.81880  0.04120  0.21370  Biso   1.000  H
  H117     1.0000 0.31880  0.45880  0.71370  Biso   1.000  H
  H118     1.0000 0.81880  0.95880  0.71370  Biso   1.000  H
  H119     1.0000 0.68120  0.45880  0.78630  Biso   1.000  H
  H120     1.0000 0.18120  0.95880  0.78630  Biso   1.000  H
  C169     1.0000 0.76140  0.89090  0.07750  Biso   1.000  C
  C170     1.0000 0.26140  0.39090  0.07750  Biso   1.000  C
  C171     1.0000 0.23860  0.89090  0.42250  Biso   1.000  C
  C172     1.0000 0.73860  0.39090  0.42250  Biso   1.000  C
  C173     1.0000 0.23860  0.10910  0.92250  Biso   1.000  C
  C174     1.0000 0.73860  0.60910  0.92250  Biso   1.000  C
  C175     1.0000 0.76140  0.10910  0.57750  Biso   1.000  C
  C176     1.0000 0.26140  0.60910  0.57750  Biso   1.000  C
  H121     1.0000 0.79640  0.89970  0.12530  Biso   1.000  H
  H122     1.0000 0.29640  0.39970  0.12530  Biso   1.000  H
  H123     1.0000 0.20360  0.89970  0.37470  Biso   1.000  H
  H124     1.0000 0.70360  0.39970  0.37470  Biso   1.000  H
  H125     1.0000 0.20360  0.10030  0.87470  Biso   1.000  H
  H126     1.0000 0.70360  0.60030  0.87470  Biso   1.000  H
  H127     1.0000 0.79640  0.10030  0.62530  Biso   1.000  H
  H128     1.0000 0.29640  0.60030  0.62530  Biso   1.000  H
  C177     1.0000 0.69620  0.88580  0.94310  Biso   1.000  C
  C178     1.0000 0.19620  0.38580  0.94310  Biso   1.000  C
  C179     1.0000 0.30380  0.88580  0.55690  Biso   1.000  C
  C180     1.0000 0.80380  0.38580  0.55690  Biso   1.000  C
  C181     1.0000 0.30380  0.11420  0.05690  Biso   1.000  C
  C182     1.0000 0.80380  0.61420  0.05690  Biso   1.000  C
  C183     1.0000 0.69620  0.11420  0.44310  Biso   1.000  C
  C184     1.0000 0.19620  0.61420  0.44310  Biso   1.000  C
  C185     1.0000 0.66970  0.85660  0.00460  Biso   1.000  C
  C186     1.0000 0.16970  0.35660  0.00460  Biso   1.000  C
  C187     1.0000 0.33030  0.85660  0.49540  Biso   1.000  C
  C188     1.0000 0.83030  0.35660  0.49540  Biso   1.000  C
  C189     1.0000 0.33030  0.14340  0.99540  Biso   1.000  C
  C190     1.0000 0.83030  0.64340  0.99540  Biso   1.000  C
  C191     1.0000 0.66970  0.14340  0.50460  Biso   1.000  C
  C192     1.0000 0.16970  0.64340  0.50460  Biso   1.000  C
  C193     1.0000 0.61230  0.83080  0.97450  Biso   1.000  C
  C194     1.0000 0.11230  0.33080  0.97450  Biso   1.000  C
  C195     1.0000 0.38770  0.83080  0.52550  Biso   1.000  C
  C196     1.0000 0.88770  0.33080  0.52550  Biso   1.000  C
  C197     1.0000 0.38770  0.16920  0.02550  Biso   1.000  C
  C198     1.0000 0.88770  0.66920  0.02550  Biso   1.000  C
  C199     1.0000 0.61230  0.16920  0.47450  Biso   1.000  C
  C200     1.0000 0.11230  0.66920  0.47450  Biso   1.000  C
  H129     1.0000 0.59560  0.80990  0.01520  Biso   1.000  H
  H130     1.0000 0.09560  0.30990  0.01520  Biso   1.000  H
  H131     1.0000 0.40440  0.80990  0.48480  Biso   1.000  H
  H132     1.0000 0.90440  0.30990  0.48480  Biso   1.000  H
  H133     1.0000 0.40440  0.19010  0.98480  Biso   1.000  H
  H134     1.0000 0.90440  0.69010  0.98480  Biso   1.000  H
  H135     1.0000 0.59560  0.19010  0.51520  Biso   1.000  H
  H136     1.0000 0.09560  0.69010  0.51520  Biso   1.000  H
  C201     1.0000 0.58070  0.83670  0.88300  Biso   1.000  C
  C202     1.0000 0.08070  0.33670  0.88300  Biso   1.000  C
  C203     1.0000 0.41930  0.83670  0.61700  Biso   1.000  C
  C204     1.0000 0.91930  0.33670  0.61700  Biso   1.000  C
  C205     1.0000 0.41930  0.16330  0.11700  Biso   1.000  C
  C206     1.0000 0.91930  0.66330  0.11700  Biso   1.000  C
  C207     1.0000 0.58070  0.16330  0.38300  Biso   1.000  C
  C208     1.0000 0.08070  0.66330  0.38300  Biso   1.000  C
  H137     1.0000 0.54180  0.82050  0.86130  Biso   1.000  H
  H138     1.0000 0.04180  0.32050  0.86130  Biso   1.000  H
  H139     1.0000 0.45820  0.82050  0.63870  Biso   1.000  H
  H140     1.0000 0.95820  0.32050  0.63870  Biso   1.000  H
  H141     1.0000 0.45820  0.17950  0.13870  Biso   1.000  H
  H142     1.0000 0.95820  0.67950  0.13870  Biso   1.000  H
  H143     1.0000 0.54180  0.17950  0.36130  Biso   1.000  H
  H144     1.0000 0.04180  0.67950  0.36130  Biso   1.000  H
  C209     1.0000 0.60640  0.86710  0.82150  Biso   1.000  C
  C210     1.0000 0.10640  0.36710  0.82150  Biso   1.000  C
  C211     1.0000 0.39360  0.86710  0.67850  Biso   1.000  C
  C212     1.0000 0.89360  0.36710  0.67850  Biso   1.000  C
  C213     1.0000 0.39360  0.13290  0.17850  Biso   1.000  C
  C214     1.0000 0.89360  0.63290  0.17850  Biso   1.000  C
  C215     1.0000 0.60640  0.13290  0.32150  Biso   1.000  C
  C216     1.0000 0.10640  0.63290  0.32150  Biso   1.000  C
  H145     1.0000 0.58360  0.87090  0.75990  Biso   1.000  H
  H146     1.0000 0.08360  0.37090  0.75990  Biso   1.000  H
  H147     1.0000 0.41640  0.87090  0.74010  Biso   1.000  H
  H148     1.0000 0.91640  0.37090  0.74010  Biso   1.000  H
  H149     1.0000 0.41640  0.12910  0.24010  Biso   1.000  H
  H150     1.0000 0.91640  0.62910  0.24010  Biso   1.000  H
  H151     1.0000 0.58360  0.12910  0.25990  Biso   1.000  H
  H152     1.0000 0.08360  0.62910  0.25990  Biso   1.000  H
  C217     1.0000 0.66430  0.89150  0.84910  Biso   1.000  C
  C218     1.0000 0.16430  0.39150  0.84910  Biso   1.000  C
  C219     1.0000 0.33570  0.89150  0.65090  Biso   1.000  C
  C220     1.0000 0.83570  0.39150  0.65090  Biso   1.000  C
  C221     1.0000 0.33570  0.10850  0.15090  Biso   1.000  C
  C222     1.0000 0.83570  0.60850  0.15090  Biso   1.000  C
  C223     1.0000 0.66430  0.10850  0.34910  Biso   1.000  C
  C224     1.0000 0.16430  0.60850  0.34910  Biso   1.000  C
  H153     1.0000 0.68110  0.91070  0.80760  Biso   1.000  H
  H154     1.0000 0.18110  0.41070  0.80760  Biso   1.000  H
  H155     1.0000 0.31890  0.91070  0.69240  Biso   1.000  H
  H156     1.0000 0.81890  0.41070  0.69240  Biso   1.000  H
  H157     1.0000 0.31890  0.08930  0.19240  Biso   1.000  H
  H158     1.0000 0.81890  0.58930  0.19240  Biso   1.000  H
  H159     1.0000 0.68110  0.08930  0.30760  Biso   1.000  H
  H160     1.0000 0.18110  0.58930  0.30760  Biso   1.000  H
  B1       1.0000 0.70370  0.84420  0.18400  Biso   1.000  B
  B2       1.0000 0.20370  0.34420  0.18400  Biso   1.000  B
  B3       1.0000 0.29630  0.84420  0.31600  Biso   1.000  B
  B4       1.0000 0.79630  0.34420  0.31600  Biso   1.000  B
  B5       1.0000 0.29630  0.15580  0.81600  Biso   1.000  B
  B6       1.0000 0.79630  0.65580  0.81600  Biso   1.000  B
  B7       1.0000 0.70370  0.15580  0.68400  Biso   1.000  B
  B8       1.0000 0.20370  0.65580  0.68400  Biso   1.000  B
  O1       1.0000 0.50000  0.26100  0.75000  Biso   1.000  O
  O2       1.0000 0.00000  0.76100  0.75000  Biso   1.000  O
  O3       1.0000 0.50000  0.73900  0.25000  Biso   1.000  O
  O4       1.0000 0.00000  0.23900  0.25000  Biso   1.000  O
