data_image0
_cell_length_a       15.1296
_cell_length_b       15.1296
_cell_length_c       15.1296
_cell_angle_alpha    90
_cell_angle_beta     90
_cell_angle_gamma    90

_symmetry_space_group_name_H-M    "P 1"
_symmetry_int_tables_number       1

loop_
  _symmetry_equiv_pos_as_xyz
  'x, y, z'

loop_
  _atom_site_label
  _atom_site_occupancy
  _atom_site_fract_x
  _atom_site_fract_y
  _atom_site_fract_z
  _atom_site_thermal_displace_type
  _atom_site_B_iso_or_equiv
  _atom_site_type_symbol
  Cu1      1.0000 0.07000  0.07000  0.07000  Biso   1.000  Cu
  Cu2      1.0000 0.43000  0.93000  0.57000  Biso   1.000  Cu
  Cu3      1.0000 0.93000  0.57000  0.43000  Biso   1.000  Cu
  Cu4      1.0000 0.57000  0.43000  0.93000  Biso   1.000  Cu
  Cu5      1.0000 0.93000  0.93000  0.93000  Biso   1.000  Cu
  Cu6      1.0000 0.57000  0.07000  0.43000  Biso   1.000  Cu
  Cu7      1.0000 0.07000  0.43000  0.57000  Biso   1.000  Cu
  Cu8      1.0000 0.43000  0.57000  0.07000  Biso   1.000  Cu
  N1       1.0000 0.08030  0.97520  0.15930  Biso   1.000  N
  N2       1.0000 0.15930  0.08030  0.97520  Biso   1.000  N
  N3       1.0000 0.97520  0.15930  0.08030  Biso   1.000  N
  N4       1.0000 0.41970  0.02480  0.65930  Biso   1.000  N
  N5       1.0000 0.91970  0.47520  0.34070  Biso   1.000  N
  N6       1.0000 0.58030  0.52480  0.84070  Biso   1.000  N
  N7       1.0000 0.65930  0.41970  0.02480  Biso   1.000  N
  N8       1.0000 0.34070  0.91970  0.47520  Biso   1.000  N
  N9       1.0000 0.84070  0.58030  0.52480  Biso   1.000  N
  N10      1.0000 0.02480  0.65930  0.41970  Biso   1.000  N
  N11      1.0000 0.47520  0.34070  0.91970  Biso   1.000  N
  N12      1.0000 0.52480  0.84070  0.58030  Biso   1.000  N
  N13      1.0000 0.91970  0.02480  0.84070  Biso   1.000  N
  N14      1.0000 0.84070  0.91970  0.02480  Biso   1.000  N
  N15      1.0000 0.02480  0.84070  0.91970  Biso   1.000  N
  N16      1.0000 0.58030  0.97520  0.34070  Biso   1.000  N
  N17      1.0000 0.08030  0.52480  0.65930  Biso   1.000  N
  N18      1.0000 0.41970  0.47520  0.15930  Biso   1.000  N
  N19      1.0000 0.34070  0.58030  0.97520  Biso   1.000  N
  N20      1.0000 0.65930  0.08030  0.52480  Biso   1.000  N
  N21      1.0000 0.15930  0.41970  0.47520  Biso   1.000  N
  N22      1.0000 0.97520  0.34070  0.58030  Biso   1.000  N
  N23      1.0000 0.52480  0.65930  0.08030  Biso   1.000  N
  N24      1.0000 0.47520  0.15930  0.41970  Biso   1.000  N
  C1       1.0000 0.06070  0.06730  0.29470  Biso   1.000  C
  C2       1.0000 0.29470  0.06070  0.06730  Biso   1.000  C
  C3       1.0000 0.06730  0.29470  0.06070  Biso   1.000  C
  C4       1.0000 0.43930  0.93270  0.79470  Biso   1.000  C
  C5       1.0000 0.93930  0.56730  0.20530  Biso   1.000  C
  C6       1.0000 0.56070  0.43270  0.70530  Biso   1.000  C
  C7       1.0000 0.79470  0.43930  0.93270  Biso   1.000  C
  C8       1.0000 0.20530  0.93930  0.56730  Biso   1.000  C
  C9       1.0000 0.70530  0.56070  0.43270  Biso   1.000  C
  C10      1.0000 0.93270  0.79470  0.43930  Biso   1.000  C
  C11      1.0000 0.56730  0.20530  0.93930  Biso   1.000  C
  C12      1.0000 0.43270  0.70530  0.56070  Biso   1.000  C
  C13      1.0000 0.93930  0.93270  0.70530  Biso   1.000  C
  C14      1.0000 0.70530  0.93930  0.93270  Biso   1.000  C
  C15      1.0000 0.93270  0.70530  0.93930  Biso   1.000  C
  C16      1.0000 0.56070  0.06730  0.20530  Biso   1.000  C
  C17      1.0000 0.06070  0.43270  0.79470  Biso   1.000  C
  C18      1.0000 0.43930  0.56730  0.29470  Biso   1.000  C
  C19      1.0000 0.20530  0.56070  0.06730  Biso   1.000  C
  C20      1.0000 0.79470  0.06070  0.43270  Biso   1.000  C
  C21      1.0000 0.29470  0.43930  0.56730  Biso   1.000  C
  C22      1.0000 0.06730  0.20530  0.56070  Biso   1.000  C
  C23      1.0000 0.43270  0.79470  0.06070  Biso   1.000  C
  C24      1.0000 0.56730  0.29470  0.43930  Biso   1.000  C
  H1       1.0000 0.02500  0.05440  0.34810  Biso   1.000  H
  H2       1.0000 0.34810  0.02500  0.05440  Biso   1.000  H
  H3       1.0000 0.05440  0.34810  0.02500  Biso   1.000  H
  H4       1.0000 0.47500  0.94560  0.84810  Biso   1.000  H
  H5       1.0000 0.97500  0.55440  0.15190  Biso   1.000  H
  H6       1.0000 0.52500  0.44560  0.65190  Biso   1.000  H
  H7       1.0000 0.84810  0.47500  0.94560  Biso   1.000  H
  H8       1.0000 0.15190  0.97500  0.55440  Biso   1.000  H
  H9       1.0000 0.65190  0.52500  0.44560  Biso   1.000  H
  H10      1.0000 0.94560  0.84810  0.47500  Biso   1.000  H
  H11      1.0000 0.55440  0.15190  0.97500  Biso   1.000  H
  H12      1.0000 0.44560  0.65190  0.52500  Biso   1.000  H
  H13      1.0000 0.97500  0.94560  0.65190  Biso   1.000  H
  H14      1.0000 0.65190  0.97500  0.94560  Biso   1.000  H
  H15      1.0000 0.94560  0.65190  0.97500  Biso   1.000  H
  H16      1.0000 0.52500  0.05440  0.15190  Biso   1.000  H
  H17      1.0000 0.02500  0.44560  0.84810  Biso   1.000  H
  H18      1.0000 0.47500  0.55440  0.34810  Biso   1.000  H
  H19      1.0000 0.15190  0.52500  0.05440  Biso   1.000  H
  H20      1.0000 0.84810  0.02500  0.44560  Biso   1.000  H
  H21      1.0000 0.34810  0.47500  0.55440  Biso   1.000  H
  H22      1.0000 0.05440  0.15190  0.52500  Biso   1.000  H
  H23      1.0000 0.44560  0.84810  0.02500  Biso   1.000  H
  H24      1.0000 0.55440  0.34810  0.47500  Biso   1.000  H
  H25      1.0000 0.02500  0.10600  0.25590  Biso   1.000  H
  H26      1.0000 0.25590  0.02500  0.10600  Biso   1.000  H
  H27      1.0000 0.10600  0.25590  0.02500  Biso   1.000  H
  H28      1.0000 0.47500  0.89400  0.75590  Biso   1.000  H
  H29      1.0000 0.97500  0.60600  0.24410  Biso   1.000  H
  H30      1.0000 0.52500  0.39400  0.74410  Biso   1.000  H
  H31      1.0000 0.75590  0.47500  0.89400  Biso   1.000  H
  H32      1.0000 0.24410  0.97500  0.60600  Biso   1.000  H
  H33      1.0000 0.74410  0.52500  0.39400  Biso   1.000  H
  H34      1.0000 0.89400  0.75590  0.47500  Biso   1.000  H
  H35      1.0000 0.60600  0.24410  0.97500  Biso   1.000  H
  H36      1.0000 0.39400  0.74410  0.52500  Biso   1.000  H
  H37      1.0000 0.97500  0.89400  0.74410  Biso   1.000  H
  H38      1.0000 0.74410  0.97500  0.89400  Biso   1.000  H
  H39      1.0000 0.89400  0.74410  0.97500  Biso   1.000  H
  H40      1.0000 0.52500  0.10600  0.24410  Biso   1.000  H
  H41      1.0000 0.02500  0.39400  0.75590  Biso   1.000  H
  H42      1.0000 0.47500  0.60600  0.25590  Biso   1.000  H
  H43      1.0000 0.24410  0.52500  0.10600  Biso   1.000  H
  H44      1.0000 0.75590  0.02500  0.39400  Biso   1.000  H
  H45      1.0000 0.25590  0.47500  0.60600  Biso   1.000  H
  H46      1.0000 0.10600  0.24410  0.52500  Biso   1.000  H
  H47      1.0000 0.39400  0.75590  0.02500  Biso   1.000  H
  H48      1.0000 0.60600  0.25590  0.47500  Biso   1.000  H
  N25      1.0000 0.09510  0.90520  0.28700  Biso   1.000  N
  N26      1.0000 0.28700  0.09510  0.90520  Biso   1.000  N
  N27      1.0000 0.90520  0.28700  0.09510  Biso   1.000  N
  N28      1.0000 0.40490  0.09480  0.78700  Biso   1.000  N
  N29      1.0000 0.90490  0.40520  0.21300  Biso   1.000  N
  N30      1.0000 0.59510  0.59480  0.71300  Biso   1.000  N
  N31      1.0000 0.78700  0.40490  0.09480  Biso   1.000  N
  N32      1.0000 0.21300  0.90490  0.40520  Biso   1.000  N
  N33      1.0000 0.71300  0.59510  0.59480  Biso   1.000  N
  N34      1.0000 0.09480  0.78700  0.40490  Biso   1.000  N
  N35      1.0000 0.40520  0.21300  0.90490  Biso   1.000  N
  N36      1.0000 0.59480  0.71300  0.59510  Biso   1.000  N
  N37      1.0000 0.90490  0.09480  0.71300  Biso   1.000  N
  N38      1.0000 0.71300  0.90490  0.09480  Biso   1.000  N
  N39      1.0000 0.09480  0.71300  0.90490  Biso   1.000  N
  N40      1.0000 0.59510  0.90520  0.21300  Biso   1.000  N
  N41      1.0000 0.09510  0.59480  0.78700  Biso   1.000  N
  N42      1.0000 0.40490  0.40520  0.28700  Biso   1.000  N
  N43      1.0000 0.21300  0.59510  0.90520  Biso   1.000  N
  N44      1.0000 0.78700  0.09510  0.59480  Biso   1.000  N
  N45      1.0000 0.28700  0.40490  0.40520  Biso   1.000  N
  N46      1.0000 0.90520  0.21300  0.59510  Biso   1.000  N
  N47      1.0000 0.59480  0.78700  0.09510  Biso   1.000  N
  N48      1.0000 0.40520  0.28700  0.40490  Biso   1.000  N
  C25      1.0000 0.09820  0.88840  0.14330  Biso   1.000  C
  C26      1.0000 0.14330  0.09820  0.88840  Biso   1.000  C
  C27      1.0000 0.88840  0.14330  0.09820  Biso   1.000  C
  C28      1.0000 0.40180  0.11160  0.64330  Biso   1.000  C
  C29      1.0000 0.90180  0.38840  0.35670  Biso   1.000  C
  C30      1.0000 0.59820  0.61160  0.85670  Biso   1.000  C
  C31      1.0000 0.64330  0.40180  0.11160  Biso   1.000  C
  C32      1.0000 0.35670  0.90180  0.38840  Biso   1.000  C
  C33      1.0000 0.85670  0.59820  0.61160  Biso   1.000  C
  C34      1.0000 0.11160  0.64330  0.40180  Biso   1.000  C
  C35      1.0000 0.38840  0.35670  0.90180  Biso   1.000  C
  C36      1.0000 0.61160  0.85670  0.59820  Biso   1.000  C
  C37      1.0000 0.90180  0.11160  0.85670  Biso   1.000  C
  C38      1.0000 0.85670  0.90180  0.11160  Biso   1.000  C
  C39      1.0000 0.11160  0.85670  0.90180  Biso   1.000  C
  C40      1.0000 0.59820  0.88840  0.35670  Biso   1.000  C
  C41      1.0000 0.09820  0.61160  0.64330  Biso   1.000  C
  C42      1.0000 0.40180  0.38840  0.14330  Biso   1.000  C
  C43      1.0000 0.35670  0.59820  0.88840  Biso   1.000  C
  C44      1.0000 0.64330  0.09820  0.61160  Biso   1.000  C
  C45      1.0000 0.14330  0.40180  0.38840  Biso   1.000  C
  C46      1.0000 0.88840  0.35670  0.59820  Biso   1.000  C
  C47      1.0000 0.61160  0.64330  0.09820  Biso   1.000  C
  C48      1.0000 0.38840  0.14330  0.40180  Biso   1.000  C
  H49      1.0000 0.10380  0.86290  0.08620  Biso   1.000  H
  H50      1.0000 0.08620  0.10380  0.86290  Biso   1.000  H
  H51      1.0000 0.86290  0.08620  0.10380  Biso   1.000  H
  H52      1.0000 0.39620  0.13710  0.58620  Biso   1.000  H
  H53      1.0000 0.89620  0.36290  0.41380  Biso   1.000  H
  H54      1.0000 0.60380  0.63710  0.91380  Biso   1.000  H
  H55      1.0000 0.58620  0.39620  0.13710  Biso   1.000  H
  H56      1.0000 0.41380  0.89620  0.36290  Biso   1.000  H
  H57      1.0000 0.91380  0.60380  0.63710  Biso   1.000  H
  H58      1.0000 0.13710  0.58620  0.39620  Biso   1.000  H
  H59      1.0000 0.36290  0.41380  0.89620  Biso   1.000  H
  H60      1.0000 0.63710  0.91380  0.60380  Biso   1.000  H
  H61      1.0000 0.89620  0.13710  0.91380  Biso   1.000  H
  H62      1.0000 0.91380  0.89620  0.13710  Biso   1.000  H
  H63      1.0000 0.13710  0.91380  0.89620  Biso   1.000  H
  H64      1.0000 0.60380  0.86290  0.41380  Biso   1.000  H
  H65      1.0000 0.10380  0.63710  0.58620  Biso   1.000  H
  H66      1.0000 0.39620  0.36290  0.08620  Biso   1.000  H
  H67      1.0000 0.41380  0.60380  0.86290  Biso   1.000  H
  H68      1.0000 0.58620  0.10380  0.63710  Biso   1.000  H
  H69      1.0000 0.08620  0.39620  0.36290  Biso   1.000  H
  H70      1.0000 0.86290  0.41380  0.60380  Biso   1.000  H
  H71      1.0000 0.63710  0.58620  0.10380  Biso   1.000  H
  H72      1.0000 0.36290  0.08620  0.39620  Biso   1.000  H
  C49      1.0000 0.07840  0.98320  0.24750  Biso   1.000  C
  C50      1.0000 0.24750  0.07840  0.98320  Biso   1.000  C
  C51      1.0000 0.98320  0.24750  0.07840  Biso   1.000  C
  C52      1.0000 0.42160  0.01680  0.74750  Biso   1.000  C
  C53      1.0000 0.92160  0.48320  0.25250  Biso   1.000  C
  C54      1.0000 0.57840  0.51680  0.75250  Biso   1.000  C
  C55      1.0000 0.74750  0.42160  0.01680  Biso   1.000  C
  C56      1.0000 0.25250  0.92160  0.48320  Biso   1.000  C
  C57      1.0000 0.75250  0.57840  0.51680  Biso   1.000  C
  C58      1.0000 0.01680  0.74750  0.42160  Biso   1.000  C
  C59      1.0000 0.48320  0.25250  0.92160  Biso   1.000  C
  C60      1.0000 0.51680  0.75250  0.57840  Biso   1.000  C
  C61      1.0000 0.92160  0.01680  0.75250  Biso   1.000  C
  C62      1.0000 0.75250  0.92160  0.01680  Biso   1.000  C
  C63      1.0000 0.01680  0.75250  0.92160  Biso   1.000  C
  C64      1.0000 0.57840  0.98320  0.25250  Biso   1.000  C
  C65      1.0000 0.07840  0.51680  0.74750  Biso   1.000  C
  C66      1.0000 0.42160  0.48320  0.24750  Biso   1.000  C
  C67      1.0000 0.25250  0.57840  0.98320  Biso   1.000  C
  C68      1.0000 0.74750  0.07840  0.51680  Biso   1.000  C
  C69      1.0000 0.24750  0.42160  0.48320  Biso   1.000  C
  C70      1.0000 0.98320  0.25250  0.57840  Biso   1.000  C
  C71      1.0000 0.51680  0.74750  0.07840  Biso   1.000  C
  C72      1.0000 0.48320  0.24750  0.42160  Biso   1.000  C
  C73      1.0000 0.10660  0.84420  0.21960  Biso   1.000  C
  C74      1.0000 0.21960  0.10660  0.84420  Biso   1.000  C
  C75      1.0000 0.84420  0.21960  0.10660  Biso   1.000  C
  C76      1.0000 0.39340  0.15580  0.71960  Biso   1.000  C
  C77      1.0000 0.89340  0.34420  0.28040  Biso   1.000  C
  C78      1.0000 0.60660  0.65580  0.78040  Biso   1.000  C
  C79      1.0000 0.71960  0.39340  0.15580  Biso   1.000  C
  C80      1.0000 0.28040  0.89340  0.34420  Biso   1.000  C
  C81      1.0000 0.78040  0.60660  0.65580  Biso   1.000  C
  C82      1.0000 0.15580  0.71960  0.39340  Biso   1.000  C
  C83      1.0000 0.34420  0.28040  0.89340  Biso   1.000  C
  C84      1.0000 0.65580  0.78040  0.60660  Biso   1.000  C
  C85      1.0000 0.89340  0.15580  0.78040  Biso   1.000  C
  C86      1.0000 0.78040  0.89340  0.15580  Biso   1.000  C
  C87      1.0000 0.15580  0.78040  0.89340  Biso   1.000  C
  C88      1.0000 0.60660  0.84420  0.28040  Biso   1.000  C
  C89      1.0000 0.10660  0.65580  0.71960  Biso   1.000  C
  C90      1.0000 0.39340  0.34420  0.21960  Biso   1.000  C
  C91      1.0000 0.28040  0.60660  0.84420  Biso   1.000  C
  C92      1.0000 0.71960  0.10660  0.65580  Biso   1.000  C
  C93      1.0000 0.21960  0.39340  0.34420  Biso   1.000  C
  C94      1.0000 0.84420  0.28040  0.60660  Biso   1.000  C
  C95      1.0000 0.65580  0.71960  0.10660  Biso   1.000  C
  C96      1.0000 0.34420  0.21960  0.39340  Biso   1.000  C
  H73      1.0000 0.11820  0.78280  0.22620  Biso   1.000  H
  H74      1.0000 0.22620  0.11820  0.78280  Biso   1.000  H
  H75      1.0000 0.78280  0.22620  0.11820  Biso   1.000  H
  H76      1.0000 0.38180  0.21720  0.72620  Biso   1.000  H
  H77      1.0000 0.88180  0.28280  0.27380  Biso   1.000  H
  H78      1.0000 0.61820  0.71720  0.77380  Biso   1.000  H
  H79      1.0000 0.72620  0.38180  0.21720  Biso   1.000  H
  H80      1.0000 0.27380  0.88180  0.28280  Biso   1.000  H
  H81      1.0000 0.77380  0.61820  0.71720  Biso   1.000  H
  H82      1.0000 0.21720  0.72620  0.38180  Biso   1.000  H
  H83      1.0000 0.28280  0.27380  0.88180  Biso   1.000  H
  H84      1.0000 0.71720  0.77380  0.61820  Biso   1.000  H
  H85      1.0000 0.88180  0.21720  0.77380  Biso   1.000  H
  H86      1.0000 0.77380  0.88180  0.21720  Biso   1.000  H
  H87      1.0000 0.21720  0.77380  0.88180  Biso   1.000  H
  H88      1.0000 0.61820  0.78280  0.27380  Biso   1.000  H
  H89      1.0000 0.11820  0.71720  0.72620  Biso   1.000  H
  H90      1.0000 0.38180  0.28280  0.22620  Biso   1.000  H
  H91      1.0000 0.27380  0.61820  0.78280  Biso   1.000  H
  H92      1.0000 0.72620  0.11820  0.71720  Biso   1.000  H
  H93      1.0000 0.22620  0.38180  0.28280  Biso   1.000  H
  H94      1.0000 0.78280  0.27380  0.61820  Biso   1.000  H
  H95      1.0000 0.71720  0.72620  0.11820  Biso   1.000  H
  H96      1.0000 0.28280  0.22620  0.38180  Biso   1.000  H
  B1       1.0000 0.11400  0.88600  0.38600  Biso   1.000  B
  B2       1.0000 0.38600  0.11400  0.88600  Biso   1.000  B
  B3       1.0000 0.88600  0.38600  0.11400  Biso   1.000  B
  B4       1.0000 0.61400  0.61400  0.61400  Biso   1.000  B
  B5       1.0000 0.88600  0.11400  0.61400  Biso   1.000  B
  B6       1.0000 0.61400  0.88600  0.11400  Biso   1.000  B
  B7       1.0000 0.11400  0.61400  0.88600  Biso   1.000  B
  B8       1.0000 0.38600  0.38600  0.38600  Biso   1.000  B
  C97      1.0000 0.14170  0.11610  0.32200  Biso   1.000  C
  C98      1.0000 0.32200  0.14170  0.11610  Biso   1.000  C
  C99      1.0000 0.11610  0.32200  0.14170  Biso   1.000  C
  C100     1.0000 0.35830  0.88390  0.82200  Biso   1.000  C
  C101     1.0000 0.85830  0.61610  0.17800  Biso   1.000  C
  C102     1.0000 0.64170  0.38390  0.67800  Biso   1.000  C
  C103     1.0000 0.82200  0.35830  0.88390  Biso   1.000  C
  C104     1.0000 0.17800  0.85830  0.61610  Biso   1.000  C
  C105     1.0000 0.67800  0.64170  0.38390  Biso   1.000  C
  C106     1.0000 0.88390  0.82200  0.35830  Biso   1.000  C
  C107     1.0000 0.61610  0.17800  0.85830  Biso   1.000  C
  C108     1.0000 0.38390  0.67800  0.64170  Biso   1.000  C
  C109     1.0000 0.85830  0.88390  0.67800  Biso   1.000  C
  C110     1.0000 0.67800  0.85830  0.88390  Biso   1.000  C
  C111     1.0000 0.88390  0.67800  0.85830  Biso   1.000  C
  C112     1.0000 0.64170  0.11610  0.17800  Biso   1.000  C
  C113     1.0000 0.14170  0.38390  0.82200  Biso   1.000  C
  C114     1.0000 0.35830  0.61610  0.32200  Biso   1.000  C
  C115     1.0000 0.17800  0.64170  0.11610  Biso   1.000  C
  C116     1.0000 0.82200  0.14170  0.38390  Biso   1.000  C
  C117     1.0000 0.32200  0.35830  0.61610  Biso   1.000  C
  C118     1.0000 0.11610  0.17800  0.64170  Biso   1.000  C
  C119     1.0000 0.38390  0.82200  0.14170  Biso   1.000  C
  C120     1.0000 0.61610  0.32200  0.35830  Biso   1.000  C
  H97      1.0000 0.12490  0.17070  0.35250  Biso   1.000  H
  H98      1.0000 0.35250  0.12490  0.17070  Biso   1.000  H
  H99      1.0000 0.17070  0.35250  0.12490  Biso   1.000  H
  H100     1.0000 0.37510  0.82930  0.85250  Biso   1.000  H
  H101     1.0000 0.87510  0.67070  0.14750  Biso   1.000  H
  H102     1.0000 0.62490  0.32930  0.64750  Biso   1.000  H
  H103     1.0000 0.85250  0.37510  0.82930  Biso   1.000  H
  H104     1.0000 0.14750  0.87510  0.67070  Biso   1.000  H
  H105     1.0000 0.64750  0.62490  0.32930  Biso   1.000  H
  H106     1.0000 0.82930  0.85250  0.37510  Biso   1.000  H
  H107     1.0000 0.67070  0.14750  0.87510  Biso   1.000  H
  H108     1.0000 0.32930  0.64750  0.62490  Biso   1.000  H
  H109     1.0000 0.87510  0.82930  0.64750  Biso   1.000  H
  H110     1.0000 0.64750  0.87510  0.82930  Biso   1.000  H
  H111     1.0000 0.82930  0.64750  0.87510  Biso   1.000  H
  H112     1.0000 0.62490  0.17070  0.14750  Biso   1.000  H
  H113     1.0000 0.12490  0.32930  0.85250  Biso   1.000  H
  H114     1.0000 0.37510  0.67070  0.35250  Biso   1.000  H
  H115     1.0000 0.14750  0.62490  0.17070  Biso   1.000  H
  H116     1.0000 0.85250  0.12490  0.32930  Biso   1.000  H
  H117     1.0000 0.35250  0.37510  0.67070  Biso   1.000  H
  H118     1.0000 0.17070  0.14750  0.62490  Biso   1.000  H
  H119     1.0000 0.32930  0.85250  0.12490  Biso   1.000  H
  H120     1.0000 0.67070  0.35250  0.37510  Biso   1.000  H
  H121     1.0000 0.17680  0.13070  0.26950  Biso   1.000  H
  H122     1.0000 0.26950  0.17680  0.13070  Biso   1.000  H
  H123     1.0000 0.13070  0.26950  0.17680  Biso   1.000  H
  H124     1.0000 0.32320  0.86930  0.76950  Biso   1.000  H
  H125     1.0000 0.82320  0.63070  0.23050  Biso   1.000  H
  H126     1.0000 0.67680  0.36930  0.73050  Biso   1.000  H
  H127     1.0000 0.76950  0.32320  0.86930  Biso   1.000  H
  H128     1.0000 0.23050  0.82320  0.63070  Biso   1.000  H
  H129     1.0000 0.73050  0.67680  0.36930  Biso   1.000  H
  H130     1.0000 0.86930  0.76950  0.32320  Biso   1.000  H
  H131     1.0000 0.63070  0.23050  0.82320  Biso   1.000  H
  H132     1.0000 0.36930  0.73050  0.67680  Biso   1.000  H
  H133     1.0000 0.82320  0.86930  0.73050  Biso   1.000  H
  H134     1.0000 0.73050  0.82320  0.86930  Biso   1.000  H
  H135     1.0000 0.86930  0.73050  0.82320  Biso   1.000  H
  H136     1.0000 0.67680  0.13070  0.23050  Biso   1.000  H
  H137     1.0000 0.17680  0.36930  0.76950  Biso   1.000  H
  H138     1.0000 0.32320  0.63070  0.26950  Biso   1.000  H
  H139     1.0000 0.23050  0.67680  0.13070  Biso   1.000  H
  H140     1.0000 0.76950  0.17680  0.36930  Biso   1.000  H
  H141     1.0000 0.26950  0.32320  0.63070  Biso   1.000  H
  H142     1.0000 0.13070  0.23050  0.67680  Biso   1.000  H
  H143     1.0000 0.36930  0.76950  0.17680  Biso   1.000  H
  H144     1.0000 0.63070  0.26950  0.32320  Biso   1.000  H
  H145     1.0000 0.17690  0.07900  0.36190  Biso   1.000  H
  H146     1.0000 0.36190  0.17690  0.07900  Biso   1.000  H
  H147     1.0000 0.07900  0.36190  0.17690  Biso   1.000  H
  H148     1.0000 0.32310  0.92100  0.86190  Biso   1.000  H
  H149     1.0000 0.82310  0.57900  0.13810  Biso   1.000  H
  H150     1.0000 0.67690  0.42100  0.63810  Biso   1.000  H
  H151     1.0000 0.86190  0.32310  0.92100  Biso   1.000  H
  H152     1.0000 0.13810  0.82310  0.57900  Biso   1.000  H
  H153     1.0000 0.63810  0.67690  0.42100  Biso   1.000  H
  H154     1.0000 0.92100  0.86190  0.32310  Biso   1.000  H
  H155     1.0000 0.57900  0.13810  0.82310  Biso   1.000  H
  H156     1.0000 0.42100  0.63810  0.67690  Biso   1.000  H
  H157     1.0000 0.82310  0.92100  0.63810  Biso   1.000  H
  H158     1.0000 0.63810  0.82310  0.92100  Biso   1.000  H
  H159     1.0000 0.92100  0.63810  0.82310  Biso   1.000  H
  H160     1.0000 0.67690  0.07900  0.13810  Biso   1.000  H
  H161     1.0000 0.17690  0.42100  0.86190  Biso   1.000  H
  H162     1.0000 0.32310  0.57900  0.36190  Biso   1.000  H
  H163     1.0000 0.13810  0.67690  0.07900  Biso   1.000  H
  H164     1.0000 0.86190  0.17690  0.42100  Biso   1.000  H
  H165     1.0000 0.36190  0.32310  0.57900  Biso   1.000  H
  H166     1.0000 0.07900  0.13810  0.67690  Biso   1.000  H
  H167     1.0000 0.42100  0.86190  0.17690  Biso   1.000  H
  H168     1.0000 0.57900  0.36190  0.32310  Biso   1.000  H
  H169     1.0000 0.06900  0.93100  0.43100  Biso   1.000  H
  H170     1.0000 0.43100  0.06900  0.93100  Biso   1.000  H
  H171     1.0000 0.93100  0.43100  0.06900  Biso   1.000  H
  H172     1.0000 0.56900  0.56900  0.56900  Biso   1.000  H
  H173     1.0000 0.93100  0.06900  0.56900  Biso   1.000  H
  H174     1.0000 0.56900  0.93100  0.06900  Biso   1.000  H
  H175     1.0000 0.06900  0.56900  0.93100  Biso   1.000  H
  H176     1.0000 0.43100  0.43100  0.43100  Biso   1.000  H
