data_image0
_cell_length_a       15.2141
_cell_length_b       15.2141
_cell_length_c       13.2235
_cell_angle_alpha    90
_cell_angle_beta     90
_cell_angle_gamma    90

_symmetry_space_group_name_H-M    "P 1"
_symmetry_int_tables_number       1

loop_
  _symmetry_equiv_pos_as_xyz
  'x, y, z'

loop_
  _atom_site_label
  _atom_site_occupancy
  _atom_site_fract_x
  _atom_site_fract_y
  _atom_site_fract_z
  _atom_site_thermal_displace_type
  _atom_site_B_iso_or_equiv
  _atom_site_type_symbol
  Cu1      1.0000 0.25000  0.75000  0.00000  Biso   1.000  Cu
  Cu2      1.0000 0.75000  0.25000  0.00000  Biso   1.000  Cu
  O1       1.0000 0.65550  0.20520  0.36470  Biso   1.000  O
  O2       1.0000 0.84450  0.29480  0.36470  Biso   1.000  O
  O3       1.0000 0.29480  0.65550  0.36470  Biso   1.000  O
  O4       1.0000 0.20520  0.84450  0.36470  Biso   1.000  O
  O5       1.0000 0.34450  0.79480  0.63530  Biso   1.000  O
  O6       1.0000 0.15550  0.70520  0.63530  Biso   1.000  O
  O7       1.0000 0.70520  0.34450  0.63530  Biso   1.000  O
  O8       1.0000 0.79480  0.15550  0.63530  Biso   1.000  O
  N1       1.0000 0.32060  0.84320  0.07490  Biso   1.000  N
  N2       1.0000 0.17940  0.65680  0.07490  Biso   1.000  N
  N3       1.0000 0.65680  0.32060  0.07490  Biso   1.000  N
  N4       1.0000 0.84320  0.17940  0.07490  Biso   1.000  N
  N5       1.0000 0.67940  0.15680  0.92510  Biso   1.000  N
  N6       1.0000 0.82060  0.34320  0.92510  Biso   1.000  N
  N7       1.0000 0.34320  0.67940  0.92510  Biso   1.000  N
  N8       1.0000 0.15680  0.82060  0.92510  Biso   1.000  N
  C1       1.0000 0.33710  0.92070  0.03160  Biso   1.000  C
  C2       1.0000 0.16290  0.57930  0.03160  Biso   1.000  C
  C3       1.0000 0.57930  0.33710  0.03160  Biso   1.000  C
  C4       1.0000 0.92070  0.16290  0.03160  Biso   1.000  C
  C5       1.0000 0.66290  0.07930  0.96840  Biso   1.000  C
  C6       1.0000 0.83710  0.42070  0.96840  Biso   1.000  C
  C7       1.0000 0.42070  0.66290  0.96840  Biso   1.000  C
  C8       1.0000 0.07930  0.83710  0.96840  Biso   1.000  C
  H1       1.0000 0.30720  0.93460  0.97150  Biso   1.000  H
  H2       1.0000 0.19280  0.56540  0.97150  Biso   1.000  H
  H3       1.0000 0.56540  0.30720  0.97150  Biso   1.000  H
  H4       1.0000 0.93460  0.19280  0.97150  Biso   1.000  H
  H5       1.0000 0.69280  0.06540  0.02850  Biso   1.000  H
  H6       1.0000 0.80720  0.43460  0.02850  Biso   1.000  H
  H7       1.0000 0.43460  0.69280  0.02850  Biso   1.000  H
  H8       1.0000 0.06540  0.80720  0.02850  Biso   1.000  H
  C9       1.0000 0.39560  0.98150  0.07000  Biso   1.000  C
  C10      1.0000 0.10440  0.51850  0.07000  Biso   1.000  C
  C11      1.0000 0.51850  0.39560  0.07000  Biso   1.000  C
  C12      1.0000 0.98150  0.10440  0.07000  Biso   1.000  C
  C13      1.0000 0.60440  0.01850  0.93000  Biso   1.000  C
  C14      1.0000 0.89560  0.48150  0.93000  Biso   1.000  C
  C15      1.0000 0.48150  0.60440  0.93000  Biso   1.000  C
  C16      1.0000 0.01850  0.89560  0.93000  Biso   1.000  C
  H9       1.0000 0.40460  0.03510  0.03620  Biso   1.000  H
  H10      1.0000 0.09540  0.46490  0.03620  Biso   1.000  H
  H11      1.0000 0.46490  0.40460  0.03620  Biso   1.000  H
  H12      1.0000 0.03510  0.09540  0.03620  Biso   1.000  H
  H13      1.0000 0.59540  0.96490  0.96380  Biso   1.000  H
  H14      1.0000 0.90460  0.53510  0.96380  Biso   1.000  H
  H15      1.0000 0.53510  0.59540  0.96380  Biso   1.000  H
  H16      1.0000 0.96490  0.90460  0.96380  Biso   1.000  H
  C17      1.0000 0.44100  0.96340  0.15840  Biso   1.000  C
  C18      1.0000 0.05900  0.53660  0.15840  Biso   1.000  C
  C19      1.0000 0.53660  0.44100  0.15840  Biso   1.000  C
  C20      1.0000 0.96340  0.05900  0.15840  Biso   1.000  C
  C21      1.0000 0.55900  0.03660  0.84160  Biso   1.000  C
  C22      1.0000 0.94100  0.46340  0.84160  Biso   1.000  C
  C23      1.0000 0.46340  0.55900  0.84160  Biso   1.000  C
  C24      1.0000 0.03660  0.94100  0.84160  Biso   1.000  C
  C25      1.0000 0.42310  0.88250  0.20400  Biso   1.000  C
  C26      1.0000 0.07690  0.61750  0.20400  Biso   1.000  C
  C27      1.0000 0.61750  0.42310  0.20400  Biso   1.000  C
  C28      1.0000 0.88250  0.07690  0.20400  Biso   1.000  C
  C29      1.0000 0.57690  0.11750  0.79600  Biso   1.000  C
  C30      1.0000 0.92310  0.38250  0.79600  Biso   1.000  C
  C31      1.0000 0.38250  0.57690  0.79600  Biso   1.000  C
  C32      1.0000 0.11750  0.92310  0.79600  Biso   1.000  C
  H17      1.0000 0.45180  0.86690  0.26430  Biso   1.000  H
  H18      1.0000 0.04820  0.63310  0.26430  Biso   1.000  H
  H19      1.0000 0.63310  0.45180  0.26430  Biso   1.000  H
  H20      1.0000 0.86690  0.04820  0.26430  Biso   1.000  H
  H21      1.0000 0.54820  0.13310  0.73570  Biso   1.000  H
  H22      1.0000 0.95180  0.36690  0.73570  Biso   1.000  H
  H23      1.0000 0.36690  0.54820  0.73570  Biso   1.000  H
  H24      1.0000 0.13310  0.95180  0.73570  Biso   1.000  H
  C33      1.0000 0.36390  0.82590  0.16130  Biso   1.000  C
  C34      1.0000 0.13610  0.67410  0.16130  Biso   1.000  C
  C35      1.0000 0.67410  0.36390  0.16130  Biso   1.000  C
  C36      1.0000 0.82590  0.13610  0.16130  Biso   1.000  C
  C37      1.0000 0.63610  0.17410  0.83870  Biso   1.000  C
  C38      1.0000 0.86390  0.32590  0.83870  Biso   1.000  C
  C39      1.0000 0.32590  0.63610  0.83870  Biso   1.000  C
  C40      1.0000 0.17410  0.86390  0.83870  Biso   1.000  C
  H25      1.0000 0.35290  0.77220  0.19400  Biso   1.000  H
  H26      1.0000 0.14710  0.72780  0.19400  Biso   1.000  H
  H27      1.0000 0.72780  0.35290  0.19400  Biso   1.000  H
  H28      1.0000 0.77220  0.14710  0.19400  Biso   1.000  H
  H29      1.0000 0.64710  0.22780  0.80600  Biso   1.000  H
  H30      1.0000 0.85290  0.27220  0.80600  Biso   1.000  H
  H31      1.0000 0.27220  0.64710  0.80600  Biso   1.000  H
  H32      1.0000 0.22780  0.85290  0.80600  Biso   1.000  H
  C41      1.0000 0.50320  0.02650  0.20460  Biso   1.000  C
  C42      1.0000 0.99680  0.47350  0.20460  Biso   1.000  C
  C43      1.0000 0.47350  0.50320  0.20460  Biso   1.000  C
  C44      1.0000 0.02650  0.99680  0.20460  Biso   1.000  C
  C45      1.0000 0.49680  0.97350  0.79540  Biso   1.000  C
  C46      1.0000 0.00320  0.52650  0.79540  Biso   1.000  C
  C47      1.0000 0.52650  0.49680  0.79540  Biso   1.000  C
  C48      1.0000 0.97350  0.00320  0.79540  Biso   1.000  C
  C49      1.0000 0.48750  0.11660  0.20090  Biso   1.000  C
  C50      1.0000 0.01250  0.38340  0.20090  Biso   1.000  C
  C51      1.0000 0.38340  0.48750  0.20090  Biso   1.000  C
  C52      1.0000 0.11660  0.01250  0.20090  Biso   1.000  C
  C53      1.0000 0.51250  0.88340  0.79910  Biso   1.000  C
  C54      1.0000 0.98750  0.61660  0.79910  Biso   1.000  C
  C55      1.0000 0.61660  0.51250  0.79910  Biso   1.000  C
  C56      1.0000 0.88340  0.98750  0.79910  Biso   1.000  C
  H33      1.0000 0.44040  0.13800  0.16200  Biso   1.000  H
  H34      1.0000 0.05960  0.36200  0.16200  Biso   1.000  H
  H35      1.0000 0.36200  0.44040  0.16200  Biso   1.000  H
  H36      1.0000 0.13800  0.05960  0.16200  Biso   1.000  H
  H37      1.0000 0.55960  0.86200  0.83800  Biso   1.000  H
  H38      1.0000 0.94040  0.63800  0.83800  Biso   1.000  H
  H39      1.0000 0.63800  0.55960  0.83800  Biso   1.000  H
  H40      1.0000 0.86200  0.94040  0.83800  Biso   1.000  H
  C57      1.0000 0.53970  0.17530  0.25340  Biso   1.000  C
  C58      1.0000 0.96030  0.32470  0.25340  Biso   1.000  C
  C59      1.0000 0.32470  0.53970  0.25340  Biso   1.000  C
  C60      1.0000 0.17530  0.96030  0.25340  Biso   1.000  C
  C61      1.0000 0.46030  0.82470  0.74660  Biso   1.000  C
  C62      1.0000 0.03970  0.67530  0.74660  Biso   1.000  C
  C63      1.0000 0.67530  0.46030  0.74660  Biso   1.000  C
  C64      1.0000 0.82470  0.03970  0.74660  Biso   1.000  C
  H41      1.0000 0.52780  0.23590  0.25080  Biso   1.000  H
  H42      1.0000 0.97220  0.26410  0.25080  Biso   1.000  H
  H43      1.0000 0.26410  0.52780  0.25080  Biso   1.000  H
  H44      1.0000 0.23590  0.97220  0.25080  Biso   1.000  H
  H45      1.0000 0.47220  0.76410  0.74920  Biso   1.000  H
  H46      1.0000 0.02780  0.73590  0.74920  Biso   1.000  H
  H47      1.0000 0.73590  0.47220  0.74920  Biso   1.000  H
  H48      1.0000 0.76410  0.02780  0.74920  Biso   1.000  H
  C65      1.0000 0.61030  0.14400  0.31030  Biso   1.000  C
  C66      1.0000 0.88970  0.35600  0.31030  Biso   1.000  C
  C67      1.0000 0.35600  0.61030  0.31030  Biso   1.000  C
  C68      1.0000 0.14400  0.88970  0.31030  Biso   1.000  C
  C69      1.0000 0.38970  0.85600  0.68970  Biso   1.000  C
  C70      1.0000 0.11030  0.64400  0.68970  Biso   1.000  C
  C71      1.0000 0.64400  0.38970  0.68970  Biso   1.000  C
  C72      1.0000 0.85600  0.11030  0.68970  Biso   1.000  C
  C73      1.0000 0.63020  0.05450  0.31020  Biso   1.000  C
  C74      1.0000 0.86980  0.44550  0.31020  Biso   1.000  C
  C75      1.0000 0.44550  0.63020  0.31020  Biso   1.000  C
  C76      1.0000 0.05450  0.86980  0.31020  Biso   1.000  C
  C77      1.0000 0.36980  0.94550  0.68980  Biso   1.000  C
  C78      1.0000 0.13020  0.55450  0.68980  Biso   1.000  C
  C79      1.0000 0.55450  0.36980  0.68980  Biso   1.000  C
  C80      1.0000 0.94550  0.13020  0.68980  Biso   1.000  C
  H49      1.0000 0.67980  0.03340  0.34520  Biso   1.000  H
  H50      1.0000 0.82020  0.46660  0.34520  Biso   1.000  H
  H51      1.0000 0.46660  0.67980  0.34520  Biso   1.000  H
  H52      1.0000 0.03340  0.82020  0.34520  Biso   1.000  H
  H53      1.0000 0.32020  0.96660  0.65480  Biso   1.000  H
  H54      1.0000 0.17980  0.53340  0.65480  Biso   1.000  H
  H55      1.0000 0.53340  0.32020  0.65480  Biso   1.000  H
  H56      1.0000 0.96660  0.17980  0.65480  Biso   1.000  H
  C81      1.0000 0.57620  0.99720  0.25820  Biso   1.000  C
  C82      1.0000 0.92380  0.50280  0.25820  Biso   1.000  C
  C83      1.0000 0.50280  0.57620  0.25820  Biso   1.000  C
  C84      1.0000 0.99720  0.92380  0.25820  Biso   1.000  C
  C85      1.0000 0.42380  0.00280  0.74180  Biso   1.000  C
  C86      1.0000 0.07620  0.49720  0.74180  Biso   1.000  C
  C87      1.0000 0.49720  0.42380  0.74180  Biso   1.000  C
  C88      1.0000 0.00280  0.07620  0.74180  Biso   1.000  C
  H57      1.0000 0.58920  0.93680  0.25900  Biso   1.000  H
  H58      1.0000 0.91080  0.56320  0.25900  Biso   1.000  H
  H59      1.0000 0.56320  0.58920  0.25900  Biso   1.000  H
  H60      1.0000 0.93680  0.91080  0.25900  Biso   1.000  H
  H61      1.0000 0.41080  0.06320  0.74100  Biso   1.000  H
  H62      1.0000 0.08920  0.43680  0.74100  Biso   1.000  H
  H63      1.0000 0.43680  0.41080  0.74100  Biso   1.000  H
  H64      1.0000 0.06320  0.08920  0.74100  Biso   1.000  H
  C89      1.0000 0.71970  0.17300  0.43470  Biso   1.000  C
  C90      1.0000 0.78030  0.32700  0.43470  Biso   1.000  C
  C91      1.0000 0.32700  0.71970  0.43470  Biso   1.000  C
  C92      1.0000 0.17300  0.78030  0.43470  Biso   1.000  C
  C93      1.0000 0.28030  0.82700  0.56530  Biso   1.000  C
  C94      1.0000 0.21970  0.67300  0.56530  Biso   1.000  C
  C95      1.0000 0.67300  0.28030  0.56530  Biso   1.000  C
  C96      1.0000 0.82700  0.21970  0.56530  Biso   1.000  C
  H65      1.0000 0.76970  0.14790  0.39810  Biso   1.000  H
  H66      1.0000 0.73030  0.35210  0.39810  Biso   1.000  H
  H67      1.0000 0.35210  0.76970  0.39810  Biso   1.000  H
  H68      1.0000 0.14790  0.73030  0.39810  Biso   1.000  H
  H69      1.0000 0.23030  0.85210  0.60190  Biso   1.000  H
  H70      1.0000 0.26970  0.64790  0.60190  Biso   1.000  H
  H71      1.0000 0.64790  0.23030  0.60190  Biso   1.000  H
  H72      1.0000 0.85210  0.26970  0.60190  Biso   1.000  H
  H73      1.0000 0.69390  0.12700  0.47730  Biso   1.000  H
  H74      1.0000 0.80610  0.37300  0.47730  Biso   1.000  H
  H75      1.0000 0.37300  0.69390  0.47730  Biso   1.000  H
  H76      1.0000 0.12700  0.80610  0.47730  Biso   1.000  H
  H77      1.0000 0.30610  0.87300  0.52270  Biso   1.000  H
  H78      1.0000 0.19390  0.62700  0.52270  Biso   1.000  H
  H79      1.0000 0.62700  0.30610  0.52270  Biso   1.000  H
  H80      1.0000 0.87300  0.19390  0.52270  Biso   1.000  H
  C97      1.0000 0.75000  0.25000  0.50000  Biso   1.000  C
  C98      1.0000 0.25000  0.75000  0.50000  Biso   1.000  C
  B1       1.0000 0.25000  0.25000  0.24100  Biso   1.000  B
  B2       1.0000 0.75000  0.75000  0.75900  Biso   1.000  B
  F1       1.0000 0.25000  0.25000  0.33900  Biso   1.000  F
  F2       1.0000 0.75000  0.75000  0.66100  Biso   1.000  F
  F3       1.0000 0.23200  0.34670  0.22600  Biso   1.000  F
  F4       1.0000 0.26800  0.15330  0.22600  Biso   1.000  F
  F5       1.0000 0.15330  0.23200  0.22600  Biso   1.000  F
  F6       1.0000 0.34670  0.26800  0.22600  Biso   1.000  F
  F7       1.0000 0.76800  0.65330  0.77400  Biso   1.000  F
  F8       1.0000 0.73200  0.84670  0.77400  Biso   1.000  F
  F9       1.0000 0.84670  0.76800  0.77400  Biso   1.000  F
  F10      1.0000 0.65330  0.73200  0.77400  Biso   1.000  F
  F11      1.0000 0.17800  0.21800  0.20500  Biso   1.000  F
  F12      1.0000 0.32200  0.28200  0.20500  Biso   1.000  F
  F13      1.0000 0.28200  0.17800  0.20500  Biso   1.000  F
  F14      1.0000 0.21800  0.32200  0.20500  Biso   1.000  F
  F15      1.0000 0.82200  0.78200  0.79500  Biso   1.000  F
  F16      1.0000 0.67800  0.71800  0.79500  Biso   1.000  F
  F17      1.0000 0.71800  0.82200  0.79500  Biso   1.000  F
  F18      1.0000 0.78200  0.67800  0.79500  Biso   1.000  F
  N9       1.0000 0.16000  0.02100  0.54660  Biso   1.000  N
  N10      1.0000 0.34000  0.47900  0.54660  Biso   1.000  N
  N11      1.0000 0.47900  0.16000  0.54660  Biso   1.000  N
  N12      1.0000 0.02100  0.34000  0.54660  Biso   1.000  N
  N13      1.0000 0.84000  0.97900  0.45340  Biso   1.000  N
  N14      1.0000 0.66000  0.52100  0.45340  Biso   1.000  N
  N15      1.0000 0.52100  0.84000  0.45340  Biso   1.000  N
  N16      1.0000 0.97900  0.66000  0.45340  Biso   1.000  N
  C99      1.0000 0.12000  0.06500  0.49680  Biso   1.000  C
  C100     1.0000 0.38000  0.43500  0.49680  Biso   1.000  C
  C101     1.0000 0.43500  0.12000  0.49680  Biso   1.000  C
  C102     1.0000 0.06500  0.38000  0.49680  Biso   1.000  C
  C103     1.0000 0.88000  0.93500  0.50320  Biso   1.000  C
  C104     1.0000 0.62000  0.56500  0.50320  Biso   1.000  C
  C105     1.0000 0.56500  0.88000  0.50320  Biso   1.000  C
  C106     1.0000 0.93500  0.62000  0.50320  Biso   1.000  C
  C107     1.0000 0.06800  0.12330  0.43320  Biso   1.000  C
  C108     1.0000 0.43200  0.37670  0.43320  Biso   1.000  C
  C109     1.0000 0.37670  0.06800  0.43320  Biso   1.000  C
  C110     1.0000 0.12330  0.43200  0.43320  Biso   1.000  C
  C111     1.0000 0.93200  0.87670  0.56680  Biso   1.000  C
  C112     1.0000 0.56800  0.62330  0.56680  Biso   1.000  C
  C113     1.0000 0.62330  0.93200  0.56680  Biso   1.000  C
  C114     1.0000 0.87670  0.56800  0.56680  Biso   1.000  C
  H81      1.0000 0.10300  0.14160  0.37540  Biso   1.000  H
  H82      1.0000 0.39700  0.35840  0.37540  Biso   1.000  H
  H83      1.0000 0.35840  0.10300  0.37540  Biso   1.000  H
  H84      1.0000 0.14160  0.39700  0.37540  Biso   1.000  H
  H85      1.0000 0.89700  0.85840  0.62460  Biso   1.000  H
  H86      1.0000 0.60300  0.64160  0.62460  Biso   1.000  H
  H87      1.0000 0.64160  0.89700  0.62460  Biso   1.000  H
  H88      1.0000 0.85840  0.60300  0.62460  Biso   1.000  H
  H89      1.0000 0.05080  0.17460  0.47190  Biso   1.000  H
  H90      1.0000 0.44920  0.32540  0.47190  Biso   1.000  H
  H91      1.0000 0.32540  0.05080  0.47190  Biso   1.000  H
  H92      1.0000 0.17460  0.44920  0.47190  Biso   1.000  H
  H93      1.0000 0.94920  0.82540  0.52810  Biso   1.000  H
  H94      1.0000 0.55080  0.67460  0.52810  Biso   1.000  H
  H95      1.0000 0.67460  0.94920  0.52810  Biso   1.000  H
  H96      1.0000 0.82540  0.55080  0.52810  Biso   1.000  H
  H97      1.0000 0.01630  0.09250  0.40990  Biso   1.000  H
  H98      1.0000 0.48370  0.40750  0.40990  Biso   1.000  H
  H99      1.0000 0.40750  0.01630  0.40990  Biso   1.000  H
  H100     1.0000 0.09250  0.48370  0.40990  Biso   1.000  H
  H101     1.0000 0.98370  0.90750  0.59010  Biso   1.000  H
  H102     1.0000 0.51630  0.59250  0.59010  Biso   1.000  H
  H103     1.0000 0.59250  0.98370  0.59010  Biso   1.000  H
  H104     1.0000 0.90750  0.51630  0.59010  Biso   1.000  H
  O9       1.0000 0.21480  0.11600  0.91720  Biso   1.000  O
  O10      1.0000 0.28520  0.38400  0.91720  Biso   1.000  O
  O11      1.0000 0.38400  0.21480  0.91720  Biso   1.000  O
  O12      1.0000 0.11600  0.28520  0.91720  Biso   1.000  O
  O13      1.0000 0.78520  0.88400  0.08280  Biso   1.000  O
  O14      1.0000 0.71480  0.61600  0.08280  Biso   1.000  O
  O15      1.0000 0.61600  0.78520  0.08280  Biso   1.000  O
  O16      1.0000 0.88400  0.71480  0.08280  Biso   1.000  O
  H105     1.0000 0.25390  0.15580  0.89520  Biso   1.000  H
  H106     1.0000 0.24610  0.34420  0.89520  Biso   1.000  H
  H107     1.0000 0.34420  0.25390  0.89520  Biso   1.000  H
  H108     1.0000 0.15580  0.24610  0.89520  Biso   1.000  H
  H109     1.0000 0.74610  0.84420  0.10480  Biso   1.000  H
  H110     1.0000 0.75390  0.65580  0.10480  Biso   1.000  H
  H111     1.0000 0.65580  0.74610  0.10480  Biso   1.000  H
  H112     1.0000 0.84420  0.75390  0.10480  Biso   1.000  H
  H113     1.0000 0.17680  0.12050  0.96880  Biso   1.000  H
  H114     1.0000 0.32320  0.37950  0.96880  Biso   1.000  H
  H115     1.0000 0.37950  0.17680  0.96880  Biso   1.000  H
  H116     1.0000 0.12050  0.32320  0.96880  Biso   1.000  H
  H117     1.0000 0.82320  0.87950  0.03120  Biso   1.000  H
  H118     1.0000 0.67680  0.62050  0.03120  Biso   1.000  H
  H119     1.0000 0.62050  0.82320  0.03120  Biso   1.000  H
  H120     1.0000 0.87950  0.67680  0.03120  Biso   1.000  H
  O17      1.0000 0.25000  0.25000  0.95200  Biso   1.000  O
  O18      1.0000 0.75000  0.75000  0.04800  Biso   1.000  O
  H121     1.0000 0.19150  0.24540  0.94550  Biso   1.000  H
  H122     1.0000 0.30850  0.25460  0.94550  Biso   1.000  H
  H123     1.0000 0.25460  0.19150  0.94550  Biso   1.000  H
  H124     1.0000 0.24540  0.30850  0.94550  Biso   1.000  H
  H125     1.0000 0.80850  0.75460  0.05450  Biso   1.000  H
  H126     1.0000 0.69150  0.74540  0.05450  Biso   1.000  H
  H127     1.0000 0.74540  0.80850  0.05450  Biso   1.000  H
  H128     1.0000 0.75460  0.69150  0.05450  Biso   1.000  H
  H129     1.0000 0.27270  0.25470  0.89020  Biso   1.000  H
  H130     1.0000 0.22730  0.24530  0.89020  Biso   1.000  H
  H131     1.0000 0.24530  0.27270  0.89020  Biso   1.000  H
  H132     1.0000 0.25470  0.22730  0.89020  Biso   1.000  H
  H133     1.0000 0.72730  0.74530  0.10980  Biso   1.000  H
  H134     1.0000 0.77270  0.75470  0.10980  Biso   1.000  H
  H135     1.0000 0.75470  0.72730  0.10980  Biso   1.000  H
  H136     1.0000 0.74530  0.77270  0.10980  Biso   1.000  H
  O19      1.0000 0.24470  0.17270  0.69000  Biso   1.000  O
  O20      1.0000 0.25530  0.32730  0.69000  Biso   1.000  O
  O21      1.0000 0.32730  0.24470  0.69000  Biso   1.000  O
  O22      1.0000 0.17270  0.25530  0.69000  Biso   1.000  O
  O23      1.0000 0.75530  0.82730  0.31000  Biso   1.000  O
  O24      1.0000 0.74470  0.67270  0.31000  Biso   1.000  O
  O25      1.0000 0.67270  0.75530  0.31000  Biso   1.000  O
  O26      1.0000 0.82730  0.74470  0.31000  Biso   1.000  O
  H137     1.0000 0.25000  0.23090  0.69920  Biso   1.000  H
  H138     1.0000 0.25000  0.26910  0.69920  Biso   1.000  H
  H139     1.0000 0.26910  0.25000  0.69920  Biso   1.000  H
  H140     1.0000 0.23090  0.25000  0.69920  Biso   1.000  H
  H141     1.0000 0.75000  0.76910  0.30080  Biso   1.000  H
  H142     1.0000 0.75000  0.73090  0.30080  Biso   1.000  H
  H143     1.0000 0.73090  0.75000  0.30080  Biso   1.000  H
  H144     1.0000 0.76910  0.75000  0.30080  Biso   1.000  H
  H145     1.0000 0.24350  0.14870  0.75160  Biso   1.000  H
  H146     1.0000 0.25650  0.35130  0.75160  Biso   1.000  H
  H147     1.0000 0.35130  0.24350  0.75160  Biso   1.000  H
  H148     1.0000 0.14870  0.25650  0.75160  Biso   1.000  H
  H149     1.0000 0.75650  0.85130  0.24840  Biso   1.000  H
  H150     1.0000 0.74350  0.64870  0.24840  Biso   1.000  H
  H151     1.0000 0.64870  0.75650  0.24840  Biso   1.000  H
  H152     1.0000 0.85130  0.74350  0.24840  Biso   1.000  H
