data_image0
_cell_length_a       4.195
_cell_length_b       15.581
_cell_length_c       13.885
_cell_angle_alpha    90
_cell_angle_beta     114.9
_cell_angle_gamma    90

_symmetry_space_group_name_H-M    "P 1"
_symmetry_int_tables_number       1

loop_
  _symmetry_equiv_pos_as_xyz
  'x, y, z'

loop_
  _atom_site_label
  _atom_site_occupancy
  _atom_site_fract_x
  _atom_site_fract_y
  _atom_site_fract_z
  _atom_site_thermal_displace_type
  _atom_site_B_iso_or_equiv
  _atom_site_type_symbol
  Cu1      1.0000 0.77900  0.06654  0.01789  Biso   1.000  Cu
  Cu2      1.0000 0.22100  0.56654  0.48211  Biso   1.000  Cu
  Cu3      1.0000 0.22100  0.93346  0.98211  Biso   1.000  Cu
  Cu4      1.0000 0.77900  0.43346  0.51789  Biso   1.000  Cu
  C1       1.0000 0.63100  0.27150  0.01980  Biso   1.000  C
  C2       1.0000 0.36900  0.77150  0.48020  Biso   1.000  C
  C3       1.0000 0.36900  0.72850  0.98020  Biso   1.000  C
  C4       1.0000 0.63100  0.22850  0.51980  Biso   1.000  C
  C5       1.0000 0.51800  0.39810  0.08690  Biso   1.000  C
  C6       1.0000 0.48200  0.89810  0.41310  Biso   1.000  C
  C7       1.0000 0.48200  0.60190  0.91310  Biso   1.000  C
  C8       1.0000 0.51800  0.10190  0.58690  Biso   1.000  C
  C9       1.0000 0.81000  0.36660  0.18480  Biso   1.000  C
  C10      1.0000 0.19000  0.86660  0.31520  Biso   1.000  C
  C11      1.0000 0.19000  0.63340  0.81520  Biso   1.000  C
  C12      1.0000 0.81000  0.13340  0.68480  Biso   1.000  C
  C13      1.0000 0.16500  0.36770  0.89440  Biso   1.000  C
  C14      1.0000 0.83500  0.86770  0.60560  Biso   1.000  C
  C15      1.0000 0.83500  0.63230  0.10560  Biso   1.000  C
  C16      1.0000 0.16500  0.13230  0.39440  Biso   1.000  C
  I1       1.0000 0.44620  0.04362  0.14396  Biso   1.000  I
  I2       1.0000 0.55380  0.54362  0.35604  Biso   1.000  I
  I3       1.0000 0.55380  0.95638  0.85604  Biso   1.000  I
  I4       1.0000 0.44620  0.45638  0.64396  Biso   1.000  I
  N1       1.0000 0.45100  0.34550  0.99850  Biso   1.000  N
  N2       1.0000 0.54900  0.84550  0.50150  Biso   1.000  N
  N3       1.0000 0.54900  0.65450  0.00150  Biso   1.000  N
  N4       1.0000 0.45100  0.15450  0.49850  Biso   1.000  N
  O1       1.0000 0.35700  0.46340  0.08200  Biso   1.000  O
  O2       1.0000 0.64300  0.96340  0.41800  Biso   1.000  O
  O3       1.0000 0.64300  0.53660  0.91800  Biso   1.000  O
  O4       1.0000 0.35700  0.03660  0.58200  Biso   1.000  O
  S1       1.0000 0.94260  0.26430  0.15070  Biso   1.000  S
  S2       1.0000 0.05740  0.76430  0.34930  Biso   1.000  S
  S3       1.0000 0.05740  0.73570  0.84930  Biso   1.000  S
  S4       1.0000 0.94260  0.23570  0.65070  Biso   1.000  S
  S5       1.0000 0.58000  0.19490  0.93140  Biso   1.000  S
  S6       1.0000 0.42000  0.69490  0.56860  Biso   1.000  S
  S7       1.0000 0.42000  0.80510  0.06860  Biso   1.000  S
  S8       1.0000 0.58000  0.30510  0.43140  Biso   1.000  S
