data_image0
_cell_length_a       7.6593
_cell_length_b       7.6593
_cell_length_c       16.4028
_cell_angle_alpha    90
_cell_angle_beta     90
_cell_angle_gamma    90

_symmetry_space_group_name_H-M    "P 1"
_symmetry_int_tables_number       1

loop_
  _symmetry_equiv_pos_as_xyz
  'x, y, z'

loop_
  _atom_site_label
  _atom_site_occupancy
  _atom_site_fract_x
  _atom_site_fract_y
  _atom_site_fract_z
  _atom_site_thermal_displace_type
  _atom_site_B_iso_or_equiv
  _atom_site_type_symbol
  Cu1      1.0000 0.50000  0.00000  0.25000  Biso   1.000  Cu
  Cu2      1.0000 0.00000  0.50000  0.75000  Biso   1.000  Cu
  N1       1.0000 0.32320  0.08640  0.16485  Biso   1.000  N
  N2       1.0000 0.67680  0.91360  0.16485  Biso   1.000  N
  N3       1.0000 0.08640  0.67680  0.83515  Biso   1.000  N
  N4       1.0000 0.91360  0.32320  0.83515  Biso   1.000  N
  N5       1.0000 0.82320  0.58640  0.66485  Biso   1.000  N
  N6       1.0000 0.17680  0.41360  0.66485  Biso   1.000  N
  N7       1.0000 0.58640  0.17680  0.33515  Biso   1.000  N
  N8       1.0000 0.41360  0.82320  0.33515  Biso   1.000  N
  B1       1.0000 0.00000  0.00000  0.00000  Biso   1.000  B
  B2       1.0000 0.50000  0.50000  0.50000  Biso   1.000  B
  N9       1.0000 0.14881  0.06656  0.05583  Biso   1.000  N
  N10      1.0000 0.85119  0.93344  0.05583  Biso   1.000  N
  N11      1.0000 0.06656  0.85119  0.94417  Biso   1.000  N
  N12      1.0000 0.93344  0.14881  0.94417  Biso   1.000  N
  N13      1.0000 0.64881  0.56656  0.55583  Biso   1.000  N
  N14      1.0000 0.35119  0.43344  0.55583  Biso   1.000  N
  N15      1.0000 0.56656  0.35119  0.44417  Biso   1.000  N
  N16      1.0000 0.43344  0.64881  0.44417  Biso   1.000  N
  C1       1.0000 0.21320  0.98520  0.12378  Biso   1.000  C
  C2       1.0000 0.78680  0.01480  0.12378  Biso   1.000  C
  C3       1.0000 0.98520  0.78680  0.87622  Biso   1.000  C
  C4       1.0000 0.01480  0.21320  0.87622  Biso   1.000  C
  C5       1.0000 0.71320  0.48520  0.62378  Biso   1.000  C
  C6       1.0000 0.28680  0.51480  0.62378  Biso   1.000  C
  C7       1.0000 0.48520  0.28680  0.37622  Biso   1.000  C
  C8       1.0000 0.51480  0.71320  0.37622  Biso   1.000  C
  C9       1.0000 0.33040  0.24030  0.12176  Biso   1.000  C
  C10      1.0000 0.66960  0.75970  0.12176  Biso   1.000  C
  C11      1.0000 0.24030  0.66960  0.87824  Biso   1.000  C
  C12      1.0000 0.75970  0.33040  0.87824  Biso   1.000  C
  C13      1.0000 0.83040  0.74030  0.62176  Biso   1.000  C
  C14      1.0000 0.16960  0.25970  0.62176  Biso   1.000  C
  C15      1.0000 0.74030  0.16960  0.37824  Biso   1.000  C
  C16      1.0000 0.25970  0.83040  0.37824  Biso   1.000  C
  H1       1.0000 0.39750  0.33680  0.13600  Biso   1.000  H
  H2       1.0000 0.60250  0.66320  0.13600  Biso   1.000  H
  H3       1.0000 0.33680  0.60250  0.86400  Biso   1.000  H
  H4       1.0000 0.66320  0.39750  0.86400  Biso   1.000  H
  H5       1.0000 0.89750  0.83680  0.63600  Biso   1.000  H
  H6       1.0000 0.10250  0.16320  0.63600  Biso   1.000  H
  H7       1.0000 0.83680  0.10250  0.36400  Biso   1.000  H
  H8       1.0000 0.16320  0.89750  0.36400  Biso   1.000  H
  C17      1.0000 0.22460  0.23050  0.05515  Biso   1.000  C
  C18      1.0000 0.77540  0.76950  0.05515  Biso   1.000  C
  C19      1.0000 0.23050  0.77540  0.94485  Biso   1.000  C
  C20      1.0000 0.76950  0.22460  0.94485  Biso   1.000  C
  C21      1.0000 0.72460  0.73050  0.55515  Biso   1.000  C
  C22      1.0000 0.27540  0.26950  0.55515  Biso   1.000  C
  C23      1.0000 0.73050  0.27540  0.44485  Biso   1.000  C
  C24      1.0000 0.26950  0.72460  0.44485  Biso   1.000  C
  H9       1.0000 0.20680  0.31760  0.01650  Biso   1.000  H
  H10      1.0000 0.79320  0.68240  0.01650  Biso   1.000  H
  H11      1.0000 0.31760  0.79320  0.98350  Biso   1.000  H
  H12      1.0000 0.68240  0.20680  0.98350  Biso   1.000  H
  H13      1.0000 0.70680  0.81760  0.51650  Biso   1.000  H
  H14      1.0000 0.29320  0.18240  0.51650  Biso   1.000  H
  H15      1.0000 0.81760  0.29320  0.48350  Biso   1.000  H
  H16      1.0000 0.18240  0.70680  0.48350  Biso   1.000  H
  C25      1.0000 0.16630  0.80510  0.15177  Biso   1.000  C
  C26      1.0000 0.83370  0.19490  0.15177  Biso   1.000  C
  C27      1.0000 0.80510  0.83370  0.84823  Biso   1.000  C
  C28      1.0000 0.19490  0.16630  0.84823  Biso   1.000  C
  C29      1.0000 0.66630  0.30510  0.65177  Biso   1.000  C
  C30      1.0000 0.33370  0.69490  0.65177  Biso   1.000  C
  C31      1.0000 0.30510  0.33370  0.34823  Biso   1.000  C
  C32      1.0000 0.69490  0.66630  0.34823  Biso   1.000  C
  H17      1.0000 0.22850  0.77870  0.20110  Biso   1.000  H
  H18      1.0000 0.77150  0.22130  0.20110  Biso   1.000  H
  H19      1.0000 0.77870  0.77150  0.79890  Biso   1.000  H
  H20      1.0000 0.22130  0.22850  0.79890  Biso   1.000  H
  H21      1.0000 0.72850  0.27870  0.70110  Biso   1.000  H
  H22      1.0000 0.27150  0.72130  0.70110  Biso   1.000  H
  H23      1.0000 0.27870  0.27150  0.29890  Biso   1.000  H
  H24      1.0000 0.72130  0.72850  0.29890  Biso   1.000  H
  H25      1.0000 0.19750  0.72210  0.11040  Biso   1.000  H
  H26      1.0000 0.80250  0.27790  0.11040  Biso   1.000  H
  H27      1.0000 0.72210  0.80250  0.88960  Biso   1.000  H
  H28      1.0000 0.27790  0.19750  0.88960  Biso   1.000  H
  H29      1.0000 0.69750  0.22210  0.61040  Biso   1.000  H
  H30      1.0000 0.30250  0.77790  0.61040  Biso   1.000  H
  H31      1.0000 0.22210  0.30250  0.38960  Biso   1.000  H
  H32      1.0000 0.77790  0.69750  0.38960  Biso   1.000  H
  H33      1.0000 0.04300  0.79900  0.16180  Biso   1.000  H
  H34      1.0000 0.95700  0.20100  0.16180  Biso   1.000  H
  H35      1.0000 0.79900  0.95700  0.83820  Biso   1.000  H
  H36      1.0000 0.20100  0.04300  0.83820  Biso   1.000  H
  H37      1.0000 0.54300  0.29900  0.66180  Biso   1.000  H
  H38      1.0000 0.45700  0.70100  0.66180  Biso   1.000  H
  H39      1.0000 0.29900  0.45700  0.33820  Biso   1.000  H
  H40      1.0000 0.70100  0.54300  0.33820  Biso   1.000  H
