data_image0
_cell_length_a       10.2403
_cell_length_b       11.4552
_cell_length_c       14.8043
_cell_angle_alpha    90
_cell_angle_beta     90
_cell_angle_gamma    90

_symmetry_space_group_name_H-M    "P 1"
_symmetry_int_tables_number       1

loop_
  _symmetry_equiv_pos_as_xyz
  'x, y, z'

loop_
  _atom_site_label
  _atom_site_occupancy
  _atom_site_fract_x
  _atom_site_fract_y
  _atom_site_fract_z
  _atom_site_thermal_displace_type
  _atom_site_B_iso_or_equiv
  _atom_site_type_symbol
  Se1      1.0000 0.78324  0.14817  0.58473  Biso   1.000  Se
  Se2      1.0000 0.28324  0.35183  0.41527  Biso   1.000  Se
  Se3      1.0000 0.21676  0.64817  0.91527  Biso   1.000  Se
  Se4      1.0000 0.71676  0.85183  0.08473  Biso   1.000  Se
  Se5      1.0000 0.21676  0.85183  0.41527  Biso   1.000  Se
  Se6      1.0000 0.71676  0.64817  0.58473  Biso   1.000  Se
  Se7      1.0000 0.78324  0.35183  0.08473  Biso   1.000  Se
  Se8      1.0000 0.28324  0.14817  0.91527  Biso   1.000  Se
  Cu1      1.0000 0.00000  0.00000  0.50000  Biso   1.000  Cu
  Cu2      1.0000 0.50000  0.50000  0.50000  Biso   1.000  Cu
  Cu3      1.0000 0.00000  0.50000  0.00000  Biso   1.000  Cu
  Cu4      1.0000 0.50000  0.00000  0.00000  Biso   1.000  Cu
  Cl1      1.0000 0.12987  0.13754  0.56670  Biso   1.000  Cl
  Cl2      1.0000 0.62987  0.36246  0.43330  Biso   1.000  Cl
  Cl3      1.0000 0.87013  0.63754  0.93330  Biso   1.000  Cl
  Cl4      1.0000 0.37013  0.86246  0.06670  Biso   1.000  Cl
  Cl5      1.0000 0.87013  0.86246  0.43330  Biso   1.000  Cl
  Cl6      1.0000 0.37013  0.63754  0.56670  Biso   1.000  Cl
  Cl7      1.0000 0.12987  0.36246  0.06670  Biso   1.000  Cl
  Cl8      1.0000 0.62987  0.13754  0.93330  Biso   1.000  Cl
  N1       1.0000 0.93652  0.95448  0.62104  Biso   1.000  N
  N2       1.0000 0.43652  0.54552  0.37896  Biso   1.000  N
  N3       1.0000 0.06348  0.45448  0.87896  Biso   1.000  N
  N4       1.0000 0.56348  0.04552  0.12104  Biso   1.000  N
  N5       1.0000 0.06348  0.04552  0.37896  Biso   1.000  N
  N6       1.0000 0.56348  0.45448  0.62104  Biso   1.000  N
  N7       1.0000 0.93652  0.54552  0.12104  Biso   1.000  N
  N8       1.0000 0.43652  0.95448  0.87896  Biso   1.000  N
  C1       1.0000 0.83821  0.01715  0.65602  Biso   1.000  C
  C2       1.0000 0.33821  0.48285  0.34398  Biso   1.000  C
  C3       1.0000 0.16179  0.51715  0.84398  Biso   1.000  C
  C4       1.0000 0.66179  0.98285  0.15602  Biso   1.000  C
  C5       1.0000 0.16179  0.98285  0.34398  Biso   1.000  C
  C6       1.0000 0.66179  0.51715  0.65602  Biso   1.000  C
  C7       1.0000 0.83821  0.48285  0.15602  Biso   1.000  C
  C8       1.0000 0.33821  0.01715  0.84398  Biso   1.000  C
  C9       1.0000 0.98822  0.86584  0.66853  Biso   1.000  C
  C10      1.0000 0.48822  0.63416  0.33147  Biso   1.000  C
  C11      1.0000 0.01178  0.36584  0.83147  Biso   1.000  C
  C12      1.0000 0.51178  0.13416  0.16853  Biso   1.000  C
  C13      1.0000 0.01178  0.13416  0.33147  Biso   1.000  C
  C14      1.0000 0.51178  0.36584  0.66853  Biso   1.000  C
  C15      1.0000 0.98822  0.63416  0.16853  Biso   1.000  C
  C16      1.0000 0.48822  0.86584  0.83147  Biso   1.000  C
  H1       1.0000 0.05960  0.82370  0.64370  Biso   1.000  H
  H2       1.0000 0.55960  0.67630  0.35630  Biso   1.000  H
  H3       1.0000 0.94040  0.32370  0.85630  Biso   1.000  H
  H4       1.0000 0.44040  0.17630  0.14370  Biso   1.000  H
  H5       1.0000 0.94040  0.17630  0.35630  Biso   1.000  H
  H6       1.0000 0.44040  0.32370  0.64370  Biso   1.000  H
  H7       1.0000 0.05960  0.67630  0.14370  Biso   1.000  H
  H8       1.0000 0.55960  0.82370  0.85630  Biso   1.000  H
  C17      1.0000 0.94053  0.83413  0.75247  Biso   1.000  C
  C18      1.0000 0.44053  0.66587  0.24753  Biso   1.000  C
  C19      1.0000 0.05947  0.33413  0.74753  Biso   1.000  C
  C20      1.0000 0.55947  0.16587  0.25247  Biso   1.000  C
  C21      1.0000 0.05947  0.16587  0.24753  Biso   1.000  C
  C22      1.0000 0.55947  0.33413  0.75247  Biso   1.000  C
  C23      1.0000 0.94053  0.66587  0.25247  Biso   1.000  C
  C24      1.0000 0.44053  0.83413  0.74753  Biso   1.000  C
  H9       1.0000 0.97810  0.77100  0.78500  Biso   1.000  H
  H10      1.0000 0.47810  0.72900  0.21500  Biso   1.000  H
  H11      1.0000 0.02190  0.27100  0.71500  Biso   1.000  H
  H12      1.0000 0.52190  0.22900  0.28500  Biso   1.000  H
  H13      1.0000 0.02190  0.22900  0.21500  Biso   1.000  H
  H14      1.0000 0.52190  0.27100  0.78500  Biso   1.000  H
  H15      1.0000 0.97810  0.72900  0.28500  Biso   1.000  H
  H16      1.0000 0.47810  0.77100  0.71500  Biso   1.000  H
  C25      1.0000 0.83720  0.89640  0.78765  Biso   1.000  C
  C26      1.0000 0.33720  0.60360  0.21235  Biso   1.000  C
  C27      1.0000 0.16280  0.39640  0.71235  Biso   1.000  C
  C28      1.0000 0.66280  0.10360  0.28765  Biso   1.000  C
  C29      1.0000 0.16280  0.10360  0.21235  Biso   1.000  C
  C30      1.0000 0.66280  0.39640  0.78765  Biso   1.000  C
  C31      1.0000 0.83720  0.60360  0.28765  Biso   1.000  C
  C32      1.0000 0.33720  0.89640  0.71235  Biso   1.000  C
  H17      1.0000 0.80120  0.87510  0.84440  Biso   1.000  H
  H18      1.0000 0.30120  0.62490  0.15560  Biso   1.000  H
  H19      1.0000 0.19880  0.37510  0.65560  Biso   1.000  H
  H20      1.0000 0.69880  0.12490  0.34440  Biso   1.000  H
  H21      1.0000 0.19880  0.12490  0.15560  Biso   1.000  H
  H22      1.0000 0.69880  0.37510  0.84440  Biso   1.000  H
  H23      1.0000 0.80120  0.62490  0.34440  Biso   1.000  H
  H24      1.0000 0.30120  0.87510  0.65560  Biso   1.000  H
  C33      1.0000 0.78600  0.98996  0.74038  Biso   1.000  C
  C34      1.0000 0.28600  0.51004  0.25962  Biso   1.000  C
  C35      1.0000 0.21400  0.48996  0.75962  Biso   1.000  C
  C36      1.0000 0.71400  0.01004  0.24038  Biso   1.000  C
  C37      1.0000 0.21400  0.01004  0.25962  Biso   1.000  C
  C38      1.0000 0.71400  0.48996  0.74038  Biso   1.000  C
  C39      1.0000 0.78600  0.51004  0.24038  Biso   1.000  C
  C40      1.0000 0.28600  0.98996  0.75962  Biso   1.000  C
  H25      1.0000 0.71650  0.03480  0.76490  Biso   1.000  H
  H26      1.0000 0.21650  0.46520  0.23510  Biso   1.000  H
  H27      1.0000 0.28350  0.53480  0.73510  Biso   1.000  H
  H28      1.0000 0.78350  0.96520  0.26490  Biso   1.000  H
  H29      1.0000 0.28350  0.96520  0.23510  Biso   1.000  H
  H30      1.0000 0.78350  0.53480  0.76490  Biso   1.000  H
  H31      1.0000 0.71650  0.46520  0.26490  Biso   1.000  H
  H32      1.0000 0.21650  0.03480  0.73510  Biso   1.000  H
  C41      1.0000 0.59764  0.10839  0.57272  Biso   1.000  C
  C42      1.0000 0.09764  0.39161  0.42728  Biso   1.000  C
  C43      1.0000 0.40236  0.60839  0.92728  Biso   1.000  C
  C44      1.0000 0.90236  0.89161  0.07272  Biso   1.000  C
  C45      1.0000 0.40236  0.89161  0.42728  Biso   1.000  C
  C46      1.0000 0.90236  0.60839  0.57272  Biso   1.000  C
  C47      1.0000 0.59764  0.39161  0.07272  Biso   1.000  C
  C48      1.0000 0.09764  0.10839  0.92728  Biso   1.000  C
  H33      1.0000 0.56080  0.09590  0.63380  Biso   1.000  H
  H34      1.0000 0.06080  0.40410  0.36620  Biso   1.000  H
  H35      1.0000 0.43920  0.59590  0.86620  Biso   1.000  H
  H36      1.0000 0.93920  0.90410  0.13380  Biso   1.000  H
  H37      1.0000 0.43920  0.90410  0.36620  Biso   1.000  H
  H38      1.0000 0.93920  0.59590  0.63380  Biso   1.000  H
  H39      1.0000 0.56080  0.40410  0.13380  Biso   1.000  H
  H40      1.0000 0.06080  0.09590  0.86620  Biso   1.000  H
  H41      1.0000 0.55140  0.17560  0.54540  Biso   1.000  H
  H42      1.0000 0.05140  0.32440  0.45460  Biso   1.000  H
  H43      1.0000 0.44860  0.67560  0.95460  Biso   1.000  H
  H44      1.0000 0.94860  0.82440  0.04540  Biso   1.000  H
  H45      1.0000 0.44860  0.82440  0.45460  Biso   1.000  H
  H46      1.0000 0.94860  0.67560  0.54540  Biso   1.000  H
  H47      1.0000 0.55140  0.32440  0.04540  Biso   1.000  H
  H48      1.0000 0.05140  0.17560  0.95460  Biso   1.000  H
  C49      1.0000 0.57100  0.00086  0.51600  Biso   1.000  C
  C50      1.0000 0.07100  0.49914  0.48400  Biso   1.000  C
  C51      1.0000 0.42900  0.50086  0.98400  Biso   1.000  C
  C52      1.0000 0.92900  0.99914  0.01600  Biso   1.000  C
  C53      1.0000 0.42900  0.99914  0.48400  Biso   1.000  C
  C54      1.0000 0.92900  0.50086  0.51600  Biso   1.000  C
  C55      1.0000 0.57100  0.49914  0.01600  Biso   1.000  C
  C56      1.0000 0.07100  0.00086  0.98400  Biso   1.000  C
  H49      1.0000 0.58900  0.93000  0.55210  Biso   1.000  H
  H50      1.0000 0.08900  0.57000  0.44790  Biso   1.000  H
  H51      1.0000 0.41100  0.43000  0.94790  Biso   1.000  H
  H52      1.0000 0.91100  0.07000  0.05210  Biso   1.000  H
  H53      1.0000 0.41100  0.07000  0.44790  Biso   1.000  H
  H54      1.0000 0.91100  0.43000  0.55210  Biso   1.000  H
  H55      1.0000 0.58900  0.57000  0.05210  Biso   1.000  H
  H56      1.0000 0.08900  0.93000  0.94790  Biso   1.000  H
  H57      1.0000 0.62990  0.00040  0.46300  Biso   1.000  H
  H58      1.0000 0.12990  0.49960  0.53700  Biso   1.000  H
  H59      1.0000 0.37010  0.50040  0.03700  Biso   1.000  H
  H60      1.0000 0.87010  0.99960  0.96300  Biso   1.000  H
  H61      1.0000 0.37010  0.99960  0.53700  Biso   1.000  H
  H62      1.0000 0.87010  0.50040  0.46300  Biso   1.000  H
  H63      1.0000 0.62990  0.49960  0.96300  Biso   1.000  H
  H64      1.0000 0.12990  0.00040  0.03700  Biso   1.000  H
