data_image0
_cell_length_a       6.6411
_cell_length_b       18.717
_cell_length_c       25.073
_cell_angle_alpha    90
_cell_angle_beta     90
_cell_angle_gamma    90

_symmetry_space_group_name_H-M    "P 1"
_symmetry_int_tables_number       1

loop_
  _symmetry_equiv_pos_as_xyz
  'x, y, z'

loop_
  _atom_site_label
  _atom_site_occupancy
  _atom_site_fract_x
  _atom_site_fract_y
  _atom_site_fract_z
  _atom_site_thermal_displace_type
  _atom_site_B_iso_or_equiv
  _atom_site_type_symbol
  Cu1      1.0000 0.37500  0.54449  0.37500  Biso   1.000  Cu
  Cu2      1.0000 0.37500  0.04449  0.87500  Biso   1.000  Cu
  Cu3      1.0000 0.37500  0.70550  0.87500  Biso   1.000  Cu
  Cu4      1.0000 0.87500  0.54449  0.87500  Biso   1.000  Cu
  Cu5      1.0000 0.87500  0.04449  0.37500  Biso   1.000  Cu
  Cu6      1.0000 0.87500  0.70550  0.37500  Biso   1.000  Cu
  Cu7      1.0000 0.62500  0.79449  0.62500  Biso   1.000  Cu
  Cu8      1.0000 0.62500  0.45550  0.62500  Biso   1.000  Cu
  Cu9      1.0000 0.62500  0.79449  0.12500  Biso   1.000  Cu
  Cu10     1.0000 0.62500  0.95551  0.62500  Biso   1.000  Cu
  Cu11     1.0000 0.12500  0.79449  0.62500  Biso   1.000  Cu
  Cu12     1.0000 0.62500  0.95551  0.12500  Biso   1.000  Cu
  Cu13     1.0000 0.12500  0.45550  0.12500  Biso   1.000  Cu
  Cu14     1.0000 0.12500  0.95551  0.62500  Biso   1.000  Cu
  Cu15     1.0000 0.87500  0.70550  0.87500  Biso   1.000  Cu
  Cu16     1.0000 0.87500  0.04449  0.87500  Biso   1.000  Cu
  Cl1      1.0000 0.62500  0.62500  0.34007  Biso   1.000  Cl
  Cl2      1.0000 0.62500  0.12500  0.84007  Biso   1.000  Cl
  Cl3      1.0000 0.62500  0.62500  0.90993  Biso   1.000  Cl
  Cl4      1.0000 0.12500  0.62500  0.84007  Biso   1.000  Cl
  Cl5      1.0000 0.12500  0.12500  0.34007  Biso   1.000  Cl
  Cl6      1.0000 0.87500  0.87500  0.65993  Biso   1.000  Cl
  Cl7      1.0000 0.87500  0.37500  0.59007  Biso   1.000  Cl
  Cl8      1.0000 0.37500  0.87500  0.59007  Biso   1.000  Cl
  Cl9      1.0000 0.87500  0.87500  0.15993  Biso   1.000  Cl
  Cl10     1.0000 0.87500  0.87500  0.59007  Biso   1.000  Cl
  Cl11     1.0000 0.37500  0.37500  0.65993  Biso   1.000  Cl
  Cl12     1.0000 0.37500  0.87500  0.15993  Biso   1.000  Cl
  Cl13     1.0000 0.87500  0.37500  0.15993  Biso   1.000  Cl
  Cl14     1.0000 0.62500  0.62500  0.84007  Biso   1.000  Cl
  Cl15     1.0000 0.62500  0.12500  0.90993  Biso   1.000  Cl
  Cl16     1.0000 0.12500  0.62500  0.90993  Biso   1.000  Cl
  N1       1.0000 0.45890  0.50753  0.44581  Biso   1.000  N
  N2       1.0000 0.45890  0.00753  0.94581  Biso   1.000  N
  N3       1.0000 0.45890  0.74247  0.80419  Biso   1.000  N
  N4       1.0000 0.95890  0.50753  0.94581  Biso   1.000  N
  N5       1.0000 0.79110  0.50753  0.80419  Biso   1.000  N
  N6       1.0000 0.95890  0.00753  0.44581  Biso   1.000  N
  N7       1.0000 0.79110  0.74247  0.44581  Biso   1.000  N
  N8       1.0000 0.70890  0.75753  0.55419  Biso   1.000  N
  N9       1.0000 0.70890  0.49247  0.69581  Biso   1.000  N
  N10      1.0000 0.54110  0.75753  0.69581  Biso   1.000  N
  N11      1.0000 0.70890  0.75753  0.05419  Biso   1.000  N
  N12      1.0000 0.70890  0.99247  0.69581  Biso   1.000  N
  N13      1.0000 0.04110  0.75753  0.69581  Biso   1.000  N
  N14      1.0000 0.54110  0.49247  0.55419  Biso   1.000  N
  N15      1.0000 0.54110  0.99247  0.05419  Biso   1.000  N
  N16      1.0000 0.04110  0.49247  0.05419  Biso   1.000  N
  N17      1.0000 0.04110  0.99247  0.55419  Biso   1.000  N
  N18      1.0000 0.79110  0.74247  0.94581  Biso   1.000  N
  N19      1.0000 0.79110  0.00753  0.80419  Biso   1.000  N
  N20      1.0000 0.95890  0.74247  0.80419  Biso   1.000  N
  C1       1.0000 0.33020  0.47208  0.47792  Biso   1.000  C
  C2       1.0000 0.33020  0.97208  0.97792  Biso   1.000  C
  C3       1.0000 0.33020  0.77792  0.77208  Biso   1.000  C
  C4       1.0000 0.83020  0.47208  0.97792  Biso   1.000  C
  C5       1.0000 0.91980  0.47208  0.77208  Biso   1.000  C
  C6       1.0000 0.83020  0.97208  0.47792  Biso   1.000  C
  C7       1.0000 0.91980  0.77792  0.47792  Biso   1.000  C
  C8       1.0000 0.58020  0.72208  0.52208  Biso   1.000  C
  C9       1.0000 0.58020  0.52792  0.72792  Biso   1.000  C
  C10      1.0000 0.66980  0.72208  0.72792  Biso   1.000  C
  C11      1.0000 0.58020  0.72208  0.02208  Biso   1.000  C
  C12      1.0000 0.58020  0.02792  0.72792  Biso   1.000  C
  C13      1.0000 0.16980  0.72208  0.72792  Biso   1.000  C
  C14      1.0000 0.66980  0.52792  0.52208  Biso   1.000  C
  C15      1.0000 0.66980  0.02792  0.02208  Biso   1.000  C
  C16      1.0000 0.16980  0.52792  0.02208  Biso   1.000  C
  C17      1.0000 0.16980  0.02792  0.52208  Biso   1.000  C
  C18      1.0000 0.91980  0.77792  0.97792  Biso   1.000  C
  C19      1.0000 0.91980  0.97208  0.77208  Biso   1.000  C
  C20      1.0000 0.83020  0.77792  0.77208  Biso   1.000  C
  C21      1.0000 0.62660  0.53443  0.46788  Biso   1.000  C
  C22      1.0000 0.62660  0.03443  0.96788  Biso   1.000  C
  C23      1.0000 0.62660  0.71557  0.78212  Biso   1.000  C
  C24      1.0000 0.12660  0.53443  0.96788  Biso   1.000  C
  C25      1.0000 0.62340  0.53443  0.78212  Biso   1.000  C
  C26      1.0000 0.12660  0.03443  0.46788  Biso   1.000  C
  C27      1.0000 0.62340  0.71557  0.46788  Biso   1.000  C
  C28      1.0000 0.87660  0.78443  0.53212  Biso   1.000  C
  C29      1.0000 0.87660  0.46557  0.71788  Biso   1.000  C
  C30      1.0000 0.37340  0.78443  0.71788  Biso   1.000  C
  C31      1.0000 0.87660  0.78443  0.03212  Biso   1.000  C
  C32      1.0000 0.87660  0.96557  0.71788  Biso   1.000  C
  C33      1.0000 0.87340  0.78443  0.71788  Biso   1.000  C
  C34      1.0000 0.37340  0.46557  0.53212  Biso   1.000  C
  C35      1.0000 0.37340  0.96557  0.03212  Biso   1.000  C
  C36      1.0000 0.87340  0.46557  0.03212  Biso   1.000  C
  C37      1.0000 0.87340  0.96557  0.53212  Biso   1.000  C
  C38      1.0000 0.62340  0.71557  0.96788  Biso   1.000  C
  C39      1.0000 0.62340  0.03443  0.78212  Biso   1.000  C
  C40      1.0000 0.12660  0.71557  0.78212  Biso   1.000  C
  H1       1.0000 0.71780  0.55840  0.44610  Biso   1.000  H
  H2       1.0000 0.71780  0.05840  0.94610  Biso   1.000  H
  H3       1.0000 0.71780  0.69160  0.80390  Biso   1.000  H
  H4       1.0000 0.21780  0.55840  0.94610  Biso   1.000  H
  H5       1.0000 0.53220  0.55840  0.80390  Biso   1.000  H
  H6       1.0000 0.21780  0.05840  0.44610  Biso   1.000  H
  H7       1.0000 0.53220  0.69160  0.44610  Biso   1.000  H
  H8       1.0000 0.96780  0.80840  0.55390  Biso   1.000  H
  H9       1.0000 0.96780  0.44160  0.69610  Biso   1.000  H
  H10      1.0000 0.28220  0.80840  0.69610  Biso   1.000  H
  H11      1.0000 0.96780  0.80840  0.05390  Biso   1.000  H
  H12      1.0000 0.96780  0.94160  0.69610  Biso   1.000  H
  H13      1.0000 0.78220  0.80840  0.69610  Biso   1.000  H
  H14      1.0000 0.28220  0.44160  0.55390  Biso   1.000  H
  H15      1.0000 0.28220  0.94160  0.05390  Biso   1.000  H
  H16      1.0000 0.78220  0.44160  0.05390  Biso   1.000  H
  H17      1.0000 0.78220  0.94160  0.55390  Biso   1.000  H
  H18      1.0000 0.53220  0.69160  0.94610  Biso   1.000  H
  H19      1.0000 0.53220  0.05840  0.80390  Biso   1.000  H
  H20      1.0000 0.21780  0.69160  0.80390  Biso   1.000  H
  C41      1.0000 0.14390  0.43995  0.45448  Biso   1.000  C
  C42      1.0000 0.14390  0.93995  0.95448  Biso   1.000  C
  C43      1.0000 0.14390  0.81005  0.79552  Biso   1.000  C
  C44      1.0000 0.64390  0.43995  0.95448  Biso   1.000  C
  C45      1.0000 0.10610  0.43995  0.79552  Biso   1.000  C
  C46      1.0000 0.64390  0.93995  0.45448  Biso   1.000  C
  C47      1.0000 0.10610  0.81005  0.45448  Biso   1.000  C
  C48      1.0000 0.39390  0.68995  0.54552  Biso   1.000  C
  C49      1.0000 0.39390  0.56005  0.70448  Biso   1.000  C
  C50      1.0000 0.85610  0.68995  0.70448  Biso   1.000  C
  C51      1.0000 0.39390  0.68995  0.04552  Biso   1.000  C
  C52      1.0000 0.39390  0.06005  0.70448  Biso   1.000  C
  C53      1.0000 0.35610  0.68995  0.70448  Biso   1.000  C
  C54      1.0000 0.85610  0.56005  0.54552  Biso   1.000  C
  C55      1.0000 0.85610  0.06005  0.04552  Biso   1.000  C
  C56      1.0000 0.35610  0.56005  0.04552  Biso   1.000  C
  C57      1.0000 0.35610  0.06005  0.54552  Biso   1.000  C
  C58      1.0000 0.10610  0.81005  0.95448  Biso   1.000  C
  C59      1.0000 0.10610  0.93995  0.79552  Biso   1.000  C
  C60      1.0000 0.64390  0.81005  0.79552  Biso   1.000  C
  H21      1.0000 0.06240  0.47700  0.43910  Biso   1.000  H
  H22      1.0000 0.06240  0.97700  0.93910  Biso   1.000  H
  H23      1.0000 0.06240  0.77300  0.81090  Biso   1.000  H
  H24      1.0000 0.56240  0.47700  0.93910  Biso   1.000  H
  H25      1.0000 0.18760  0.47700  0.81090  Biso   1.000  H
  H26      1.0000 0.56240  0.97700  0.43910  Biso   1.000  H
  H27      1.0000 0.18760  0.77300  0.43910  Biso   1.000  H
  H28      1.0000 0.31240  0.72700  0.56090  Biso   1.000  H
  H29      1.0000 0.31240  0.52300  0.68910  Biso   1.000  H
  H30      1.0000 0.93760  0.72700  0.68910  Biso   1.000  H
  H31      1.0000 0.31240  0.72700  0.06090  Biso   1.000  H
  H32      1.0000 0.31240  0.02300  0.68910  Biso   1.000  H
  H33      1.0000 0.43760  0.72700  0.68910  Biso   1.000  H
  H34      1.0000 0.93760  0.52300  0.56090  Biso   1.000  H
  H35      1.0000 0.93760  0.02300  0.06090  Biso   1.000  H
  H36      1.0000 0.43760  0.52300  0.06090  Biso   1.000  H
  H37      1.0000 0.43760  0.02300  0.56090  Biso   1.000  H
  H38      1.0000 0.18760  0.77300  0.93910  Biso   1.000  H
  H39      1.0000 0.18760  0.97700  0.81090  Biso   1.000  H
  H40      1.0000 0.56240  0.77300  0.81090  Biso   1.000  H
  H41      1.0000 0.06920  0.41600  0.48190  Biso   1.000  H
  H42      1.0000 0.06920  0.91600  0.98190  Biso   1.000  H
  H43      1.0000 0.06920  0.83400  0.76810  Biso   1.000  H
  H44      1.0000 0.56920  0.41600  0.98190  Biso   1.000  H
  H45      1.0000 0.18080  0.41600  0.76810  Biso   1.000  H
  H46      1.0000 0.56920  0.91600  0.48190  Biso   1.000  H
  H47      1.0000 0.18080  0.83400  0.48190  Biso   1.000  H
  H48      1.0000 0.31920  0.66600  0.51810  Biso   1.000  H
  H49      1.0000 0.31920  0.58400  0.73190  Biso   1.000  H
  H50      1.0000 0.93080  0.66600  0.73190  Biso   1.000  H
  H51      1.0000 0.31920  0.66600  0.01810  Biso   1.000  H
  H52      1.0000 0.31920  0.08400  0.73190  Biso   1.000  H
  H53      1.0000 0.43080  0.66600  0.73190  Biso   1.000  H
  H54      1.0000 0.93080  0.58400  0.51810  Biso   1.000  H
  H55      1.0000 0.93080  0.08400  0.01810  Biso   1.000  H
  H56      1.0000 0.43080  0.58400  0.01810  Biso   1.000  H
  H57      1.0000 0.43080  0.08400  0.51810  Biso   1.000  H
  H58      1.0000 0.18080  0.83400  0.98190  Biso   1.000  H
  H59      1.0000 0.18080  0.91600  0.76810  Biso   1.000  H
  H60      1.0000 0.56920  0.83400  0.76810  Biso   1.000  H
  H61      1.0000 0.18060  0.40620  0.42730  Biso   1.000  H
  H62      1.0000 0.18060  0.90620  0.92730  Biso   1.000  H
  H63      1.0000 0.18060  0.84380  0.82270  Biso   1.000  H
  H64      1.0000 0.68060  0.40620  0.92730  Biso   1.000  H
  H65      1.0000 0.06940  0.40620  0.82270  Biso   1.000  H
  H66      1.0000 0.68060  0.90620  0.42730  Biso   1.000  H
  H67      1.0000 0.06940  0.84380  0.42730  Biso   1.000  H
  H68      1.0000 0.43060  0.65620  0.57270  Biso   1.000  H
  H69      1.0000 0.43060  0.59380  0.67730  Biso   1.000  H
  H70      1.0000 0.81940  0.65620  0.67730  Biso   1.000  H
  H71      1.0000 0.43060  0.65620  0.07270  Biso   1.000  H
  H72      1.0000 0.43060  0.09380  0.67730  Biso   1.000  H
  H73      1.0000 0.31940  0.65620  0.67730  Biso   1.000  H
  H74      1.0000 0.81940  0.59380  0.57270  Biso   1.000  H
  H75      1.0000 0.81940  0.09380  0.07270  Biso   1.000  H
  H76      1.0000 0.31940  0.59380  0.07270  Biso   1.000  H
  H77      1.0000 0.31940  0.09380  0.57270  Biso   1.000  H
  H78      1.0000 0.06940  0.84380  0.92730  Biso   1.000  H
  H79      1.0000 0.06940  0.90620  0.82270  Biso   1.000  H
  H80      1.0000 0.68060  0.84380  0.82270  Biso   1.000  H
  Cl17     1.0000 0.12500  0.62500  0.40993  Biso   1.000  Cl
  Cl18     1.0000 0.12500  0.12500  0.90993  Biso   1.000  Cl
  Cl19     1.0000 0.62500  0.12500  0.40993  Biso   1.000  Cl
  Cl20     1.0000 0.37500  0.87500  0.09007  Biso   1.000  Cl
  Cl21     1.0000 0.37500  0.87500  0.65993  Biso   1.000  Cl
  Cl22     1.0000 0.87500  0.87500  0.09007  Biso   1.000  Cl
  Cl23     1.0000 0.37500  0.37500  0.09007  Biso   1.000  Cl
  Cl24     1.0000 0.12500  0.12500  0.84007  Biso   1.000  Cl
  N21      1.0000 0.29110  0.50753  0.30419  Biso   1.000  N
  N22      1.0000 0.29110  0.00753  0.80419  Biso   1.000  N
  N23      1.0000 0.29110  0.74247  0.94581  Biso   1.000  N
  N24      1.0000 0.79110  0.00753  0.30419  Biso   1.000  N
  N25      1.0000 0.95890  0.74247  0.30419  Biso   1.000  N
  N26      1.0000 0.54110  0.75753  0.19581  Biso   1.000  N
  N27      1.0000 0.54110  0.99247  0.55419  Biso   1.000  N
  N28      1.0000 0.20890  0.75753  0.55419  Biso   1.000  N
  N29      1.0000 0.70890  0.99247  0.19581  Biso   1.000  N
  N30      1.0000 0.20890  0.49247  0.19581  Biso   1.000  N
  N31      1.0000 0.20890  0.99247  0.69581  Biso   1.000  N
  N32      1.0000 0.95890  0.00753  0.94581  Biso   1.000  N
  Cu17     1.0000 0.87500  0.20551  0.87500  Biso   1.000  Cu
  Cu18     1.0000 0.37500  0.20551  0.37500  Biso   1.000  Cu
  Cu19     1.0000 0.12500  0.29449  0.62500  Biso   1.000  Cu
  Cu20     1.0000 0.12500  0.95551  0.12500  Biso   1.000  Cu
  Cu21     1.0000 0.12500  0.79449  0.12500  Biso   1.000  Cu
  Cu22     1.0000 0.62500  0.29449  0.12500  Biso   1.000  Cu
  Cu23     1.0000 0.37500  0.54449  0.87500  Biso   1.000  Cu
  Cu24     1.0000 0.37500  0.20551  0.87500  Biso   1.000  Cu
