data_image0
_cell_length_a       10.363
_cell_length_b       12.367
_cell_length_c       13.54
_cell_angle_alpha    108.27
_cell_angle_beta     106.76
_cell_angle_gamma    91.03

_symmetry_space_group_name_H-M    "P 1"
_symmetry_int_tables_number       1

loop_
  _symmetry_equiv_pos_as_xyz
  'x, y, z'

loop_
  _atom_site_label
  _atom_site_occupancy
  _atom_site_fract_x
  _atom_site_fract_y
  _atom_site_fract_z
  _atom_site_thermal_displace_type
  _atom_site_B_iso_or_equiv
  _atom_site_type_symbol
  I1       1.0000 0.79953  0.48184  0.39647  Biso   1.000  I
  I2       1.0000 0.20047  0.51816  0.60353  Biso   1.000  I
  N1       1.0000 0.65420  0.69900  0.66150  Biso   1.000  N
  N2       1.0000 0.34580  0.30100  0.33850  Biso   1.000  N
  C1       1.0000 0.57940  0.59990  0.58260  Biso   1.000  C
  C2       1.0000 0.42060  0.40010  0.41740  Biso   1.000  C
  C3       1.0000 0.58690  0.49340  0.59680  Biso   1.000  C
  C4       1.0000 0.41310  0.50660  0.40320  Biso   1.000  C
  H1       1.0000 0.64410  0.48760  0.66150  Biso   1.000  H
  H2       1.0000 0.35590  0.51240  0.33850  Biso   1.000  H
  C5       1.0000 0.48890  0.60370  0.48330  Biso   1.000  C
  C6       1.0000 0.51110  0.39630  0.51670  Biso   1.000  C
  H3       1.0000 0.48040  0.67400  0.47190  Biso   1.000  H
  H4       1.0000 0.51960  0.32600  0.52810  Biso   1.000  H
  C7       1.0000 0.51410  0.86070  0.82350  Biso   1.000  C
  C8       1.0000 0.48590  0.13930  0.17650  Biso   1.000  C
  C9       1.0000 0.01980  0.68020  0.88450  Biso   1.000  C
  C10      1.0000 0.98020  0.31980  0.11550  Biso   1.000  C
  C11      1.0000 0.43310  0.97870  0.66460  Biso   1.000  C
  C12      1.0000 0.56690  0.02130  0.33540  Biso   1.000  C
  C13      1.0000 0.60450  0.95520  0.89740  Biso   1.000  C
  C14      1.0000 0.39550  0.04480  0.10260  Biso   1.000  C
  H5       1.0000 0.62350  0.01580  0.87500  Biso   1.000  H
  H6       1.0000 0.37650  0.98420  0.12500  Biso   1.000  H
  C15      1.0000 0.95990  0.81120  0.73960  Biso   1.000  C
  C16      1.0000 0.04010  0.18880  0.26040  Biso   1.000  C
  C17      1.0000 0.95630  0.82030  0.63980  Biso   1.000  C
  C18      1.0000 0.04370  0.17970  0.36020  Biso   1.000  C
  H7       1.0000 0.95060  0.75460  0.58090  Biso   1.000  H
  H8       1.0000 0.04940  0.24540  0.41910  Biso   1.000  H
  C19      1.0000 0.74800  0.69300  0.76150  Biso   1.000  C
  C20      1.0000 0.25200  0.30700  0.23850  Biso   1.000  C
  H9       1.0000 0.71450  0.63040  0.77970  Biso   1.000  H
  H10      1.0000 0.28550  0.36960  0.22030  Biso   1.000  H
  H11      1.0000 0.75440  0.76370  0.82080  Biso   1.000  H
  H12      1.0000 0.24560  0.23630  0.17920  Biso   1.000  H
  C21      1.0000 0.30820  0.01780  0.65920  Biso   1.000  C
  C22      1.0000 0.69180  0.98220  0.34080  Biso   1.000  C
  H13      1.0000 0.23850  0.97160  0.66200  Biso   1.000  H
  H14      1.0000 0.76150  0.02840  0.33800  Biso   1.000  H
  C23      1.0000 0.15630  0.72190  0.92400  Biso   1.000  C
  C24      1.0000 0.84370  0.27810  0.07600  Biso   1.000  C
  H15      1.0000 0.19640  0.74580  0.87990  Biso   1.000  H
  H16      1.0000 0.80360  0.25420  0.12010  Biso   1.000  H
  C25      1.0000 0.48570  0.77270  0.85790  Biso   1.000  C
  C26      1.0000 0.51430  0.22730  0.14210  Biso   1.000  C
  H17      1.0000 0.42360  0.70990  0.80980  Biso   1.000  H
  H18      1.0000 0.57640  0.29010  0.19020  Biso   1.000  H
  C27      1.0000 0.97770  0.01690  0.81480  Biso   1.000  C
  C28      1.0000 0.02230  0.98310  0.18520  Biso   1.000  C
  H19      1.0000 0.98590  0.08310  0.87390  Biso   1.000  H
  H20      1.0000 0.01410  0.91690  0.12610  Biso   1.000  H
  C29      1.0000 0.38650  0.19360  0.64440  Biso   1.000  C
  C30      1.0000 0.61350  0.80640  0.35560  Biso   1.000  C
  H21      1.0000 0.37040  0.26470  0.63640  Biso   1.000  H
  H22      1.0000 0.62960  0.73530  0.36360  Biso   1.000  H
  C31      1.0000 0.66620  0.95960  0.00380  Biso   1.000  C
  C32      1.0000 0.33380  0.04040  0.99620  Biso   1.000  C
  H23      1.0000 0.72550  0.02370  0.05300  Biso   1.000  H
  H24      1.0000 0.27450  0.97630  0.94700  Biso   1.000  H
  C33      1.0000 0.54990  0.77750  0.96490  Biso   1.000  C
  C34      1.0000 0.45010  0.22250  0.03510  Biso   1.000  C
  H25      1.0000 0.53110  0.71720  0.98780  Biso   1.000  H
  H26      1.0000 0.46890  0.28280  0.01220  Biso   1.000  H
  C35      1.0000 0.97300  0.91100  0.82680  Biso   1.000  C
  C36      1.0000 0.02700  0.08900  0.17320  Biso   1.000  C
  H27      1.0000 0.97880  0.90590  0.89500  Biso   1.000  H
  H28      1.0000 0.02120  0.09410  0.10500  Biso   1.000  H
  C37      1.0000 0.53420  0.05070  0.66080  Biso   1.000  C
  C38      1.0000 0.46580  0.94930  0.33920  Biso   1.000  C
  H29      1.0000 0.61970  0.02700  0.66500  Biso   1.000  H
  H30      1.0000 0.38030  0.97300  0.33500  Biso   1.000  H
  C39      1.0000 0.96120  0.92680  0.62700  Biso   1.000  C
  C40      1.0000 0.03880  0.07320  0.37300  Biso   1.000  C
  H31      1.0000 0.95850  0.93300  0.55980  Biso   1.000  H
  H32      1.0000 0.04150  0.06700  0.44020  Biso   1.000  H
  C41      1.0000 0.17580  0.69520  0.09430  Biso   1.000  C
  C42      1.0000 0.82420  0.30480  0.90570  Biso   1.000  C
  H33      1.0000 0.22860  0.70010  0.16430  Biso   1.000  H
  H34      1.0000 0.77140  0.29990  0.83570  Biso   1.000  H
  C43      1.0000 0.28450  0.12460  0.64960  Biso   1.000  C
  C44      1.0000 0.71550  0.87540  0.35040  Biso   1.000  C
  H35      1.0000 0.19980  0.14960  0.64670  Biso   1.000  H
  H36      1.0000 0.80020  0.85040  0.35330  Biso   1.000  H
  C45      1.0000 0.64040  0.86980  0.03690  Biso   1.000  C
  C46      1.0000 0.35960  0.13020  0.96310  Biso   1.000  C
  H37      1.0000 0.68400  0.87170  0.10800  Biso   1.000  H
  H38      1.0000 0.31600  0.12830  0.89200  Biso   1.000  H
  C47      1.0000 0.51030  0.15720  0.65080  Biso   1.000  C
  C48      1.0000 0.48970  0.84280  0.34920  Biso   1.000  C
  H39      1.0000 0.57980  0.20410  0.64860  Biso   1.000  H
  H40      1.0000 0.42020  0.79590  0.35140  Biso   1.000  H
  C49      1.0000 0.23310  0.72840  0.02710  Biso   1.000  C
  C50      1.0000 0.76690  0.27160  0.97290  Biso   1.000  C
  H41      1.0000 0.32490  0.75560  0.05190  Biso   1.000  H
  H42      1.0000 0.67510  0.24440  0.94810  Biso   1.000  H
  C51      1.0000 0.96480  0.64830  0.95330  Biso   1.000  C
  C52      1.0000 0.03520  0.35170  0.04670  Biso   1.000  C
  H43      1.0000 0.87300  0.62100  0.92910  Biso   1.000  H
  H44      1.0000 0.12700  0.37900  0.07090  Biso   1.000  H
  C53      1.0000 0.04280  0.65560  0.05860  Biso   1.000  C
  C54      1.0000 0.95720  0.34440  0.94140  Biso   1.000  C
  H45      1.0000 0.00340  0.63320  0.10380  Biso   1.000  H
  H46      1.0000 0.99660  0.36680  0.89620  Biso   1.000  H
  C55      1.0000 0.97020  0.02340  0.71500  Biso   1.000  C
  C56      1.0000 0.02980  0.97660  0.28500  Biso   1.000  C
  H47      1.0000 0.97120  0.09490  0.70590  Biso   1.000  H
  H48      1.0000 0.02880  0.90510  0.29410  Biso   1.000  H
  I3       1.0000 0.88373  0.30473  0.61553  Biso   1.000  I
  I4       1.0000 0.11627  0.69527  0.38447  Biso   1.000  I
  Cu1      1.0000 0.93916  0.51566  0.61194  Biso   1.000  Cu
  Cu2      1.0000 0.06084  0.48434  0.38806  Biso   1.000  Cu
  Cu3      1.0000 0.70799  0.30442  0.43284  Biso   1.000  Cu
  Cu4      1.0000 0.29201  0.69558  0.56716  Biso   1.000  Cu
  P1       1.0000 0.45567  0.83870  0.67702  Biso   1.000  P
  P2       1.0000 0.54433  0.16130  0.32298  Biso   1.000  P
  P3       1.0000 0.91949  0.67015  0.74619  Biso   1.000  P
  P4       1.0000 0.08051  0.32985  0.25381  Biso   1.000  P
  C57      1.0000 0.62270  0.80990  0.65310  Biso   1.000  C
  C58      1.0000 0.37730  0.19010  0.34690  Biso   1.000  C
  H49      1.0000 0.61870  0.81120  0.58100  Biso   1.000  H
  H50      1.0000 0.38130  0.18880  0.41900  Biso   1.000  H
  H51      1.0000 0.69330  0.86910  0.70690  Biso   1.000  H
  H52      1.0000 0.30670  0.13090  0.29310  Biso   1.000  H
  N3       1.0000 0.45400  0.52000  0.11000  Biso   1.000  N
  N4       1.0000 0.54600  0.48000  0.89000  Biso   1.000  N
  C59      1.0000 0.56400  0.54580  0.13720  Biso   1.000  C
  C60      1.0000 0.43600  0.45420  0.86280  Biso   1.000  C
  C61      1.0000 0.70400  0.56780  0.12050  Biso   1.000  C
  C62      1.0000 0.29600  0.43220  0.87950  Biso   1.000  C
  H53      1.0000 0.76680  0.52250  0.15170  Biso   1.000  H
  H54      1.0000 0.23320  0.47750  0.84830  Biso   1.000  H
  H55      1.0000 0.73790  0.64760  0.15570  Biso   1.000  H
  H56      1.0000 0.26210  0.35240  0.84430  Biso   1.000  H
  H57      1.0000 0.69240  0.54680  0.04370  Biso   1.000  H
  H58      1.0000 0.30760  0.45320  0.95630  Biso   1.000  H
