data_image0
_cell_length_a       4.2937
_cell_length_b       8.1813
_cell_length_c       8.2151
_cell_angle_alpha    110.87
_cell_angle_beta     102.17
_cell_angle_gamma    94.54

_symmetry_space_group_name_H-M    "P 1"
_symmetry_int_tables_number       1

loop_
  _symmetry_equiv_pos_as_xyz
  'x, y, z'

loop_
  _atom_site_label
  _atom_site_occupancy
  _atom_site_fract_x
  _atom_site_fract_y
  _atom_site_fract_z
  _atom_site_thermal_displace_type
  _atom_site_B_iso_or_equiv
  _atom_site_type_symbol
  I1       1.0000 0.70356  0.68493  0.91380  Biso   1.000  I
  I2       1.0000 0.29644  0.31507  0.08620  Biso   1.000  I
  Cu1      1.0000 0.74455  0.35951  0.90670  Biso   1.000  Cu
  Cu2      1.0000 0.25545  0.64049  0.09330  Biso   1.000  Cu
  N1       1.0000 0.60230  0.14920  0.66150  Biso   1.000  N
  N2       1.0000 0.39770  0.85080  0.33850  Biso   1.000  N
  C1       1.0000 0.69060  0.14690  0.51210  Biso   1.000  C
  C2       1.0000 0.30940  0.85310  0.48790  Biso   1.000  C
  C3       1.0000 0.41620  0.00360  0.64660  Biso   1.000  C
  C4       1.0000 0.58380  0.99640  0.35340  Biso   1.000  C
  H1       1.0000 0.35390  0.00250  0.74800  Biso   1.000  H
  H2       1.0000 0.64610  0.99750  0.25200  Biso   1.000  H
  C5       1.0000 0.89770  0.30490  0.52120  Biso   1.000  C
  C6       1.0000 0.10230  0.69510  0.47880  Biso   1.000  C
  H3       1.0000 0.77410  0.39900  0.52930  Biso   1.000  H
  H4       1.0000 0.22590  0.60100  0.47070  Biso   1.000  H
  H5       1.0000 0.97550  0.27570  0.41470  Biso   1.000  H
  H6       1.0000 0.02450  0.72430  0.58530  Biso   1.000  H
  H7       1.0000 0.07770  0.34260  0.62550  Biso   1.000  H
  H8       1.0000 0.92230  0.65740  0.37450  Biso   1.000  H
