data_image0
_cell_length_a       8.4994
_cell_length_b       13.175
_cell_length_c       13.383
_cell_angle_alpha    67.52
_cell_angle_beta     82.7
_cell_angle_gamma    84.15

_symmetry_space_group_name_H-M    "P 1"
_symmetry_int_tables_number       1

loop_
  _symmetry_equiv_pos_as_xyz
  'x, y, z'

loop_
  _atom_site_label
  _atom_site_occupancy
  _atom_site_fract_x
  _atom_site_fract_y
  _atom_site_fract_z
  _atom_site_thermal_displace_type
  _atom_site_B_iso_or_equiv
  _atom_site_type_symbol
  N1       1.0000 0.60920  0.36860  0.99730  Biso   1.000  N
  N2       1.0000 0.39080  0.63140  0.00270  Biso   1.000  N
  C1       1.0000 0.32490  0.36130  0.85330  Biso   1.000  C
  C2       1.0000 0.67510  0.63870  0.14670  Biso   1.000  C
  Cu1      1.0000 0.50926  0.11229  0.01643  Biso   1.000  Cu
  Cu2      1.0000 0.49074  0.88771  0.98357  Biso   1.000  Cu
  P1       1.0000 0.50972  0.27423  0.87063  Biso   1.000  P
  P2       1.0000 0.49028  0.72577  0.12937  Biso   1.000  P
  I1       1.0000 0.75216  0.98806  0.96913  Biso   1.000  I
  I2       1.0000 0.24784  0.01194  0.03087  Biso   1.000  I
  C3       1.0000 0.20780  0.33870  0.94000  Biso   1.000  C
  C4       1.0000 0.79220  0.66130  0.06000  Biso   1.000  C
  H1       1.0000 0.22190  0.27680  0.00270  Biso   1.000  H
  H2       1.0000 0.77810  0.72320  0.99730  Biso   1.000  H
  P3       1.0000 0.57316  0.16123  0.15167  Biso   1.000  P
  P4       1.0000 0.42684  0.83877  0.84833  Biso   1.000  P
  N3       1.0000 0.15540  0.38230  0.54860  Biso   1.000  N
  N4       1.0000 0.84460  0.61770  0.45140  Biso   1.000  N
  C5       1.0000 0.07100  0.40590  0.93550  Biso   1.000  C
  C6       1.0000 0.92900  0.59410  0.06450  Biso   1.000  C
  H3       1.0000 0.99450  0.39020  0.99470  Biso   1.000  H
  H4       1.0000 0.00550  0.60980  0.00530  Biso   1.000  H
  C7       1.0000 0.04940  0.49690  0.84180  Biso   1.000  C
  C8       1.0000 0.95060  0.50310  0.15820  Biso   1.000  C
  H5       1.0000 0.95830  0.54320  0.83800  Biso   1.000  H
  H6       1.0000 0.04170  0.45680  0.16200  Biso   1.000  H
  C9       1.0000 0.16200  0.51910  0.75450  Biso   1.000  C
  C10      1.0000 0.83800  0.48090  0.24550  Biso   1.000  C
  H7       1.0000 0.14560  0.57990  0.69130  Biso   1.000  H
  H8       1.0000 0.85440  0.42010  0.30870  Biso   1.000  H
  C11      1.0000 0.29900  0.45270  0.75910  Biso   1.000  C
  C12      1.0000 0.70100  0.54730  0.24090  Biso   1.000  C
  H9       1.0000 0.37440  0.46880  0.69920  Biso   1.000  H
  H10      1.0000 0.62560  0.53120  0.30080  Biso   1.000  H
  C13      1.0000 0.57610  0.27450  0.73500  Biso   1.000  C
  C14      1.0000 0.42390  0.72550  0.26500  Biso   1.000  C
  C15      1.0000 0.66430  0.35590  0.65600  Biso   1.000  C
  C16      1.0000 0.33570  0.64410  0.34400  Biso   1.000  C
  H11      1.0000 0.69130  0.41520  0.67040  Biso   1.000  H
  H12      1.0000 0.30870  0.58480  0.32960  Biso   1.000  H
  C17      1.0000 0.71290  0.34910  0.55500  Biso   1.000  C
  C18      1.0000 0.28710  0.65090  0.44500  Biso   1.000  C
  H13      1.0000 0.77220  0.40360  0.50210  Biso   1.000  H
  H14      1.0000 0.22780  0.59640  0.49790  Biso   1.000  H
  C19      1.0000 0.67160  0.25970  0.53390  Biso   1.000  C
  C20      1.0000 0.32840  0.74030  0.46610  Biso   1.000  C
  H15      1.0000 0.70550  0.25390  0.46730  Biso   1.000  H
  H16      1.0000 0.29450  0.74610  0.53270  Biso   1.000  H
  C21      1.0000 0.58170  0.18090  0.61070  Biso   1.000  C
  C22      1.0000 0.41830  0.81910  0.38930  Biso   1.000  C
  H17      1.0000 0.55210  0.12280  0.59520  Biso   1.000  H
  H18      1.0000 0.44790  0.87720  0.40480  Biso   1.000  H
  C23      1.0000 0.53380  0.18660  0.71230  Biso   1.000  C
  C24      1.0000 0.46620  0.81340  0.28770  Biso   1.000  C
  H19      1.0000 0.47400  0.13200  0.76460  Biso   1.000  H
  H20      1.0000 0.52600  0.86800  0.23540  Biso   1.000  H
  C25      1.0000 0.41620  0.21500  0.22810  Biso   1.000  C
  C26      1.0000 0.58380  0.78500  0.77190  Biso   1.000  C
  C27      1.0000 0.26160  0.18510  0.23630  Biso   1.000  C
  C28      1.0000 0.73840  0.81490  0.76370  Biso   1.000  C
  H21      1.0000 0.23890  0.14050  0.20100  Biso   1.000  H
  H22      1.0000 0.76110  0.85950  0.79900  Biso   1.000  H
  C29      1.0000 0.14130  0.22130  0.29670  Biso   1.000  C
  C30      1.0000 0.85870  0.77870  0.70330  Biso   1.000  C
  H23      1.0000 0.03790  0.20180  0.30080  Biso   1.000  H
  H24      1.0000 0.96210  0.79820  0.69920  Biso   1.000  H
  C31      1.0000 0.17340  0.28580  0.35090  Biso   1.000  C
  C32      1.0000 0.82660  0.71420  0.64910  Biso   1.000  C
  H25      1.0000 0.09210  0.30940  0.39190  Biso   1.000  H
  H26      1.0000 0.90790  0.69060  0.60810  Biso   1.000  H
  C33      1.0000 0.32670  0.31560  0.34430  Biso   1.000  C
  C34      1.0000 0.67330  0.68440  0.65570  Biso   1.000  C
  H27      1.0000 0.34870  0.35910  0.38100  Biso   1.000  H
  H28      1.0000 0.65130  0.64090  0.61900  Biso   1.000  H
  C35      1.0000 0.44680  0.28090  0.28340  Biso   1.000  C
  C36      1.0000 0.55320  0.71910  0.71660  Biso   1.000  C
  H29      1.0000 0.54960  0.30160  0.27890  Biso   1.000  H
  H30      1.0000 0.45040  0.69840  0.72110  Biso   1.000  H
  C37      1.0000 0.70540  0.07850  0.25490  Biso   1.000  C
  C38      1.0000 0.29460  0.92150  0.74510  Biso   1.000  C
  C39      1.0000 0.66280  0.04930  0.36620  Biso   1.000  C
  C40      1.0000 0.33720  0.95070  0.63380  Biso   1.000  C
  H31      1.0000 0.56360  0.07240  0.39060  Biso   1.000  H
  H32      1.0000 0.43640  0.92760  0.60940  Biso   1.000  H
  C41      1.0000 0.76810  0.98600  0.44050  Biso   1.000  C
  C42      1.0000 0.23190  0.01400  0.55950  Biso   1.000  C
  H33      1.0000 0.73740  0.96520  0.51450  Biso   1.000  H
  H34      1.0000 0.26260  0.03480  0.48550  Biso   1.000  H
  C43      1.0000 0.91770  0.95340  0.40600  Biso   1.000  C
  C44      1.0000 0.08230  0.04660  0.59400  Biso   1.000  C
  H35      1.0000 0.98800  0.91190  0.45640  Biso   1.000  H
  H36      1.0000 0.01200  0.08810  0.54360  Biso   1.000  H
  C45      1.0000 0.96160  0.98270  0.29720  Biso   1.000  C
  C46      1.0000 0.03840  0.01730  0.70280  Biso   1.000  C
  H37      1.0000 0.06230  0.96120  0.27340  Biso   1.000  H
  H38      1.0000 0.93770  0.03880  0.72660  Biso   1.000  H
  C47      1.0000 0.85610  0.04480  0.22170  Biso   1.000  C
  C48      1.0000 0.14390  0.95520  0.77830  Biso   1.000  C
  H39      1.0000 0.88720  0.06390  0.14790  Biso   1.000  H
  H40      1.0000 0.11280  0.93610  0.85210  Biso   1.000  H
  C49      1.0000 0.69750  0.28220  0.07880  Biso   1.000  C
  C50      1.0000 0.30250  0.71780  0.92120  Biso   1.000  C
  C51      1.0000 0.64400  0.36980  0.88640  Biso   1.000  C
  C52      1.0000 0.35600  0.63020  0.11360  Biso   1.000  C
  C53      1.0000 0.58630  0.47690  0.00560  Biso   1.000  C
  C54      1.0000 0.41370  0.52310  0.99440  Biso   1.000  C
  H41      1.0000 0.65530  0.52740  0.94910  Biso   1.000  H
  H42      1.0000 0.34470  0.47260  0.05090  Biso   1.000  H
  H43      1.0000 0.61630  0.47100  0.07520  Biso   1.000  H
  H44      1.0000 0.38370  0.52900  0.92480  Biso   1.000  H
  C55      1.0000 0.11330  0.32740  0.63190  Biso   1.000  C
  C56      1.0000 0.88670  0.67260  0.36810  Biso   1.000  C
  C57      1.0000 0.05900  0.25420  0.74250  Biso   1.000  C
  C58      1.0000 0.94100  0.74580  0.25750  Biso   1.000  C
  H45      1.0000 0.13800  0.19540  0.76900  Biso   1.000  H
  H46      1.0000 0.86200  0.80460  0.23100  Biso   1.000  H
  H47      1.0000 0.96110  0.22430  0.74140  Biso   1.000  H
  H48      1.0000 0.03890  0.77570  0.25860  Biso   1.000  H
  H49      1.0000 0.04240  0.29510  0.78920  Biso   1.000  H
  H50      1.0000 0.95760  0.70490  0.21080  Biso   1.000  H
