data_image0
_cell_length_a       4.0534
_cell_length_b       7.9514
_cell_length_c       8.2802
_cell_angle_alpha    111.113
_cell_angle_beta     93.818
_cell_angle_gamma    100.634

_symmetry_space_group_name_H-M    "P 1"
_symmetry_int_tables_number       1

loop_
  _symmetry_equiv_pos_as_xyz
  'x, y, z'

loop_
  _atom_site_label
  _atom_site_occupancy
  _atom_site_fract_x
  _atom_site_fract_y
  _atom_site_fract_z
  _atom_site_thermal_displace_type
  _atom_site_B_iso_or_equiv
  _atom_site_type_symbol
  Br1      1.0000 0.21520  0.41556  0.66704  Biso   1.000  Br
  Br2      1.0000 0.78480  0.58444  0.33296  Biso   1.000  Br
  Cu1      1.0000 0.23220  0.40385  0.36067  Biso   1.000  Cu
  Cu2      1.0000 0.76780  0.59615  0.63933  Biso   1.000  Cu
  N1       1.0000 0.09820  0.16060  0.15050  Biso   1.000  N
  N2       1.0000 0.90180  0.83940  0.84950  Biso   1.000  N
  C1       1.0000 0.36770  0.99970  0.30480  Biso   1.000  C
  C2       1.0000 0.63230  0.00030  0.69520  Biso   1.000  C
  H1       1.0000 0.54780  0.10860  0.35450  Biso   1.000  H
  H2       1.0000 0.45220  0.89140  0.64550  Biso   1.000  H
  H3       1.0000 0.46140  0.89180  0.27330  Biso   1.000  H
  H4       1.0000 0.53860  0.10820  0.72670  Biso   1.000  H
  H5       1.0000 0.21690  0.99730  0.38900  Biso   1.000  H
  H6       1.0000 0.78310  0.00270  0.61100  Biso   1.000  H
  C3       1.0000 0.17670  0.00220  0.14590  Biso   1.000  C
  C4       1.0000 0.82330  0.99780  0.85410  Biso   1.000  C
  C5       1.0000 0.92400  0.15740  0.00590  Biso   1.000  C
  C6       1.0000 0.07600  0.84260  0.99410  Biso   1.000  C
  H7       1.0000 0.86770  0.26580  0.00660  Biso   1.000  H
  H8       1.0000 0.13230  0.73420  0.99340  Biso   1.000  H
