data_image0
_cell_length_a       4.2971
_cell_length_b       8.22
_cell_length_c       8.247
_cell_angle_alpha    110.85
_cell_angle_beta     102.04
_cell_angle_gamma    94.82

_symmetry_space_group_name_H-M    "P 1"
_symmetry_int_tables_number       1

loop_
  _symmetry_equiv_pos_as_xyz
  'x, y, z'

loop_
  _atom_site_label
  _atom_site_occupancy
  _atom_site_fract_x
  _atom_site_fract_y
  _atom_site_fract_z
  _atom_site_thermal_displace_type
  _atom_site_B_iso_or_equiv
  _atom_site_type_symbol
  I1       1.0000 0.20736  0.18526  0.91488  Biso   1.000  I
  I2       1.0000 0.79264  0.81474  0.08512  Biso   1.000  I
  Cu1      1.0000 0.75890  0.14030  0.09383  Biso   1.000  Cu
  Cu2      1.0000 0.24110  0.85970  0.90617  Biso   1.000  Cu
  N1       1.0000 0.90090  0.34980  0.33950  Biso   1.000  N
  N2       1.0000 0.09910  0.65020  0.66050  Biso   1.000  N
  C1       1.0000 0.81000  0.35380  0.48890  Biso   1.000  C
  C2       1.0000 0.19000  0.64620  0.51110  Biso   1.000  C
  C3       1.0000 0.08600  0.49860  0.35380  Biso   1.000  C
  C4       1.0000 0.91400  0.50140  0.64620  Biso   1.000  C
  C5       1.0000 0.60300  0.19210  0.47930  Biso   1.000  C
  C6       1.0000 0.39700  0.80790  0.52070  Biso   1.000  C
  H1       1.0000 0.14570  0.50160  0.25260  Biso   1.000  H
  H2       1.0000 0.85430  0.49840  0.74740  Biso   1.000  H
  H3       1.0000 0.71560  0.09380  0.44960  Biso   1.000  H
  H4       1.0000 0.28440  0.90620  0.55040  Biso   1.000  H
  H5       1.0000 0.55760  0.21360  0.59360  Biso   1.000  H
  H6       1.0000 0.44240  0.78640  0.40640  Biso   1.000  H
  H7       1.0000 0.40380  0.16570  0.38900  Biso   1.000  H
  H8       1.0000 0.59620  0.83430  0.61100  Biso   1.000  H
