data_image0
_cell_length_a       7.5597
_cell_length_b       7.9154
_cell_length_c       8.0435
_cell_angle_alpha    66.27
_cell_angle_beta     72.95
_cell_angle_gamma    70.32

_symmetry_space_group_name_H-M    "P 1"
_symmetry_int_tables_number       1

loop_
  _symmetry_equiv_pos_as_xyz
  'x, y, z'

loop_
  _atom_site_label
  _atom_site_occupancy
  _atom_site_fract_x
  _atom_site_fract_y
  _atom_site_fract_z
  _atom_site_thermal_displace_type
  _atom_site_B_iso_or_equiv
  _atom_site_type_symbol
  Br1      1.0000 0.69368  0.65913  0.39496  Biso   1.000  Br
  Br2      1.0000 0.30632  0.34087  0.60504  Biso   1.000  Br
  Cu1      1.0000 0.63273  0.33835  0.63469  Biso   1.000  Cu
  Cu2      1.0000 0.36727  0.66165  0.36531  Biso   1.000  Cu
  N1       1.0000 0.84800  0.13250  0.56370  Biso   1.000  N
  N2       1.0000 0.15200  0.86750  0.43630  Biso   1.000  N
  C1       1.0000 0.84670  0.94900  0.62420  Biso   1.000  C
  C2       1.0000 0.15330  0.05100  0.37580  Biso   1.000  C
  C3       1.0000 0.00150  0.18160  0.43800  Biso   1.000  C
  C4       1.0000 0.99850  0.81840  0.56200  Biso   1.000  C
  H1       1.0000 0.00550  0.30880  0.39110  Biso   1.000  H
  H2       1.0000 0.99450  0.69120  0.60890  Biso   1.000  H
  N3       1.0000 0.55970  0.41780  0.86270  Biso   1.000  N
  N4       1.0000 0.44030  0.58220  0.13730  Biso   1.000  N
  C5       1.0000 0.39710  0.55880  0.87070  Biso   1.000  C
  C6       1.0000 0.60290  0.44120  0.12930  Biso   1.000  C
  H3       1.0000 0.32260  0.60230  0.78100  Biso   1.000  H
  H4       1.0000 0.67740  0.39770  0.21900  Biso   1.000  H
  C7       1.0000 0.66100  0.36070  0.99280  Biso   1.000  C
  C8       1.0000 0.33900  0.63930  0.00720  Biso   1.000  C
  C9       1.0000 0.84080  0.20370  0.98960  Biso   1.000  C
  C10      1.0000 0.15920  0.79630  0.01040  Biso   1.000  C
  H5       1.0000 0.81090  0.09300  0.99440  Biso   1.000  H
  H6       1.0000 0.18910  0.90700  0.00560  Biso   1.000  H
  H7       1.0000 0.89670  0.17290  0.09430  Biso   1.000  H
  H8       1.0000 0.10330  0.82710  0.90570  Biso   1.000  H
  H9       1.0000 0.92960  0.24500  0.87800  Biso   1.000  H
  H10      1.0000 0.07040  0.75500  0.12200  Biso   1.000  H
  C11      1.0000 0.68160  0.88680  0.76360  Biso   1.000  C
  C12      1.0000 0.31840  0.11320  0.23640  Biso   1.000  C
  H11      1.0000 0.68810  0.88640  0.88120  Biso   1.000  H
  H12      1.0000 0.31190  0.11360  0.11880  Biso   1.000  H
  H13      1.0000 0.68520  0.76080  0.77350  Biso   1.000  H
  H14      1.0000 0.31480  0.23920  0.22650  Biso   1.000  H
  H15      1.0000 0.56480  0.97320  0.72610  Biso   1.000  H
  H16      1.0000 0.43520  0.02680  0.27390  Biso   1.000  H
