data_image0
_cell_length_a       10.9623
_cell_length_b       10.9623
_cell_length_c       6.3231
_cell_angle_alpha    90
_cell_angle_beta     90
_cell_angle_gamma    90

_symmetry_space_group_name_H-M    "P 1"
_symmetry_int_tables_number       1

loop_
  _symmetry_equiv_pos_as_xyz
  'x, y, z'

loop_
  _atom_site_label
  _atom_site_occupancy
  _atom_site_fract_x
  _atom_site_fract_y
  _atom_site_fract_z
  _atom_site_thermal_displace_type
  _atom_site_B_iso_or_equiv
  _atom_site_type_symbol
  Zn1      1.0000 0.00000  0.00000  0.00000  Biso   1.000  Zn
  Zn2      1.0000 0.50000  0.50000  0.50000  Biso   1.000  Zn
  Cu1      1.0000 0.00000  0.50000  0.66766  Biso   1.000  Cu
  Cu2      1.0000 0.50000  0.00000  0.33234  Biso   1.000  Cu
  Cu3      1.0000 0.50000  0.00000  0.83234  Biso   1.000  Cu
  Cu4      1.0000 0.00000  0.50000  0.16766  Biso   1.000  Cu
  N1       1.0000 0.03154  0.85484  0.81830  Biso   1.000  N
  N2       1.0000 0.96846  0.14516  0.81830  Biso   1.000  N
  N3       1.0000 0.14516  0.03154  0.18170  Biso   1.000  N
  N4       1.0000 0.85484  0.96846  0.18170  Biso   1.000  N
  N5       1.0000 0.46846  0.35484  0.68170  Biso   1.000  N
  N6       1.0000 0.53154  0.64516  0.68170  Biso   1.000  N
  N7       1.0000 0.35484  0.53154  0.31830  Biso   1.000  N
  N8       1.0000 0.64516  0.46846  0.31830  Biso   1.000  N
  C1       1.0000 0.97755  0.74603  0.81890  Biso   1.000  C
  C2       1.0000 0.02245  0.25397  0.81890  Biso   1.000  C
  C3       1.0000 0.25397  0.97755  0.18110  Biso   1.000  C
  C4       1.0000 0.74603  0.02245  0.18110  Biso   1.000  C
  C5       1.0000 0.52245  0.24603  0.68110  Biso   1.000  C
  C6       1.0000 0.47755  0.75397  0.68110  Biso   1.000  C
  C7       1.0000 0.24603  0.47755  0.31890  Biso   1.000  C
  C8       1.0000 0.75397  0.52245  0.31890  Biso   1.000  C
  H1       1.0000 0.91600  0.72600  0.88900  Biso   1.000  H
  H2       1.0000 0.08400  0.27400  0.88900  Biso   1.000  H
  H3       1.0000 0.27400  0.91600  0.11100  Biso   1.000  H
  H4       1.0000 0.72600  0.08400  0.11100  Biso   1.000  H
  H5       1.0000 0.58400  0.22600  0.61100  Biso   1.000  H
  H6       1.0000 0.41600  0.77400  0.61100  Biso   1.000  H
  H7       1.0000 0.22600  0.41600  0.38900  Biso   1.000  H
  H8       1.0000 0.77400  0.58400  0.38900  Biso   1.000  H
  N9       1.0000 0.02600  0.66811  0.68000  Biso   1.000  N
  N10      1.0000 0.97400  0.33189  0.68000  Biso   1.000  N
  N11      1.0000 0.33189  0.02600  0.32000  Biso   1.000  N
  N12      1.0000 0.66811  0.97400  0.32000  Biso   1.000  N
  N13      1.0000 0.47400  0.16811  0.82000  Biso   1.000  N
  N14      1.0000 0.52600  0.83189  0.82000  Biso   1.000  N
  N15      1.0000 0.16811  0.52600  0.18000  Biso   1.000  N
  N16      1.0000 0.83189  0.47400  0.18000  Biso   1.000  N
  C9       1.0000 0.11800  0.73250  0.58220  Biso   1.000  C
  C10      1.0000 0.88200  0.26750  0.58220  Biso   1.000  C
  C11      1.0000 0.26750  0.11800  0.41780  Biso   1.000  C
  C12      1.0000 0.73250  0.88200  0.41780  Biso   1.000  C
  C13      1.0000 0.38200  0.23250  0.91780  Biso   1.000  C
  C14      1.0000 0.61800  0.76750  0.91780  Biso   1.000  C
  C15      1.0000 0.23250  0.61800  0.08220  Biso   1.000  C
  C16      1.0000 0.76750  0.38200  0.08220  Biso   1.000  C
  H9       1.0000 0.17100  0.70000  0.47000  Biso   1.000  H
  H10      1.0000 0.82900  0.30000  0.47000  Biso   1.000  H
  H11      1.0000 0.30000  0.17100  0.53000  Biso   1.000  H
  H12      1.0000 0.70000  0.82900  0.53000  Biso   1.000  H
  H13      1.0000 0.32900  0.20000  0.03000  Biso   1.000  H
  H14      1.0000 0.67100  0.80000  0.03000  Biso   1.000  H
  H15      1.0000 0.20000  0.67100  0.97000  Biso   1.000  H
  H16      1.0000 0.80000  0.32900  0.97000  Biso   1.000  H
  C17      1.0000 0.12030  0.84680  0.66590  Biso   1.000  C
  C18      1.0000 0.87970  0.15320  0.66590  Biso   1.000  C
  C19      1.0000 0.15320  0.12030  0.33410  Biso   1.000  C
  C20      1.0000 0.84680  0.87970  0.33410  Biso   1.000  C
  C21      1.0000 0.37970  0.34680  0.83410  Biso   1.000  C
  C22      1.0000 0.62030  0.65320  0.83410  Biso   1.000  C
  C23      1.0000 0.34680  0.62030  0.16590  Biso   1.000  C
  C24      1.0000 0.65320  0.37970  0.16590  Biso   1.000  C
  H17      1.0000 0.17300  0.90800  0.63900  Biso   1.000  H
  H18      1.0000 0.82700  0.09200  0.63900  Biso   1.000  H
  H19      1.0000 0.09200  0.17300  0.36100  Biso   1.000  H
  H20      1.0000 0.90800  0.82700  0.36100  Biso   1.000  H
  H21      1.0000 0.32700  0.40800  0.86100  Biso   1.000  H
  H22      1.0000 0.67300  0.59200  0.86100  Biso   1.000  H
  H23      1.0000 0.40800  0.67300  0.13900  Biso   1.000  H
  H24      1.0000 0.59200  0.32700  0.13900  Biso   1.000  H
