data_image0
_cell_length_a       10.005
_cell_length_b       19.344
_cell_length_c       25.704
_cell_angle_alpha    90
_cell_angle_beta     90
_cell_angle_gamma    90

_symmetry_space_group_name_H-M    "P 1"
_symmetry_int_tables_number       1

loop_
  _symmetry_equiv_pos_as_xyz
  'x, y, z'

loop_
  _atom_site_label
  _atom_site_occupancy
  _atom_site_fract_x
  _atom_site_fract_y
  _atom_site_fract_z
  _atom_site_thermal_displace_type
  _atom_site_B_iso_or_equiv
  _atom_site_type_symbol
  Cu1      1.0000 0.53519  0.27646  0.20420  Biso   1.000  Cu
  Cu2      1.0000 0.96481  0.22354  0.20420  Biso   1.000  Cu
  Cu3      1.0000 0.46481  0.77646  0.29580  Biso   1.000  Cu
  Cu4      1.0000 0.03519  0.72354  0.29580  Biso   1.000  Cu
  Cu5      1.0000 0.46481  0.72354  0.79580  Biso   1.000  Cu
  Cu6      1.0000 0.03519  0.77646  0.79580  Biso   1.000  Cu
  Cu7      1.0000 0.53519  0.22354  0.70420  Biso   1.000  Cu
  Cu8      1.0000 0.96481  0.27646  0.70420  Biso   1.000  Cu
  Cu9      1.0000 0.75000  0.25000  0.33988  Biso   1.000  Cu
  Cu10     1.0000 0.25000  0.75000  0.16012  Biso   1.000  Cu
  Cu11     1.0000 0.25000  0.75000  0.66012  Biso   1.000  Cu
  Cu12     1.0000 0.75000  0.25000  0.83988  Biso   1.000  Cu
  Cu13     1.0000 0.23556  0.34573  0.11093  Biso   1.000  Cu
  Cu14     1.0000 0.26444  0.15427  0.11093  Biso   1.000  Cu
  Cu15     1.0000 0.76444  0.84573  0.38907  Biso   1.000  Cu
  Cu16     1.0000 0.73556  0.65427  0.38907  Biso   1.000  Cu
  Cu17     1.0000 0.76444  0.65427  0.88907  Biso   1.000  Cu
  Cu18     1.0000 0.73556  0.84573  0.88907  Biso   1.000  Cu
  Cu19     1.0000 0.23556  0.15427  0.61093  Biso   1.000  Cu
  Cu20     1.0000 0.26444  0.34573  0.61093  Biso   1.000  Cu
  I1       1.0000 0.61634  0.15783  0.40048  Biso   1.000  I
  I2       1.0000 0.88366  0.34217  0.40048  Biso   1.000  I
  I3       1.0000 0.38366  0.65783  0.09952  Biso   1.000  I
  I4       1.0000 0.11634  0.84217  0.09952  Biso   1.000  I
  I5       1.0000 0.38366  0.84217  0.59952  Biso   1.000  I
  I6       1.0000 0.11634  0.65783  0.59952  Biso   1.000  I
  I7       1.0000 0.61634  0.34217  0.90048  Biso   1.000  I
  I8       1.0000 0.88366  0.15783  0.90048  Biso   1.000  I
  I9       1.0000 0.25000  0.25000  0.03889  Biso   1.000  I
  I10      1.0000 0.75000  0.75000  0.46111  Biso   1.000  I
  I11      1.0000 0.75000  0.75000  0.96111  Biso   1.000  I
  I12      1.0000 0.25000  0.25000  0.53889  Biso   1.000  I
  I13      1.0000 0.13645  0.45344  0.05732  Biso   1.000  I
  I14      1.0000 0.36355  0.04656  0.05732  Biso   1.000  I
  I15      1.0000 0.86355  0.95344  0.44268  Biso   1.000  I
  I16      1.0000 0.63645  0.54656  0.44268  Biso   1.000  I
  I17      1.0000 0.86355  0.54656  0.94268  Biso   1.000  I
  I18      1.0000 0.63645  0.95344  0.94268  Biso   1.000  I
  I19      1.0000 0.13645  0.04656  0.55732  Biso   1.000  I
  I20      1.0000 0.36355  0.45344  0.55732  Biso   1.000  I
  S1       1.0000 0.43665  0.36673  0.15463  Biso   1.000  S
  S2       1.0000 0.06335  0.13327  0.15463  Biso   1.000  S
  S3       1.0000 0.56335  0.86673  0.34537  Biso   1.000  S
  S4       1.0000 0.93665  0.63327  0.34537  Biso   1.000  S
  S5       1.0000 0.56335  0.63327  0.84537  Biso   1.000  S
  S6       1.0000 0.93665  0.86673  0.84537  Biso   1.000  S
  S7       1.0000 0.43665  0.13327  0.65463  Biso   1.000  S
  S8       1.0000 0.06335  0.36673  0.65463  Biso   1.000  S
  S9       1.0000 0.59317  0.30624  0.28920  Biso   1.000  S
  S10      1.0000 0.90683  0.19376  0.28920  Biso   1.000  S
  S11      1.0000 0.40683  0.80624  0.21080  Biso   1.000  S
  S12      1.0000 0.09317  0.69376  0.21080  Biso   1.000  S
  S13      1.0000 0.40683  0.69376  0.71080  Biso   1.000  S
  S14      1.0000 0.09317  0.80624  0.71080  Biso   1.000  S
  S15      1.0000 0.59317  0.19376  0.78920  Biso   1.000  S
  S16      1.0000 0.90683  0.30624  0.78920  Biso   1.000  S
  S17      1.0000 0.39135  0.18566  0.18479  Biso   1.000  S
  S18      1.0000 0.10865  0.31434  0.18479  Biso   1.000  S
  S19      1.0000 0.60865  0.68566  0.31521  Biso   1.000  S
  S20      1.0000 0.89135  0.81434  0.31521  Biso   1.000  S
  S21      1.0000 0.60865  0.81434  0.81521  Biso   1.000  S
  S22      1.0000 0.89135  0.68566  0.81521  Biso   1.000  S
  S23      1.0000 0.39135  0.31434  0.68479  Biso   1.000  S
  S24      1.0000 0.10865  0.18566  0.68479  Biso   1.000  S
  S25      1.0000 0.75000  0.25000  0.17590  Biso   1.000  S
  S26      1.0000 0.25000  0.75000  0.32410  Biso   1.000  S
  S27      1.0000 0.25000  0.75000  0.82410  Biso   1.000  S
  S28      1.0000 0.75000  0.25000  0.67590  Biso   1.000  S
  N1       1.0000 0.76670  0.45520  0.05790  Biso   1.000  N
  N2       1.0000 0.73330  0.04480  0.05790  Biso   1.000  N
  N3       1.0000 0.23330  0.95520  0.44210  Biso   1.000  N
  N4       1.0000 0.26670  0.54480  0.44210  Biso   1.000  N
  N5       1.0000 0.23330  0.54480  0.94210  Biso   1.000  N
  N6       1.0000 0.26670  0.95520  0.94210  Biso   1.000  N
  N7       1.0000 0.76670  0.04480  0.55790  Biso   1.000  N
  N8       1.0000 0.73330  0.45520  0.55790  Biso   1.000  N
  H1       1.0000 0.83050  0.47120  0.03890  Biso   1.000  H
  H2       1.0000 0.66950  0.02880  0.03890  Biso   1.000  H
  H3       1.0000 0.16950  0.97120  0.46110  Biso   1.000  H
  H4       1.0000 0.33050  0.52880  0.46110  Biso   1.000  H
  H5       1.0000 0.16950  0.52880  0.96110  Biso   1.000  H
  H6       1.0000 0.33050  0.97120  0.96110  Biso   1.000  H
  H7       1.0000 0.83050  0.02880  0.53890  Biso   1.000  H
  H8       1.0000 0.66950  0.47120  0.53890  Biso   1.000  H
  N9       1.0000 0.24020  0.35230  0.38910  Biso   1.000  N
  N10      1.0000 0.25980  0.14770  0.38910  Biso   1.000  N
  N11      1.0000 0.75980  0.85230  0.11090  Biso   1.000  N
  N12      1.0000 0.74020  0.64770  0.11090  Biso   1.000  N
  N13      1.0000 0.75980  0.64770  0.61090  Biso   1.000  N
  N14      1.0000 0.74020  0.85230  0.61090  Biso   1.000  N
  N15      1.0000 0.24020  0.14770  0.88910  Biso   1.000  N
  N16      1.0000 0.25980  0.35230  0.88910  Biso   1.000  N
  H9       1.0000 0.17110  0.35830  0.40850  Biso   1.000  H
  H10      1.0000 0.32890  0.14170  0.40850  Biso   1.000  H
  H11      1.0000 0.82890  0.85830  0.09150  Biso   1.000  H
  H12      1.0000 0.67110  0.64170  0.09150  Biso   1.000  H
  H13      1.0000 0.82890  0.64170  0.59150  Biso   1.000  H
  H14      1.0000 0.67110  0.85830  0.59150  Biso   1.000  H
  H15      1.0000 0.17110  0.14170  0.90850  Biso   1.000  H
  H16      1.0000 0.32890  0.35830  0.90850  Biso   1.000  H
  N17      1.0000 0.53120  0.99520  0.26660  Biso   1.000  N
  N18      1.0000 0.96880  0.50480  0.26660  Biso   1.000  N
  N19      1.0000 0.46880  0.49520  0.23340  Biso   1.000  N
  N20      1.0000 0.03120  0.00480  0.23340  Biso   1.000  N
  N21      1.0000 0.46880  0.00480  0.73340  Biso   1.000  N
  N22      1.0000 0.03120  0.49520  0.73340  Biso   1.000  N
  N23      1.0000 0.53120  0.50480  0.76660  Biso   1.000  N
  N24      1.0000 0.96880  0.99520  0.76660  Biso   1.000  N
  H17      1.0000 0.55560  0.95870  0.28320  Biso   1.000  H
  H18      1.0000 0.94440  0.54130  0.28320  Biso   1.000  H
  H19      1.0000 0.44440  0.45870  0.21680  Biso   1.000  H
  H20      1.0000 0.05560  0.04130  0.21680  Biso   1.000  H
  H21      1.0000 0.44440  0.04130  0.71680  Biso   1.000  H
  H22      1.0000 0.05560  0.45870  0.71680  Biso   1.000  H
  H23      1.0000 0.55560  0.54130  0.78320  Biso   1.000  H
  H24      1.0000 0.94440  0.95870  0.78320  Biso   1.000  H
  N25      1.0000 0.75000  0.25000  0.00320  Biso   1.000  N
  N26      1.0000 0.25000  0.75000  0.49680  Biso   1.000  N
  N27      1.0000 0.25000  0.75000  0.99680  Biso   1.000  N
  N28      1.0000 0.75000  0.25000  0.50320  Biso   1.000  N
  H25      1.0000 0.75000  0.25000  0.96970  Biso   1.000  H
  H26      1.0000 0.25000  0.75000  0.53030  Biso   1.000  H
  H27      1.0000 0.25000  0.75000  0.03030  Biso   1.000  H
  H28      1.0000 0.75000  0.25000  0.46970  Biso   1.000  H
  C1       1.0000 0.78720  0.44460  0.10820  Biso   1.000  C
  C2       1.0000 0.71280  0.05540  0.10820  Biso   1.000  C
  C3       1.0000 0.21280  0.94460  0.39180  Biso   1.000  C
  C4       1.0000 0.28720  0.55540  0.39180  Biso   1.000  C
  C5       1.0000 0.21280  0.55540  0.89180  Biso   1.000  C
  C6       1.0000 0.28720  0.94460  0.89180  Biso   1.000  C
  C7       1.0000 0.78720  0.05540  0.60820  Biso   1.000  C
  C8       1.0000 0.71280  0.44460  0.60820  Biso   1.000  C
  H29      1.0000 0.87010  0.45480  0.12270  Biso   1.000  H
  H30      1.0000 0.62990  0.04520  0.12270  Biso   1.000  H
  H31      1.0000 0.12990  0.95480  0.37730  Biso   1.000  H
  H32      1.0000 0.37010  0.54520  0.37730  Biso   1.000  H
  H33      1.0000 0.12990  0.54520  0.87730  Biso   1.000  H
  H34      1.0000 0.37010  0.95480  0.87730  Biso   1.000  H
  H35      1.0000 0.87010  0.04520  0.62270  Biso   1.000  H
  H36      1.0000 0.62990  0.45480  0.62270  Biso   1.000  H
  C9       1.0000 0.68850  0.41900  0.13880  Biso   1.000  C
  C10      1.0000 0.81150  0.08100  0.13880  Biso   1.000  C
  C11      1.0000 0.31150  0.91900  0.36120  Biso   1.000  C
  C12      1.0000 0.18850  0.58100  0.36120  Biso   1.000  C
  C13      1.0000 0.31150  0.58100  0.86120  Biso   1.000  C
  C14      1.0000 0.18850  0.91900  0.86120  Biso   1.000  C
  C15      1.0000 0.68850  0.08100  0.63880  Biso   1.000  C
  C16      1.0000 0.81150  0.41900  0.63880  Biso   1.000  C
  H37      1.0000 0.70390  0.41170  0.17410  Biso   1.000  H
  H38      1.0000 0.79610  0.08830  0.17410  Biso   1.000  H
  H39      1.0000 0.29610  0.91170  0.32590  Biso   1.000  H
  H40      1.0000 0.20390  0.58830  0.32590  Biso   1.000  H
  H41      1.0000 0.29610  0.58830  0.82590  Biso   1.000  H
  H42      1.0000 0.20390  0.91170  0.82590  Biso   1.000  H
  H43      1.0000 0.70390  0.08830  0.67410  Biso   1.000  H
  H44      1.0000 0.79610  0.41170  0.67410  Biso   1.000  H
  C17      1.0000 0.56270  0.40330  0.11730  Biso   1.000  C
  C18      1.0000 0.93730  0.09670  0.11730  Biso   1.000  C
  C19      1.0000 0.43730  0.90330  0.38270  Biso   1.000  C
  C20      1.0000 0.06270  0.59670  0.38270  Biso   1.000  C
  C21      1.0000 0.43730  0.59670  0.88270  Biso   1.000  C
  C22      1.0000 0.06270  0.90330  0.88270  Biso   1.000  C
  C23      1.0000 0.56270  0.09670  0.61730  Biso   1.000  C
  C24      1.0000 0.93730  0.40330  0.61730  Biso   1.000  C
  C25      1.0000 0.54640  0.41600  0.06390  Biso   1.000  C
  C26      1.0000 0.95360  0.08400  0.06390  Biso   1.000  C
  C27      1.0000 0.45360  0.91600  0.43610  Biso   1.000  C
  C28      1.0000 0.04640  0.58400  0.43610  Biso   1.000  C
  C29      1.0000 0.45360  0.58400  0.93610  Biso   1.000  C
  C30      1.0000 0.04640  0.91600  0.93610  Biso   1.000  C
  C31      1.0000 0.54640  0.08400  0.56390  Biso   1.000  C
  C32      1.0000 0.95360  0.41600  0.56390  Biso   1.000  C
  H45      1.0000 0.46490  0.40670  0.04800  Biso   1.000  H
  H46      1.0000 0.03510  0.09330  0.04800  Biso   1.000  H
  H47      1.0000 0.53510  0.90670  0.45200  Biso   1.000  H
  H48      1.0000 0.96490  0.59330  0.45200  Biso   1.000  H
  H49      1.0000 0.53510  0.59330  0.95200  Biso   1.000  H
  H50      1.0000 0.96490  0.90670  0.95200  Biso   1.000  H
  H51      1.0000 0.46490  0.09330  0.54800  Biso   1.000  H
  H52      1.0000 0.03510  0.40670  0.54800  Biso   1.000  H
  C33      1.0000 0.64790  0.44140  0.03600  Biso   1.000  C
  C34      1.0000 0.85210  0.05860  0.03600  Biso   1.000  C
  C35      1.0000 0.35210  0.94140  0.46400  Biso   1.000  C
  C36      1.0000 0.14790  0.55860  0.46400  Biso   1.000  C
  C37      1.0000 0.35210  0.55860  0.96400  Biso   1.000  C
  C38      1.0000 0.14790  0.94140  0.96400  Biso   1.000  C
  C39      1.0000 0.64790  0.05860  0.53600  Biso   1.000  C
  C40      1.0000 0.85210  0.44140  0.53600  Biso   1.000  C
  H53      1.0000 0.63590  0.44970  0.00060  Biso   1.000  H
  H54      1.0000 0.86410  0.05030  0.00060  Biso   1.000  H
  H55      1.0000 0.36410  0.94970  0.49940  Biso   1.000  H
  H56      1.0000 0.13590  0.55030  0.49940  Biso   1.000  H
  H57      1.0000 0.36410  0.55030  0.99940  Biso   1.000  H
  H58      1.0000 0.13590  0.94970  0.99940  Biso   1.000  H
  H59      1.0000 0.63590  0.05030  0.50060  Biso   1.000  H
  H60      1.0000 0.86410  0.44970  0.50060  Biso   1.000  H
  C41      1.0000 0.36010  0.35470  0.41020  Biso   1.000  C
  C42      1.0000 0.13990  0.14530  0.41020  Biso   1.000  C
  C43      1.0000 0.63990  0.85470  0.08980  Biso   1.000  C
  C44      1.0000 0.86010  0.64530  0.08980  Biso   1.000  C
  C45      1.0000 0.63990  0.64530  0.58980  Biso   1.000  C
  C46      1.0000 0.86010  0.85470  0.58980  Biso   1.000  C
  C47      1.0000 0.36010  0.14530  0.91020  Biso   1.000  C
  C48      1.0000 0.13990  0.35470  0.91020  Biso   1.000  C
  H61      1.0000 0.36920  0.36440  0.44550  Biso   1.000  H
  H62      1.0000 0.13080  0.13560  0.44550  Biso   1.000  H
  H63      1.0000 0.63080  0.86440  0.05450  Biso   1.000  H
  H64      1.0000 0.86920  0.63560  0.05450  Biso   1.000  H
  H65      1.0000 0.63080  0.63560  0.55450  Biso   1.000  H
  H66      1.0000 0.86920  0.86440  0.55450  Biso   1.000  H
  H67      1.0000 0.36920  0.13560  0.94550  Biso   1.000  H
  H68      1.0000 0.13080  0.36440  0.94550  Biso   1.000  H
  C49      1.0000 0.47180  0.34290  0.38040  Biso   1.000  C
  C50      1.0000 0.02820  0.15710  0.38040  Biso   1.000  C
  C51      1.0000 0.52820  0.84290  0.11960  Biso   1.000  C
  C52      1.0000 0.97180  0.65710  0.11960  Biso   1.000  C
  C53      1.0000 0.52820  0.65710  0.61960  Biso   1.000  C
  C54      1.0000 0.97180  0.84290  0.61960  Biso   1.000  C
  C55      1.0000 0.47180  0.15710  0.88040  Biso   1.000  C
  C56      1.0000 0.02820  0.34290  0.88040  Biso   1.000  C
  H69      1.0000 0.55630  0.34540  0.39540  Biso   1.000  H
  H70      1.0000 0.94370  0.15460  0.39540  Biso   1.000  H
  H71      1.0000 0.44370  0.84540  0.10460  Biso   1.000  H
  H72      1.0000 0.05630  0.65460  0.10460  Biso   1.000  H
  H73      1.0000 0.44370  0.65460  0.60460  Biso   1.000  H
  H74      1.0000 0.05630  0.84540  0.60460  Biso   1.000  H
  H75      1.0000 0.55630  0.15460  0.89540  Biso   1.000  H
  H76      1.0000 0.94370  0.34540  0.89540  Biso   1.000  H
  C57      1.0000 0.45780  0.32710  0.32710  Biso   1.000  C
  C58      1.0000 0.04220  0.17290  0.32710  Biso   1.000  C
  C59      1.0000 0.54220  0.82710  0.17290  Biso   1.000  C
  C60      1.0000 0.95780  0.67290  0.17290  Biso   1.000  C
  C61      1.0000 0.54220  0.67290  0.67290  Biso   1.000  C
  C62      1.0000 0.95780  0.82710  0.67290  Biso   1.000  C
  C63      1.0000 0.45780  0.17290  0.82710  Biso   1.000  C
  C64      1.0000 0.04220  0.32710  0.82710  Biso   1.000  C
  C65      1.0000 0.32930  0.32930  0.30680  Biso   1.000  C
  C66      1.0000 0.17070  0.17070  0.30680  Biso   1.000  C
  C67      1.0000 0.67070  0.82930  0.19320  Biso   1.000  C
  C68      1.0000 0.82930  0.67070  0.19320  Biso   1.000  C
  C69      1.0000 0.67070  0.67070  0.69320  Biso   1.000  C
  C70      1.0000 0.82930  0.82930  0.69320  Biso   1.000  C
  C71      1.0000 0.32930  0.17070  0.80680  Biso   1.000  C
  C72      1.0000 0.17070  0.32930  0.80680  Biso   1.000  C
  H77      1.0000 0.31590  0.32280  0.27130  Biso   1.000  H
  H78      1.0000 0.18410  0.17720  0.27130  Biso   1.000  H
  H79      1.0000 0.68410  0.82280  0.22870  Biso   1.000  H
  H80      1.0000 0.81590  0.67720  0.22870  Biso   1.000  H
  H81      1.0000 0.68410  0.67720  0.72870  Biso   1.000  H
  H82      1.0000 0.81590  0.82280  0.72870  Biso   1.000  H
  H83      1.0000 0.31590  0.17720  0.77130  Biso   1.000  H
  H84      1.0000 0.18410  0.32280  0.77130  Biso   1.000  H
  C73      1.0000 0.22360  0.34080  0.33840  Biso   1.000  C
  C74      1.0000 0.27640  0.15920  0.33840  Biso   1.000  C
  C75      1.0000 0.77640  0.84080  0.16160  Biso   1.000  C
  C76      1.0000 0.72360  0.65920  0.16160  Biso   1.000  C
  C77      1.0000 0.77640  0.65920  0.66160  Biso   1.000  C
  C78      1.0000 0.72360  0.84080  0.66160  Biso   1.000  C
  C79      1.0000 0.22360  0.15920  0.83840  Biso   1.000  C
  C80      1.0000 0.27640  0.34080  0.83840  Biso   1.000  C
  H85      1.0000 0.13780  0.34070  0.32450  Biso   1.000  H
  H86      1.0000 0.36220  0.15930  0.32450  Biso   1.000  H
  H87      1.0000 0.86220  0.84070  0.17550  Biso   1.000  H
  H88      1.0000 0.63780  0.65930  0.17550  Biso   1.000  H
  H89      1.0000 0.86220  0.65930  0.67550  Biso   1.000  H
  H90      1.0000 0.63780  0.84070  0.67550  Biso   1.000  H
  H91      1.0000 0.13780  0.15930  0.82450  Biso   1.000  H
  H92      1.0000 0.36220  0.34070  0.82450  Biso   1.000  H
  C81      1.0000 0.58670  0.05610  0.27850  Biso   1.000  C
  C82      1.0000 0.91330  0.44390  0.27850  Biso   1.000  C
  C83      1.0000 0.41330  0.55610  0.22150  Biso   1.000  C
  C84      1.0000 0.08670  0.94390  0.22150  Biso   1.000  C
  C85      1.0000 0.41330  0.94390  0.72150  Biso   1.000  C
  C86      1.0000 0.08670  0.55610  0.72150  Biso   1.000  C
  C87      1.0000 0.58670  0.44390  0.77850  Biso   1.000  C
  C88      1.0000 0.91330  0.05610  0.77850  Biso   1.000  C
  H93      1.0000 0.65130  0.05860  0.30440  Biso   1.000  H
  H94      1.0000 0.84870  0.44140  0.30440  Biso   1.000  H
  H95      1.0000 0.34870  0.55860  0.19560  Biso   1.000  H
  H96      1.0000 0.15130  0.94140  0.19560  Biso   1.000  H
  H97      1.0000 0.34870  0.94140  0.69560  Biso   1.000  H
  H98      1.0000 0.15130  0.55860  0.69560  Biso   1.000  H
  H99      1.0000 0.65130  0.44140  0.80440  Biso   1.000  H
  H100     1.0000 0.84870  0.05860  0.80440  Biso   1.000  H
  C89      1.0000 0.54900  0.11400  0.25290  Biso   1.000  C
  C90      1.0000 0.95100  0.38600  0.25290  Biso   1.000  C
  C91      1.0000 0.45100  0.61400  0.24710  Biso   1.000  C
  C92      1.0000 0.04900  0.88600  0.24710  Biso   1.000  C
  C93      1.0000 0.45100  0.88600  0.74710  Biso   1.000  C
  C94      1.0000 0.04900  0.61400  0.74710  Biso   1.000  C
  C95      1.0000 0.54900  0.38600  0.75290  Biso   1.000  C
  C96      1.0000 0.95100  0.11400  0.75290  Biso   1.000  C
  H101     1.0000 0.59020  0.15580  0.26090  Biso   1.000  H
  H102     1.0000 0.90980  0.34420  0.26090  Biso   1.000  H
  H103     1.0000 0.40980  0.65580  0.23910  Biso   1.000  H
  H104     1.0000 0.09020  0.84420  0.23910  Biso   1.000  H
  H105     1.0000 0.40980  0.84420  0.73910  Biso   1.000  H
  H106     1.0000 0.09020  0.65580  0.73910  Biso   1.000  H
  H107     1.0000 0.59020  0.34420  0.76090  Biso   1.000  H
  H108     1.0000 0.90980  0.15580  0.76090  Biso   1.000  H
  C97      1.0000 0.44910  0.11240  0.21470  Biso   1.000  C
  C98      1.0000 0.05090  0.38760  0.21470  Biso   1.000  C
  C99      1.0000 0.55090  0.61240  0.28530  Biso   1.000  C
  C100     1.0000 0.94910  0.88760  0.28530  Biso   1.000  C
  C101     1.0000 0.55090  0.88760  0.78530  Biso   1.000  C
  C102     1.0000 0.94910  0.61240  0.78530  Biso   1.000  C
  C103     1.0000 0.44910  0.38760  0.71470  Biso   1.000  C
  C104     1.0000 0.05090  0.11240  0.71470  Biso   1.000  C
  C105     1.0000 0.39560  0.04740  0.20280  Biso   1.000  C
  C106     1.0000 0.10440  0.45260  0.20280  Biso   1.000  C
  C107     1.0000 0.60440  0.54740  0.29720  Biso   1.000  C
  C108     1.0000 0.89560  0.95260  0.29720  Biso   1.000  C
  C109     1.0000 0.60440  0.95260  0.79720  Biso   1.000  C
  C110     1.0000 0.89560  0.54740  0.79720  Biso   1.000  C
  C111     1.0000 0.39560  0.45260  0.70280  Biso   1.000  C
  C112     1.0000 0.10440  0.04740  0.70280  Biso   1.000  C
  H109     1.0000 0.33120  0.04320  0.17690  Biso   1.000  H
  H110     1.0000 0.16880  0.45680  0.17690  Biso   1.000  H
  H111     1.0000 0.66880  0.54320  0.32310  Biso   1.000  H
  H112     1.0000 0.83120  0.95680  0.32310  Biso   1.000  H
  H113     1.0000 0.66880  0.95680  0.82310  Biso   1.000  H
  H114     1.0000 0.83120  0.54320  0.82310  Biso   1.000  H
  H115     1.0000 0.33120  0.45680  0.67690  Biso   1.000  H
  H116     1.0000 0.16880  0.04320  0.67690  Biso   1.000  H
  C113     1.0000 0.43880  0.98990  0.22950  Biso   1.000  C
  C114     1.0000 0.06120  0.51010  0.22950  Biso   1.000  C
  C115     1.0000 0.56120  0.48990  0.27050  Biso   1.000  C
  C116     1.0000 0.93880  0.01010  0.27050  Biso   1.000  C
  C117     1.0000 0.56120  0.01010  0.77050  Biso   1.000  C
  C118     1.0000 0.93880  0.48990  0.77050  Biso   1.000  C
  C119     1.0000 0.43880  0.51010  0.72950  Biso   1.000  C
  C120     1.0000 0.06120  0.98990  0.72950  Biso   1.000  C
  H117     1.0000 0.40300  0.94680  0.22150  Biso   1.000  H
  H118     1.0000 0.09700  0.55320  0.22150  Biso   1.000  H
  H119     1.0000 0.59700  0.44680  0.27850  Biso   1.000  H
  H120     1.0000 0.90300  0.05320  0.27850  Biso   1.000  H
  H121     1.0000 0.59700  0.05320  0.77850  Biso   1.000  H
  H122     1.0000 0.90300  0.44680  0.77850  Biso   1.000  H
  H123     1.0000 0.40300  0.55320  0.72150  Biso   1.000  H
  H124     1.0000 0.09700  0.94680  0.72150  Biso   1.000  H
  C121     1.0000 0.86350  0.26330  0.02850  Biso   1.000  C
  C122     1.0000 0.63650  0.23670  0.02850  Biso   1.000  C
  C123     1.0000 0.13650  0.76330  0.47150  Biso   1.000  C
  C124     1.0000 0.36350  0.73670  0.47150  Biso   1.000  C
  C125     1.0000 0.13650  0.73670  0.97150  Biso   1.000  C
  C126     1.0000 0.36350  0.76330  0.97150  Biso   1.000  C
  C127     1.0000 0.86350  0.23670  0.52850  Biso   1.000  C
  C128     1.0000 0.63650  0.26330  0.52850  Biso   1.000  C
  H125     1.0000 0.94130  0.27220  0.00980  Biso   1.000  H
  H126     1.0000 0.55870  0.22780  0.00980  Biso   1.000  H
  H127     1.0000 0.05870  0.77220  0.49020  Biso   1.000  H
  H128     1.0000 0.44130  0.72780  0.49020  Biso   1.000  H
  H129     1.0000 0.05870  0.72780  0.99020  Biso   1.000  H
  H130     1.0000 0.44130  0.77220  0.99020  Biso   1.000  H
  H131     1.0000 0.94130  0.22780  0.50980  Biso   1.000  H
  H132     1.0000 0.55870  0.27220  0.50980  Biso   1.000  H
  C129     1.0000 0.86620  0.26400  0.08060  Biso   1.000  C
  C130     1.0000 0.63380  0.23600  0.08060  Biso   1.000  C
  C131     1.0000 0.13380  0.76400  0.41940  Biso   1.000  C
  C132     1.0000 0.36620  0.73600  0.41940  Biso   1.000  C
  C133     1.0000 0.13380  0.73600  0.91940  Biso   1.000  C
  C134     1.0000 0.36620  0.76400  0.91940  Biso   1.000  C
  C135     1.0000 0.86620  0.23600  0.58060  Biso   1.000  C
  C136     1.0000 0.63380  0.26400  0.58060  Biso   1.000  C
  H133     1.0000 0.94560  0.27370  0.09800  Biso   1.000  H
  H134     1.0000 0.55440  0.22630  0.09800  Biso   1.000  H
  H135     1.0000 0.05440  0.77370  0.40200  Biso   1.000  H
  H136     1.0000 0.44560  0.72630  0.40200  Biso   1.000  H
  H137     1.0000 0.05440  0.72630  0.90200  Biso   1.000  H
  H138     1.0000 0.44560  0.77370  0.90200  Biso   1.000  H
  H139     1.0000 0.94560  0.22630  0.59800  Biso   1.000  H
  H140     1.0000 0.55440  0.27370  0.59800  Biso   1.000  H
  C137     1.0000 0.75000  0.25000  0.10900  Biso   1.000  C
  C138     1.0000 0.25000  0.75000  0.39100  Biso   1.000  C
  C139     1.0000 0.25000  0.75000  0.89100  Biso   1.000  C
  C140     1.0000 0.75000  0.25000  0.60900  Biso   1.000  C
