data_image0
_cell_length_a       30.764
_cell_length_b       16.095
_cell_length_c       10.559
_cell_angle_alpha    90
_cell_angle_beta     90
_cell_angle_gamma    90

_symmetry_space_group_name_H-M    "P 1"
_symmetry_int_tables_number       1

loop_
  _symmetry_equiv_pos_as_xyz
  'x, y, z'

loop_
  _atom_site_label
  _atom_site_occupancy
  _atom_site_fract_x
  _atom_site_fract_y
  _atom_site_fract_z
  _atom_site_thermal_displace_type
  _atom_site_B_iso_or_equiv
  _atom_site_type_symbol
  Cu1      1.0000 0.28742  0.51801  0.37814  Biso   1.000  Cu
  Cu2      1.0000 0.71258  0.48199  0.87814  Biso   1.000  Cu
  Cu3      1.0000 0.71258  0.51801  0.12186  Biso   1.000  Cu
  Cu4      1.0000 0.28742  0.48199  0.62186  Biso   1.000  Cu
  Cu5      1.0000 0.78742  0.01801  0.37814  Biso   1.000  Cu
  Cu6      1.0000 0.21258  0.98199  0.87814  Biso   1.000  Cu
  Cu7      1.0000 0.21258  0.01801  0.12186  Biso   1.000  Cu
  Cu8      1.0000 0.78742  0.98199  0.62186  Biso   1.000  Cu
  Cu9      1.0000 0.71258  0.48199  0.62186  Biso   1.000  Cu
  Cu10     1.0000 0.28742  0.51801  0.12186  Biso   1.000  Cu
  Cu11     1.0000 0.28742  0.48199  0.87814  Biso   1.000  Cu
  Cu12     1.0000 0.71258  0.51801  0.37814  Biso   1.000  Cu
  Cu13     1.0000 0.21258  0.98199  0.62186  Biso   1.000  Cu
  Cu14     1.0000 0.78742  0.01801  0.12186  Biso   1.000  Cu
  Cu15     1.0000 0.78742  0.98199  0.87814  Biso   1.000  Cu
  Cu16     1.0000 0.21258  0.01801  0.37814  Biso   1.000  Cu
  I1       1.0000 0.20946  0.53531  0.25000  Biso   1.000  I
  I2       1.0000 0.79054  0.46469  0.75000  Biso   1.000  I
  I3       1.0000 0.79054  0.53531  0.25000  Biso   1.000  I
  I4       1.0000 0.20946  0.46469  0.75000  Biso   1.000  I
  I5       1.0000 0.70946  0.03531  0.25000  Biso   1.000  I
  I6       1.0000 0.29054  0.96469  0.75000  Biso   1.000  I
  I7       1.0000 0.29054  0.03531  0.25000  Biso   1.000  I
  I8       1.0000 0.70946  0.96469  0.75000  Biso   1.000  I
  S1       1.0000 0.27876  0.61591  0.54811  Biso   1.000  S
  S2       1.0000 0.72124  0.38409  0.04811  Biso   1.000  S
  S3       1.0000 0.72124  0.61591  0.95189  Biso   1.000  S
  S4       1.0000 0.27876  0.38409  0.45189  Biso   1.000  S
  S5       1.0000 0.77876  0.11591  0.54811  Biso   1.000  S
  S6       1.0000 0.22124  0.88409  0.04811  Biso   1.000  S
  S7       1.0000 0.22124  0.11591  0.95189  Biso   1.000  S
  S8       1.0000 0.77876  0.88409  0.45189  Biso   1.000  S
  S9       1.0000 0.72124  0.38409  0.45189  Biso   1.000  S
  S10      1.0000 0.27876  0.61591  0.95189  Biso   1.000  S
  S11      1.0000 0.27876  0.38409  0.04811  Biso   1.000  S
  S12      1.0000 0.72124  0.61591  0.54811  Biso   1.000  S
  S13      1.0000 0.22124  0.88409  0.45189  Biso   1.000  S
  S14      1.0000 0.77876  0.11591  0.95189  Biso   1.000  S
  S15      1.0000 0.77876  0.88409  0.04811  Biso   1.000  S
  S16      1.0000 0.22124  0.11591  0.54811  Biso   1.000  S
  S17      1.0000 0.34435  0.55989  0.25000  Biso   1.000  S
  S18      1.0000 0.65565  0.44011  0.75000  Biso   1.000  S
  S19      1.0000 0.65565  0.55989  0.25000  Biso   1.000  S
  S20      1.0000 0.34435  0.44011  0.75000  Biso   1.000  S
  S21      1.0000 0.84435  0.05989  0.25000  Biso   1.000  S
  S22      1.0000 0.15565  0.94011  0.75000  Biso   1.000  S
  S23      1.0000 0.15565  0.05989  0.25000  Biso   1.000  S
  S24      1.0000 0.84435  0.94011  0.75000  Biso   1.000  S
  N1       1.0000 0.39690  0.77060  0.58200  Biso   1.000  N
  N2       1.0000 0.60310  0.22940  0.08200  Biso   1.000  N
  N3       1.0000 0.60310  0.77060  0.91800  Biso   1.000  N
  N4       1.0000 0.39690  0.22940  0.41800  Biso   1.000  N
  N5       1.0000 0.89690  0.27060  0.58200  Biso   1.000  N
  N6       1.0000 0.10310  0.72940  0.08200  Biso   1.000  N
  N7       1.0000 0.10310  0.27060  0.91800  Biso   1.000  N
  N8       1.0000 0.89690  0.72940  0.41800  Biso   1.000  N
  N9       1.0000 0.60310  0.22940  0.41800  Biso   1.000  N
  N10      1.0000 0.39690  0.77060  0.91800  Biso   1.000  N
  N11      1.0000 0.39690  0.22940  0.08200  Biso   1.000  N
  N12      1.0000 0.60310  0.77060  0.58200  Biso   1.000  N
  N13      1.0000 0.10310  0.72940  0.41800  Biso   1.000  N
  N14      1.0000 0.89690  0.27060  0.91800  Biso   1.000  N
  N15      1.0000 0.89690  0.72940  0.08200  Biso   1.000  N
  N16      1.0000 0.10310  0.27060  0.58200  Biso   1.000  N
  H1       1.0000 0.41970  0.80230  0.58800  Biso   1.000  H
  H2       1.0000 0.58030  0.19770  0.08800  Biso   1.000  H
  H3       1.0000 0.58030  0.80230  0.91200  Biso   1.000  H
  H4       1.0000 0.41970  0.19770  0.41200  Biso   1.000  H
  H5       1.0000 0.91970  0.30230  0.58800  Biso   1.000  H
  H6       1.0000 0.08030  0.69770  0.08800  Biso   1.000  H
  H7       1.0000 0.08030  0.30230  0.91200  Biso   1.000  H
  H8       1.0000 0.91970  0.69770  0.41200  Biso   1.000  H
  H9       1.0000 0.58030  0.19770  0.41200  Biso   1.000  H
  H10      1.0000 0.41970  0.80230  0.91200  Biso   1.000  H
  H11      1.0000 0.41970  0.19770  0.08800  Biso   1.000  H
  H12      1.0000 0.58030  0.80230  0.58800  Biso   1.000  H
  H13      1.0000 0.08030  0.69770  0.41200  Biso   1.000  H
  H14      1.0000 0.91970  0.30230  0.91200  Biso   1.000  H
  H15      1.0000 0.91970  0.69770  0.08800  Biso   1.000  H
  H16      1.0000 0.08030  0.30230  0.58800  Biso   1.000  H
  N17      1.0000 0.34130  0.83820  0.25000  Biso   1.000  N
  N18      1.0000 0.65870  0.16180  0.75000  Biso   1.000  N
  N19      1.0000 0.65870  0.83820  0.25000  Biso   1.000  N
  N20      1.0000 0.34130  0.16180  0.75000  Biso   1.000  N
  N21      1.0000 0.84130  0.33820  0.25000  Biso   1.000  N
  N22      1.0000 0.15870  0.66180  0.75000  Biso   1.000  N
  N23      1.0000 0.15870  0.33820  0.25000  Biso   1.000  N
  N24      1.0000 0.84130  0.66180  0.75000  Biso   1.000  N
  H17      1.0000 0.34110  0.89230  0.25000  Biso   1.000  H
  H18      1.0000 0.65890  0.10770  0.75000  Biso   1.000  H
  H19      1.0000 0.65890  0.89230  0.25000  Biso   1.000  H
  H20      1.0000 0.34110  0.10770  0.75000  Biso   1.000  H
  H21      1.0000 0.84110  0.39230  0.25000  Biso   1.000  H
  H22      1.0000 0.15890  0.60770  0.75000  Biso   1.000  H
  H23      1.0000 0.15890  0.39230  0.25000  Biso   1.000  H
  H24      1.0000 0.84110  0.60770  0.75000  Biso   1.000  H
  C1       1.0000 0.40360  0.68560  0.57860  Biso   1.000  C
  C2       1.0000 0.59640  0.31440  0.07860  Biso   1.000  C
  C3       1.0000 0.59640  0.68560  0.92140  Biso   1.000  C
  C4       1.0000 0.40360  0.31440  0.42140  Biso   1.000  C
  C5       1.0000 0.90360  0.18560  0.57860  Biso   1.000  C
  C6       1.0000 0.09640  0.81440  0.07860  Biso   1.000  C
  C7       1.0000 0.09640  0.18560  0.92140  Biso   1.000  C
  C8       1.0000 0.90360  0.81440  0.42140  Biso   1.000  C
  C9       1.0000 0.59640  0.31440  0.42140  Biso   1.000  C
  C10      1.0000 0.40360  0.68560  0.92140  Biso   1.000  C
  C11      1.0000 0.40360  0.31440  0.07860  Biso   1.000  C
  C12      1.0000 0.59640  0.68560  0.57860  Biso   1.000  C
  C13      1.0000 0.09640  0.81440  0.42140  Biso   1.000  C
  C14      1.0000 0.90360  0.18560  0.92140  Biso   1.000  C
  C15      1.0000 0.90360  0.81440  0.07860  Biso   1.000  C
  C16      1.0000 0.09640  0.18560  0.57860  Biso   1.000  C
  H25      1.0000 0.43170  0.66240  0.58180  Biso   1.000  H
  H26      1.0000 0.56830  0.33760  0.08180  Biso   1.000  H
  H27      1.0000 0.56830  0.66240  0.91820  Biso   1.000  H
  H28      1.0000 0.43170  0.33760  0.41820  Biso   1.000  H
  H29      1.0000 0.93170  0.16240  0.58180  Biso   1.000  H
  H30      1.0000 0.06830  0.83760  0.08180  Biso   1.000  H
  H31      1.0000 0.06830  0.16240  0.91820  Biso   1.000  H
  H32      1.0000 0.93170  0.83760  0.41820  Biso   1.000  H
  H33      1.0000 0.56830  0.33760  0.41820  Biso   1.000  H
  H34      1.0000 0.43170  0.66240  0.91820  Biso   1.000  H
  H35      1.0000 0.43170  0.33760  0.08180  Biso   1.000  H
  H36      1.0000 0.56830  0.66240  0.58180  Biso   1.000  H
  H37      1.0000 0.06830  0.83760  0.41820  Biso   1.000  H
  H38      1.0000 0.93170  0.16240  0.91820  Biso   1.000  H
  H39      1.0000 0.93170  0.83760  0.08180  Biso   1.000  H
  H40      1.0000 0.06830  0.16240  0.58180  Biso   1.000  H
  C17      1.0000 0.36660  0.63660  0.57020  Biso   1.000  C
  C18      1.0000 0.63340  0.36340  0.07020  Biso   1.000  C
  C19      1.0000 0.63340  0.63660  0.92980  Biso   1.000  C
  C20      1.0000 0.36660  0.36340  0.42980  Biso   1.000  C
  C21      1.0000 0.86660  0.13660  0.57020  Biso   1.000  C
  C22      1.0000 0.13340  0.86340  0.07020  Biso   1.000  C
  C23      1.0000 0.13340  0.13660  0.92980  Biso   1.000  C
  C24      1.0000 0.86660  0.86340  0.42980  Biso   1.000  C
  C25      1.0000 0.63340  0.36340  0.42980  Biso   1.000  C
  C26      1.0000 0.36660  0.63660  0.92980  Biso   1.000  C
  C27      1.0000 0.36660  0.36340  0.07020  Biso   1.000  C
  C28      1.0000 0.63340  0.63660  0.57020  Biso   1.000  C
  C29      1.0000 0.13340  0.86340  0.42980  Biso   1.000  C
  C30      1.0000 0.86660  0.13660  0.92980  Biso   1.000  C
  C31      1.0000 0.86660  0.86340  0.07020  Biso   1.000  C
  C32      1.0000 0.13340  0.13660  0.57020  Biso   1.000  C
  H41      1.0000 0.36930  0.57840  0.56910  Biso   1.000  H
  H42      1.0000 0.63070  0.42160  0.06910  Biso   1.000  H
  H43      1.0000 0.63070  0.57840  0.93090  Biso   1.000  H
  H44      1.0000 0.36930  0.42160  0.43090  Biso   1.000  H
  H45      1.0000 0.86930  0.07840  0.56910  Biso   1.000  H
  H46      1.0000 0.13070  0.92160  0.06910  Biso   1.000  H
  H47      1.0000 0.13070  0.07840  0.93090  Biso   1.000  H
  H48      1.0000 0.86930  0.92160  0.43090  Biso   1.000  H
  H49      1.0000 0.63070  0.42160  0.43090  Biso   1.000  H
  H50      1.0000 0.36930  0.57840  0.93090  Biso   1.000  H
  H51      1.0000 0.36930  0.42160  0.06910  Biso   1.000  H
  H52      1.0000 0.63070  0.57840  0.56910  Biso   1.000  H
  H53      1.0000 0.13070  0.92160  0.43090  Biso   1.000  H
  H54      1.0000 0.86930  0.07840  0.93090  Biso   1.000  H
  H55      1.0000 0.86930  0.92160  0.06910  Biso   1.000  H
  H56      1.0000 0.13070  0.07840  0.56910  Biso   1.000  H
  C33      1.0000 0.32590  0.67270  0.56340  Biso   1.000  C
  C34      1.0000 0.67410  0.32730  0.06340  Biso   1.000  C
  C35      1.0000 0.67410  0.67270  0.93660  Biso   1.000  C
  C36      1.0000 0.32590  0.32730  0.43660  Biso   1.000  C
  C37      1.0000 0.82590  0.17270  0.56340  Biso   1.000  C
  C38      1.0000 0.17410  0.82730  0.06340  Biso   1.000  C
  C39      1.0000 0.17410  0.17270  0.93660  Biso   1.000  C
  C40      1.0000 0.82590  0.82730  0.43660  Biso   1.000  C
  C41      1.0000 0.67410  0.32730  0.43660  Biso   1.000  C
  C42      1.0000 0.32590  0.67270  0.93660  Biso   1.000  C
  C43      1.0000 0.32590  0.32730  0.06340  Biso   1.000  C
  C44      1.0000 0.67410  0.67270  0.56340  Biso   1.000  C
  C45      1.0000 0.17410  0.82730  0.43660  Biso   1.000  C
  C46      1.0000 0.82590  0.17270  0.93660  Biso   1.000  C
  C47      1.0000 0.82590  0.82730  0.06340  Biso   1.000  C
  C48      1.0000 0.17410  0.17270  0.56340  Biso   1.000  C
  C49      1.0000 0.32350  0.76070  0.56780  Biso   1.000  C
  C50      1.0000 0.67650  0.23930  0.06780  Biso   1.000  C
  C51      1.0000 0.67650  0.76070  0.93220  Biso   1.000  C
  C52      1.0000 0.32350  0.23930  0.43220  Biso   1.000  C
  C53      1.0000 0.82350  0.26070  0.56780  Biso   1.000  C
  C54      1.0000 0.17650  0.73930  0.06780  Biso   1.000  C
  C55      1.0000 0.17650  0.26070  0.93220  Biso   1.000  C
  C56      1.0000 0.82350  0.73930  0.43220  Biso   1.000  C
  C57      1.0000 0.67650  0.23930  0.43220  Biso   1.000  C
  C58      1.0000 0.32350  0.76070  0.93220  Biso   1.000  C
  C59      1.0000 0.32350  0.23930  0.06780  Biso   1.000  C
  C60      1.0000 0.67650  0.76070  0.56780  Biso   1.000  C
  C61      1.0000 0.17650  0.73930  0.43220  Biso   1.000  C
  C62      1.0000 0.82350  0.26070  0.93220  Biso   1.000  C
  C63      1.0000 0.82350  0.73930  0.06780  Biso   1.000  C
  C64      1.0000 0.17650  0.26070  0.56780  Biso   1.000  C
  H57      1.0000 0.29620  0.78680  0.56420  Biso   1.000  H
  H58      1.0000 0.70380  0.21320  0.06420  Biso   1.000  H
  H59      1.0000 0.70380  0.78680  0.93580  Biso   1.000  H
  H60      1.0000 0.29620  0.21320  0.43580  Biso   1.000  H
  H61      1.0000 0.79620  0.28680  0.56420  Biso   1.000  H
  H62      1.0000 0.20380  0.71320  0.06420  Biso   1.000  H
  H63      1.0000 0.20380  0.28680  0.93580  Biso   1.000  H
  H64      1.0000 0.79620  0.71320  0.43580  Biso   1.000  H
  H65      1.0000 0.70380  0.21320  0.43580  Biso   1.000  H
  H66      1.0000 0.29620  0.78680  0.93580  Biso   1.000  H
  H67      1.0000 0.29620  0.21320  0.06420  Biso   1.000  H
  H68      1.0000 0.70380  0.78680  0.56420  Biso   1.000  H
  H69      1.0000 0.20380  0.71320  0.43580  Biso   1.000  H
  H70      1.0000 0.79620  0.28680  0.93580  Biso   1.000  H
  H71      1.0000 0.79620  0.71320  0.06420  Biso   1.000  H
  H72      1.0000 0.20380  0.28680  0.56420  Biso   1.000  H
  C65      1.0000 0.35920  0.80680  0.57690  Biso   1.000  C
  C66      1.0000 0.64080  0.19320  0.07690  Biso   1.000  C
  C67      1.0000 0.64080  0.80680  0.92310  Biso   1.000  C
  C68      1.0000 0.35920  0.19320  0.42310  Biso   1.000  C
  C69      1.0000 0.85920  0.30680  0.57690  Biso   1.000  C
  C70      1.0000 0.14080  0.69320  0.07690  Biso   1.000  C
  C71      1.0000 0.14080  0.30680  0.92310  Biso   1.000  C
  C72      1.0000 0.85920  0.69320  0.42310  Biso   1.000  C
  C73      1.0000 0.64080  0.19320  0.42310  Biso   1.000  C
  C74      1.0000 0.35920  0.80680  0.92310  Biso   1.000  C
  C75      1.0000 0.35920  0.19320  0.07690  Biso   1.000  C
  C76      1.0000 0.64080  0.80680  0.57690  Biso   1.000  C
  C77      1.0000 0.14080  0.69320  0.42310  Biso   1.000  C
  C78      1.0000 0.85920  0.30680  0.92310  Biso   1.000  C
  C79      1.0000 0.85920  0.69320  0.07690  Biso   1.000  C
  C80      1.0000 0.14080  0.30680  0.57690  Biso   1.000  C
  H73      1.0000 0.35710  0.86510  0.57970  Biso   1.000  H
  H74      1.0000 0.64290  0.13490  0.07970  Biso   1.000  H
  H75      1.0000 0.64290  0.86510  0.92030  Biso   1.000  H
  H76      1.0000 0.35710  0.13490  0.42030  Biso   1.000  H
  H77      1.0000 0.85710  0.36510  0.57970  Biso   1.000  H
  H78      1.0000 0.14290  0.63490  0.07970  Biso   1.000  H
  H79      1.0000 0.14290  0.36510  0.92030  Biso   1.000  H
  H80      1.0000 0.85710  0.63490  0.42030  Biso   1.000  H
  H81      1.0000 0.64290  0.13490  0.42030  Biso   1.000  H
  H82      1.0000 0.35710  0.86510  0.92030  Biso   1.000  H
  H83      1.0000 0.35710  0.13490  0.07970  Biso   1.000  H
  H84      1.0000 0.64290  0.86510  0.57970  Biso   1.000  H
  H85      1.0000 0.14290  0.63490  0.42030  Biso   1.000  H
  H86      1.0000 0.85710  0.36510  0.92030  Biso   1.000  H
  H87      1.0000 0.85710  0.63490  0.07970  Biso   1.000  H
  H88      1.0000 0.14290  0.36510  0.57970  Biso   1.000  H
  C81      1.0000 0.37950  0.79780  0.25000  Biso   1.000  C
  C82      1.0000 0.62050  0.20220  0.75000  Biso   1.000  C
  C83      1.0000 0.62050  0.79780  0.25000  Biso   1.000  C
  C84      1.0000 0.37950  0.20220  0.75000  Biso   1.000  C
  C85      1.0000 0.87950  0.29780  0.25000  Biso   1.000  C
  C86      1.0000 0.12050  0.70220  0.75000  Biso   1.000  C
  C87      1.0000 0.12050  0.29780  0.25000  Biso   1.000  C
  C88      1.0000 0.87950  0.70220  0.75000  Biso   1.000  C
  H89      1.0000 0.40560  0.82820  0.25000  Biso   1.000  H
  H90      1.0000 0.59440  0.17180  0.75000  Biso   1.000  H
  H91      1.0000 0.59440  0.82820  0.25000  Biso   1.000  H
  H92      1.0000 0.40560  0.17180  0.75000  Biso   1.000  H
  H93      1.0000 0.90560  0.32820  0.25000  Biso   1.000  H
  H94      1.0000 0.09440  0.67180  0.75000  Biso   1.000  H
  H95      1.0000 0.09440  0.32820  0.25000  Biso   1.000  H
  H96      1.0000 0.90560  0.67180  0.75000  Biso   1.000  H
  C89      1.0000 0.38090  0.71480  0.25000  Biso   1.000  C
  C90      1.0000 0.61910  0.28520  0.75000  Biso   1.000  C
  C91      1.0000 0.61910  0.71480  0.25000  Biso   1.000  C
  C92      1.0000 0.38090  0.28520  0.75000  Biso   1.000  C
  C93      1.0000 0.88090  0.21480  0.25000  Biso   1.000  C
  C94      1.0000 0.11910  0.78520  0.75000  Biso   1.000  C
  C95      1.0000 0.11910  0.21480  0.25000  Biso   1.000  C
  C96      1.0000 0.88090  0.78520  0.75000  Biso   1.000  C
  H97      1.0000 0.40800  0.68780  0.25000  Biso   1.000  H
  H98      1.0000 0.59200  0.31220  0.75000  Biso   1.000  H
  H99      1.0000 0.59200  0.68780  0.25000  Biso   1.000  H
  H100     1.0000 0.40800  0.31220  0.75000  Biso   1.000  H
  H101     1.0000 0.90800  0.18780  0.25000  Biso   1.000  H
  H102     1.0000 0.09200  0.81220  0.75000  Biso   1.000  H
  H103     1.0000 0.09200  0.18780  0.25000  Biso   1.000  H
  H104     1.0000 0.90800  0.81220  0.75000  Biso   1.000  H
  C97      1.0000 0.34250  0.66680  0.25000  Biso   1.000  C
  C98      1.0000 0.65750  0.33320  0.75000  Biso   1.000  C
  C99      1.0000 0.65750  0.66680  0.25000  Biso   1.000  C
  C100     1.0000 0.34250  0.33320  0.75000  Biso   1.000  C
  C101     1.0000 0.84250  0.16680  0.25000  Biso   1.000  C
  C102     1.0000 0.15750  0.83320  0.75000  Biso   1.000  C
  C103     1.0000 0.15750  0.16680  0.25000  Biso   1.000  C
  C104     1.0000 0.84250  0.83320  0.75000  Biso   1.000  C
  C105     1.0000 0.30290  0.71250  0.25000  Biso   1.000  C
  C106     1.0000 0.69710  0.28750  0.75000  Biso   1.000  C
  C107     1.0000 0.69710  0.71250  0.25000  Biso   1.000  C
  C108     1.0000 0.30290  0.28750  0.75000  Biso   1.000  C
  C109     1.0000 0.80290  0.21250  0.25000  Biso   1.000  C
  C110     1.0000 0.19710  0.78750  0.75000  Biso   1.000  C
  C111     1.0000 0.19710  0.21250  0.25000  Biso   1.000  C
  C112     1.0000 0.80290  0.78750  0.75000  Biso   1.000  C
  H105     1.0000 0.27610  0.68430  0.25000  Biso   1.000  H
  H106     1.0000 0.72390  0.31570  0.75000  Biso   1.000  H
  H107     1.0000 0.72390  0.68430  0.25000  Biso   1.000  H
  H108     1.0000 0.27610  0.31570  0.75000  Biso   1.000  H
  H109     1.0000 0.77610  0.18430  0.25000  Biso   1.000  H
  H110     1.0000 0.22390  0.81570  0.75000  Biso   1.000  H
  H111     1.0000 0.22390  0.18430  0.25000  Biso   1.000  H
  H112     1.0000 0.77610  0.81570  0.75000  Biso   1.000  H
  C113     1.0000 0.30370  0.79650  0.25000  Biso   1.000  C
  C114     1.0000 0.69630  0.20350  0.75000  Biso   1.000  C
  C115     1.0000 0.69630  0.79650  0.25000  Biso   1.000  C
  C116     1.0000 0.30370  0.20350  0.75000  Biso   1.000  C
  C117     1.0000 0.80370  0.29650  0.25000  Biso   1.000  C
  C118     1.0000 0.19630  0.70350  0.75000  Biso   1.000  C
  C119     1.0000 0.19630  0.29650  0.25000  Biso   1.000  C
  C120     1.0000 0.80370  0.70350  0.75000  Biso   1.000  C
  H113     1.0000 0.27740  0.82610  0.25000  Biso   1.000  H
  H114     1.0000 0.72260  0.17390  0.75000  Biso   1.000  H
  H115     1.0000 0.72260  0.82610  0.25000  Biso   1.000  H
  H116     1.0000 0.27740  0.17390  0.75000  Biso   1.000  H
  H117     1.0000 0.77740  0.32610  0.25000  Biso   1.000  H
  H118     1.0000 0.22260  0.67390  0.75000  Biso   1.000  H
  H119     1.0000 0.22260  0.32610  0.25000  Biso   1.000  H
  H120     1.0000 0.77740  0.67390  0.75000  Biso   1.000  H
  I9       1.0000 0.50000  0.19840  0.25000  Biso   1.000  I
  I10      1.0000 0.50000  0.80160  0.75000  Biso   1.000  I
  I11      1.0000 0.00000  0.69840  0.25000  Biso   1.000  I
  I12      1.0000 0.00000  0.30160  0.75000  Biso   1.000  I
  I13      1.0000 0.50000  0.14320  0.25000  Biso   1.000  I
  I14      1.0000 0.50000  0.85680  0.75000  Biso   1.000  I
  I15      1.0000 0.00000  0.64320  0.25000  Biso   1.000  I
  I16      1.0000 0.00000  0.35680  0.75000  Biso   1.000  I
  I17      1.0000 0.42680  0.00680  0.53590  Biso   1.000  I
  I18      1.0000 0.57320  0.99320  0.03590  Biso   1.000  I
  I19      1.0000 0.57320  0.00680  0.96410  Biso   1.000  I
  I20      1.0000 0.42680  0.99320  0.46410  Biso   1.000  I
  I21      1.0000 0.92680  0.50680  0.53590  Biso   1.000  I
  I22      1.0000 0.07320  0.49320  0.03590  Biso   1.000  I
  I23      1.0000 0.07320  0.50680  0.96410  Biso   1.000  I
  I24      1.0000 0.92680  0.49320  0.46410  Biso   1.000  I
  I25      1.0000 0.57320  0.99320  0.46410  Biso   1.000  I
  I26      1.0000 0.42680  0.00680  0.96410  Biso   1.000  I
  I27      1.0000 0.42680  0.99320  0.03590  Biso   1.000  I
  I28      1.0000 0.57320  0.00680  0.53590  Biso   1.000  I
  I29      1.0000 0.07320  0.49320  0.46410  Biso   1.000  I
  I30      1.0000 0.92680  0.50680  0.96410  Biso   1.000  I
  I31      1.0000 0.92680  0.49320  0.03590  Biso   1.000  I
  I32      1.0000 0.07320  0.50680  0.53590  Biso   1.000  I
  I33      1.0000 0.50000  0.24220  0.62790  Biso   1.000  I
  I34      1.0000 0.50000  0.75780  0.12790  Biso   1.000  I
  I35      1.0000 0.50000  0.24220  0.87210  Biso   1.000  I
  I36      1.0000 0.50000  0.75780  0.37210  Biso   1.000  I
  I37      1.0000 0.00000  0.74220  0.62790  Biso   1.000  I
  I38      1.0000 0.00000  0.25780  0.12790  Biso   1.000  I
  I39      1.0000 0.00000  0.74220  0.87210  Biso   1.000  I
  I40      1.0000 0.00000  0.25780  0.37210  Biso   1.000  I
  I41      1.0000 0.50000  0.09240  0.50300  Biso   1.000  I
  I42      1.0000 0.50000  0.90760  0.00300  Biso   1.000  I
  I43      1.0000 0.50000  0.09240  0.99700  Biso   1.000  I
  I44      1.0000 0.50000  0.90760  0.49700  Biso   1.000  I
  I45      1.0000 0.00000  0.59240  0.50300  Biso   1.000  I
  I46      1.0000 0.00000  0.40760  0.00300  Biso   1.000  I
  I47      1.0000 0.00000  0.59240  0.99700  Biso   1.000  I
  I48      1.0000 0.00000  0.40760  0.49700  Biso   1.000  I
  I49      1.0000 0.50000  0.42670  0.25000  Biso   1.000  I
  I50      1.0000 0.50000  0.57330  0.75000  Biso   1.000  I
  I51      1.0000 0.00000  0.92670  0.25000  Biso   1.000  I
  I52      1.0000 0.00000  0.07330  0.75000  Biso   1.000  I
  I53      1.0000 0.42610  0.00000  0.50000  Biso   1.000  I
  I54      1.0000 0.57390  0.00000  0.00000  Biso   1.000  I
  I55      1.0000 0.92610  0.50000  0.50000  Biso   1.000  I
  I56      1.0000 0.07390  0.50000  0.00000  Biso   1.000  I
  I57      1.0000 0.57390  0.00000  0.50000  Biso   1.000  I
  I58      1.0000 0.42610  0.00000  0.00000  Biso   1.000  I
  I59      1.0000 0.07390  0.50000  0.50000  Biso   1.000  I
  I60      1.0000 0.92610  0.50000  0.00000  Biso   1.000  I
  I61      1.0000 0.42880  0.00710  0.58360  Biso   1.000  I
  I62      1.0000 0.57120  0.99290  0.08360  Biso   1.000  I
  I63      1.0000 0.57120  0.00710  0.91640  Biso   1.000  I
  I64      1.0000 0.42880  0.99290  0.41640  Biso   1.000  I
  I65      1.0000 0.92880  0.50710  0.58360  Biso   1.000  I
  I66      1.0000 0.07120  0.49290  0.08360  Biso   1.000  I
  I67      1.0000 0.07120  0.50710  0.91640  Biso   1.000  I
  I68      1.0000 0.92880  0.49290  0.41640  Biso   1.000  I
  I69      1.0000 0.57120  0.99290  0.41640  Biso   1.000  I
  I70      1.0000 0.42880  0.00710  0.91640  Biso   1.000  I
  I71      1.0000 0.42880  0.99290  0.08360  Biso   1.000  I
  I72      1.0000 0.57120  0.00710  0.58360  Biso   1.000  I
  I73      1.0000 0.07120  0.49290  0.41640  Biso   1.000  I
  I74      1.0000 0.92880  0.50710  0.91640  Biso   1.000  I
  I75      1.0000 0.92880  0.49290  0.08360  Biso   1.000  I
  I76      1.0000 0.07120  0.50710  0.58360  Biso   1.000  I
  I77      1.0000 0.50000  0.13610  0.19900  Biso   1.000  I
  I78      1.0000 0.50000  0.86390  0.69900  Biso   1.000  I
  I79      1.0000 0.50000  0.13610  0.30100  Biso   1.000  I
  I80      1.0000 0.50000  0.86390  0.80100  Biso   1.000  I
  I81      1.0000 0.00000  0.63610  0.19900  Biso   1.000  I
  I82      1.0000 0.00000  0.36390  0.69900  Biso   1.000  I
  I83      1.0000 0.00000  0.63610  0.30100  Biso   1.000  I
  I84      1.0000 0.00000  0.36390  0.80100  Biso   1.000  I
  I85      1.0000 0.50000  0.24300  0.25000  Biso   1.000  I
  I86      1.0000 0.50000  0.75700  0.75000  Biso   1.000  I
  I87      1.0000 0.00000  0.74300  0.25000  Biso   1.000  I
  I88      1.0000 0.00000  0.25700  0.75000  Biso   1.000  I
  I89      1.0000 0.50000  0.22700  0.67520  Biso   1.000  I
  I90      1.0000 0.50000  0.77300  0.17520  Biso   1.000  I
  I91      1.0000 0.50000  0.22700  0.82480  Biso   1.000  I
  I92      1.0000 0.50000  0.77300  0.32480  Biso   1.000  I
  I93      1.0000 0.00000  0.72700  0.67520  Biso   1.000  I
  I94      1.0000 0.00000  0.27300  0.17520  Biso   1.000  I
  I95      1.0000 0.00000  0.72700  0.82480  Biso   1.000  I
  I96      1.0000 0.00000  0.27300  0.32480  Biso   1.000  I
  I97      1.0000 0.50000  0.55100  0.25000  Biso   1.000  I
  I98      1.0000 0.50000  0.44900  0.75000  Biso   1.000  I
  I99      1.0000 0.00000  0.05100  0.25000  Biso   1.000  I
  I100     1.0000 0.00000  0.94900  0.75000  Biso   1.000  I
  I101     1.0000 0.50000  0.47470  0.99600  Biso   1.000  I
  I102     1.0000 0.50000  0.52530  0.49600  Biso   1.000  I
  I103     1.0000 0.50000  0.47470  0.50400  Biso   1.000  I
  I104     1.0000 0.50000  0.52530  0.00400  Biso   1.000  I
  I105     1.0000 0.00000  0.97470  0.99600  Biso   1.000  I
  I106     1.0000 0.00000  0.02530  0.49600  Biso   1.000  I
  I107     1.0000 0.00000  0.97470  0.50400  Biso   1.000  I
  I108     1.0000 0.00000  0.02530  0.00400  Biso   1.000  I
  I109     1.0000 0.50000  0.16880  0.22300  Biso   1.000  I
  I110     1.0000 0.50000  0.83120  0.72300  Biso   1.000  I
  I111     1.0000 0.50000  0.16880  0.27700  Biso   1.000  I
  I112     1.0000 0.50000  0.83120  0.77700  Biso   1.000  I
  I113     1.0000 0.00000  0.66880  0.22300  Biso   1.000  I
  I114     1.0000 0.00000  0.33120  0.72300  Biso   1.000  I
  I115     1.0000 0.00000  0.66880  0.27700  Biso   1.000  I
  I116     1.0000 0.00000  0.33120  0.77700  Biso   1.000  I
  I117     1.0000 0.50000  0.20910  0.62910  Biso   1.000  I
  I118     1.0000 0.50000  0.79090  0.12910  Biso   1.000  I
  I119     1.0000 0.50000  0.20910  0.87090  Biso   1.000  I
  I120     1.0000 0.50000  0.79090  0.37090  Biso   1.000  I
  I121     1.0000 0.00000  0.70910  0.62910  Biso   1.000  I
  I122     1.0000 0.00000  0.29090  0.12910  Biso   1.000  I
  I123     1.0000 0.00000  0.70910  0.87090  Biso   1.000  I
  I124     1.0000 0.00000  0.29090  0.37090  Biso   1.000  I
  I125     1.0000 0.50000  0.21700  0.22320  Biso   1.000  I
  I126     1.0000 0.50000  0.78300  0.72320  Biso   1.000  I
  I127     1.0000 0.50000  0.21700  0.27680  Biso   1.000  I
  I128     1.0000 0.50000  0.78300  0.77680  Biso   1.000  I
  I129     1.0000 0.00000  0.71700  0.22320  Biso   1.000  I
  I130     1.0000 0.00000  0.28300  0.72320  Biso   1.000  I
  I131     1.0000 0.00000  0.71700  0.27680  Biso   1.000  I
  I132     1.0000 0.00000  0.28300  0.77680  Biso   1.000  I
