data_image0
_cell_length_a       15.6543
_cell_length_b       15.6543
_cell_length_c       13.5978
_cell_angle_alpha    90
_cell_angle_beta     90
_cell_angle_gamma    90

_symmetry_space_group_name_H-M    "P 1"
_symmetry_int_tables_number       1

loop_
  _symmetry_equiv_pos_as_xyz
  'x, y, z'

loop_
  _atom_site_label
  _atom_site_occupancy
  _atom_site_fract_x
  _atom_site_fract_y
  _atom_site_fract_z
  _atom_site_thermal_displace_type
  _atom_site_B_iso_or_equiv
  _atom_site_type_symbol
  I1       1.0000 0.60966  0.19324  0.06149  Biso   1.000  I
  I2       1.0000 0.80676  0.10966  0.31149  Biso   1.000  I
  I3       1.0000 0.39034  0.80676  0.06149  Biso   1.000  I
  I4       1.0000 0.19324  0.89034  0.31149  Biso   1.000  I
  I5       1.0000 0.39034  0.30676  0.18851  Biso   1.000  I
  I6       1.0000 0.19324  0.39034  0.93851  Biso   1.000  I
  I7       1.0000 0.60966  0.69324  0.18851  Biso   1.000  I
  I8       1.0000 0.80676  0.60966  0.93851  Biso   1.000  I
  I9       1.0000 0.10966  0.69324  0.56149  Biso   1.000  I
  I10      1.0000 0.30676  0.60966  0.81149  Biso   1.000  I
  I11      1.0000 0.89034  0.30676  0.56149  Biso   1.000  I
  I12      1.0000 0.69324  0.39034  0.81149  Biso   1.000  I
  I13      1.0000 0.89034  0.80676  0.68851  Biso   1.000  I
  I14      1.0000 0.69324  0.89034  0.43851  Biso   1.000  I
  I15      1.0000 0.10966  0.19324  0.68851  Biso   1.000  I
  I16      1.0000 0.30676  0.10966  0.43851  Biso   1.000  I
  I17      1.0000 0.50000  0.00000  0.90549  Biso   1.000  I
  I18      1.0000 0.00000  0.00000  0.15549  Biso   1.000  I
  I19      1.0000 0.50000  0.50000  0.34451  Biso   1.000  I
  I20      1.0000 0.00000  0.50000  0.09451  Biso   1.000  I
  I21      1.0000 0.00000  0.50000  0.40549  Biso   1.000  I
  I22      1.0000 0.50000  0.50000  0.65549  Biso   1.000  I
  I23      1.0000 0.00000  0.00000  0.84451  Biso   1.000  I
  I24      1.0000 0.50000  0.00000  0.59451  Biso   1.000  I
  Cu1      1.0000 0.52826  0.33525  0.04165  Biso   1.000  Cu
  Cu2      1.0000 0.66475  0.02826  0.29165  Biso   1.000  Cu
  Cu3      1.0000 0.47174  0.66475  0.04165  Biso   1.000  Cu
  Cu4      1.0000 0.33525  0.97174  0.29165  Biso   1.000  Cu
  Cu5      1.0000 0.47174  0.16475  0.20835  Biso   1.000  Cu
  Cu6      1.0000 0.33525  0.47174  0.95835  Biso   1.000  Cu
  Cu7      1.0000 0.52826  0.83525  0.20835  Biso   1.000  Cu
  Cu8      1.0000 0.66475  0.52826  0.95835  Biso   1.000  Cu
  Cu9      1.0000 0.02826  0.83525  0.54165  Biso   1.000  Cu
  Cu10     1.0000 0.16475  0.52826  0.79165  Biso   1.000  Cu
  Cu11     1.0000 0.97174  0.16475  0.54165  Biso   1.000  Cu
  Cu12     1.0000 0.83525  0.47174  0.79165  Biso   1.000  Cu
  Cu13     1.0000 0.97174  0.66475  0.70835  Biso   1.000  Cu
  Cu14     1.0000 0.83525  0.97174  0.45835  Biso   1.000  Cu
  Cu15     1.0000 0.02826  0.33525  0.70835  Biso   1.000  Cu
  Cu16     1.0000 0.16475  0.02826  0.45835  Biso   1.000  Cu
  Cu17     1.0000 0.51950  0.03780  0.08729  Biso   1.000  Cu
  Cu18     1.0000 0.96220  0.01950  0.33729  Biso   1.000  Cu
  Cu19     1.0000 0.48050  0.96220  0.08729  Biso   1.000  Cu
  Cu20     1.0000 0.03780  0.98050  0.33729  Biso   1.000  Cu
  Cu21     1.0000 0.48050  0.46220  0.16271  Biso   1.000  Cu
  Cu22     1.0000 0.03780  0.48050  0.91271  Biso   1.000  Cu
  Cu23     1.0000 0.51950  0.53780  0.16271  Biso   1.000  Cu
  Cu24     1.0000 0.96220  0.51950  0.91271  Biso   1.000  Cu
  Cu25     1.0000 0.01950  0.53780  0.58729  Biso   1.000  Cu
  Cu26     1.0000 0.46220  0.51950  0.83729  Biso   1.000  Cu
  Cu27     1.0000 0.98050  0.46220  0.58729  Biso   1.000  Cu
  Cu28     1.0000 0.53780  0.48050  0.83729  Biso   1.000  Cu
  Cu29     1.0000 0.98050  0.96220  0.66271  Biso   1.000  Cu
  Cu30     1.0000 0.53780  0.98050  0.41271  Biso   1.000  Cu
  Cu31     1.0000 0.01950  0.03780  0.66271  Biso   1.000  Cu
  Cu32     1.0000 0.46220  0.01950  0.41271  Biso   1.000  Cu
  S1       1.0000 0.61107  0.44882  0.08539  Biso   1.000  S
  S2       1.0000 0.55118  0.11107  0.33539  Biso   1.000  S
  S3       1.0000 0.38893  0.55118  0.08539  Biso   1.000  S
  S4       1.0000 0.44882  0.88893  0.33539  Biso   1.000  S
  S5       1.0000 0.38893  0.05118  0.16461  Biso   1.000  S
  S6       1.0000 0.44882  0.38893  0.91461  Biso   1.000  S
  S7       1.0000 0.61107  0.94882  0.16461  Biso   1.000  S
  S8       1.0000 0.55118  0.61107  0.91461  Biso   1.000  S
  S9       1.0000 0.11107  0.94882  0.58539  Biso   1.000  S
  S10      1.0000 0.05118  0.61107  0.83539  Biso   1.000  S
  S11      1.0000 0.88893  0.05118  0.58539  Biso   1.000  S
  S12      1.0000 0.94882  0.38893  0.83539  Biso   1.000  S
  S13      1.0000 0.88893  0.55118  0.66461  Biso   1.000  S
  S14      1.0000 0.94882  0.88893  0.41461  Biso   1.000  S
  S15      1.0000 0.11107  0.44882  0.66461  Biso   1.000  S
  S16      1.0000 0.05118  0.11107  0.41461  Biso   1.000  S
  C1       1.0000 0.68306  0.42684  0.17890  Biso   1.000  C
  C2       1.0000 0.57316  0.18306  0.42890  Biso   1.000  C
  C3       1.0000 0.31694  0.57316  0.17890  Biso   1.000  C
  C4       1.0000 0.42684  0.81694  0.42890  Biso   1.000  C
  C5       1.0000 0.31694  0.07316  0.07110  Biso   1.000  C
  C6       1.0000 0.42684  0.31694  0.82110  Biso   1.000  C
  C7       1.0000 0.68306  0.92684  0.07110  Biso   1.000  C
  C8       1.0000 0.57316  0.68306  0.82110  Biso   1.000  C
  C9       1.0000 0.18306  0.92684  0.67890  Biso   1.000  C
  C10      1.0000 0.07316  0.68306  0.92890  Biso   1.000  C
  C11      1.0000 0.81694  0.07316  0.67890  Biso   1.000  C
  C12      1.0000 0.92684  0.31694  0.92890  Biso   1.000  C
  C13      1.0000 0.81694  0.57316  0.57110  Biso   1.000  C
  C14      1.0000 0.92684  0.81694  0.32110  Biso   1.000  C
  C15      1.0000 0.18306  0.42684  0.57110  Biso   1.000  C
  C16      1.0000 0.07316  0.18306  0.32110  Biso   1.000  C
  C17      1.0000 0.75820  0.47580  0.18740  Biso   1.000  C
  C18      1.0000 0.52420  0.25820  0.43740  Biso   1.000  C
  C19      1.0000 0.24180  0.52420  0.18740  Biso   1.000  C
  C20      1.0000 0.47580  0.74180  0.43740  Biso   1.000  C
  C21      1.0000 0.24180  0.02420  0.06260  Biso   1.000  C
  C22      1.0000 0.47580  0.24180  0.81260  Biso   1.000  C
  C23      1.0000 0.75820  0.97580  0.06260  Biso   1.000  C
  C24      1.0000 0.52420  0.75820  0.81260  Biso   1.000  C
  C25      1.0000 0.25820  0.97580  0.68740  Biso   1.000  C
  C26      1.0000 0.02420  0.75820  0.93740  Biso   1.000  C
  C27      1.0000 0.74180  0.02420  0.68740  Biso   1.000  C
  C28      1.0000 0.97580  0.24180  0.93740  Biso   1.000  C
  C29      1.0000 0.74180  0.52420  0.56260  Biso   1.000  C
  C30      1.0000 0.97580  0.74180  0.31260  Biso   1.000  C
  C31      1.0000 0.25820  0.47580  0.56260  Biso   1.000  C
  C32      1.0000 0.02420  0.25820  0.31260  Biso   1.000  C
  C33      1.0000 0.81430  0.46080  0.26310  Biso   1.000  C
  C34      1.0000 0.53920  0.31430  0.51310  Biso   1.000  C
  C35      1.0000 0.18570  0.53920  0.26310  Biso   1.000  C
  C36      1.0000 0.46080  0.68570  0.51310  Biso   1.000  C
  C37      1.0000 0.18570  0.03920  0.98690  Biso   1.000  C
  C38      1.0000 0.46080  0.18570  0.73690  Biso   1.000  C
  C39      1.0000 0.81430  0.96080  0.98690  Biso   1.000  C
  C40      1.0000 0.53920  0.81430  0.73690  Biso   1.000  C
  C41      1.0000 0.31430  0.96080  0.76310  Biso   1.000  C
  C42      1.0000 0.03920  0.81430  0.01310  Biso   1.000  C
  C43      1.0000 0.68570  0.03920  0.76310  Biso   1.000  C
  C44      1.0000 0.96080  0.18570  0.01310  Biso   1.000  C
  C45      1.0000 0.68570  0.53920  0.48690  Biso   1.000  C
  C46      1.0000 0.96080  0.68570  0.23690  Biso   1.000  C
  C47      1.0000 0.31430  0.46080  0.48690  Biso   1.000  C
  C48      1.0000 0.03920  0.31430  0.23690  Biso   1.000  C
  N1       1.0000 0.79864  0.39910  0.32840  Biso   1.000  N
  N2       1.0000 0.60090  0.29864  0.57840  Biso   1.000  N
  N3       1.0000 0.20136  0.60090  0.32840  Biso   1.000  N
  N4       1.0000 0.39910  0.70136  0.57840  Biso   1.000  N
  N5       1.0000 0.20136  0.10090  0.92160  Biso   1.000  N
  N6       1.0000 0.39910  0.20136  0.67160  Biso   1.000  N
  N7       1.0000 0.79864  0.89910  0.92160  Biso   1.000  N
  N8       1.0000 0.60090  0.79864  0.67160  Biso   1.000  N
  N9       1.0000 0.29864  0.89910  0.82840  Biso   1.000  N
  N10      1.0000 0.10090  0.79864  0.07840  Biso   1.000  N
  N11      1.0000 0.70136  0.10090  0.82840  Biso   1.000  N
  N12      1.0000 0.89910  0.20136  0.07840  Biso   1.000  N
  N13      1.0000 0.70136  0.60090  0.42160  Biso   1.000  N
  N14      1.0000 0.89910  0.70136  0.17160  Biso   1.000  N
  N15      1.0000 0.29864  0.39910  0.42160  Biso   1.000  N
  N16      1.0000 0.10090  0.29864  0.17160  Biso   1.000  N
  C49      1.0000 0.72750  0.34890  0.32300  Biso   1.000  C
  C50      1.0000 0.65110  0.22750  0.57300  Biso   1.000  C
  C51      1.0000 0.27250  0.65110  0.32300  Biso   1.000  C
  C52      1.0000 0.34890  0.77250  0.57300  Biso   1.000  C
  C53      1.0000 0.27250  0.15110  0.92700  Biso   1.000  C
  C54      1.0000 0.34890  0.27250  0.67700  Biso   1.000  C
  C55      1.0000 0.72750  0.84890  0.92700  Biso   1.000  C
  C56      1.0000 0.65110  0.72750  0.67700  Biso   1.000  C
  C57      1.0000 0.22750  0.84890  0.82300  Biso   1.000  C
  C58      1.0000 0.15110  0.72750  0.07300  Biso   1.000  C
  C59      1.0000 0.77250  0.15110  0.82300  Biso   1.000  C
  C60      1.0000 0.84890  0.27250  0.07300  Biso   1.000  C
  C61      1.0000 0.77250  0.65110  0.42700  Biso   1.000  C
  C62      1.0000 0.84890  0.77250  0.17700  Biso   1.000  C
  C63      1.0000 0.22750  0.34890  0.42700  Biso   1.000  C
  C64      1.0000 0.15110  0.22750  0.17700  Biso   1.000  C
  C65      1.0000 0.66880  0.36210  0.24990  Biso   1.000  C
  C66      1.0000 0.63790  0.16880  0.49990  Biso   1.000  C
  C67      1.0000 0.33120  0.63790  0.24990  Biso   1.000  C
  C68      1.0000 0.36210  0.83120  0.49990  Biso   1.000  C
  C69      1.0000 0.33120  0.13790  0.00010  Biso   1.000  C
  C70      1.0000 0.36210  0.33120  0.75010  Biso   1.000  C
  C71      1.0000 0.66880  0.86210  0.00010  Biso   1.000  C
  C72      1.0000 0.63790  0.66880  0.75010  Biso   1.000  C
  C73      1.0000 0.16880  0.86210  0.74990  Biso   1.000  C
  C74      1.0000 0.13790  0.66880  0.99990  Biso   1.000  C
  C75      1.0000 0.83120  0.13790  0.74990  Biso   1.000  C
  C76      1.0000 0.86210  0.33120  0.99990  Biso   1.000  C
  C77      1.0000 0.83120  0.63790  0.50010  Biso   1.000  C
  C78      1.0000 0.86210  0.83120  0.25010  Biso   1.000  C
  C79      1.0000 0.16880  0.36210  0.50010  Biso   1.000  C
  C80      1.0000 0.13790  0.16880  0.25010  Biso   1.000  C
  H1       1.0000 0.86722  0.49626  0.26931  Biso   1.000  H
  H2       1.0000 0.50374  0.36722  0.51931  Biso   1.000  H
  H3       1.0000 0.13278  0.50374  0.26931  Biso   1.000  H
  H4       1.0000 0.49626  0.63278  0.51931  Biso   1.000  H
  H5       1.0000 0.13278  0.00374  0.98069  Biso   1.000  H
  H6       1.0000 0.49626  0.13278  0.73069  Biso   1.000  H
  H7       1.0000 0.86722  0.99626  0.98069  Biso   1.000  H
  H8       1.0000 0.50374  0.86722  0.73069  Biso   1.000  H
  H9       1.0000 0.36722  0.99626  0.76931  Biso   1.000  H
  H10      1.0000 0.00374  0.86722  0.01931  Biso   1.000  H
  H11      1.0000 0.63278  0.00374  0.76931  Biso   1.000  H
  H12      1.0000 0.99626  0.13278  0.01931  Biso   1.000  H
  H13      1.0000 0.63278  0.50374  0.48069  Biso   1.000  H
  H14      1.0000 0.99626  0.63278  0.23069  Biso   1.000  H
  H15      1.0000 0.36722  0.49626  0.48069  Biso   1.000  H
  H16      1.0000 0.00374  0.36722  0.23069  Biso   1.000  H
  H17      1.0000 0.77062  0.52168  0.13823  Biso   1.000  H
  H18      1.0000 0.47832  0.27062  0.38823  Biso   1.000  H
  H19      1.0000 0.22938  0.47832  0.13823  Biso   1.000  H
  H20      1.0000 0.52168  0.72938  0.38823  Biso   1.000  H
  H21      1.0000 0.22938  0.97832  0.11177  Biso   1.000  H
  H22      1.0000 0.52168  0.22938  0.86177  Biso   1.000  H
  H23      1.0000 0.77062  0.02168  0.11177  Biso   1.000  H
  H24      1.0000 0.47832  0.77062  0.86177  Biso   1.000  H
  H25      1.0000 0.27062  0.02168  0.63823  Biso   1.000  H
  H26      1.0000 0.97832  0.77062  0.88823  Biso   1.000  H
  H27      1.0000 0.72938  0.97832  0.63823  Biso   1.000  H
  H28      1.0000 0.02168  0.22938  0.88823  Biso   1.000  H
  H29      1.0000 0.72938  0.47832  0.61177  Biso   1.000  H
  H30      1.0000 0.02168  0.72938  0.36177  Biso   1.000  H
  H31      1.0000 0.27062  0.52168  0.61177  Biso   1.000  H
  H32      1.0000 0.97832  0.27062  0.36177  Biso   1.000  H
  H33      1.0000 0.71820  0.30254  0.37244  Biso   1.000  H
  H34      1.0000 0.69746  0.21820  0.62244  Biso   1.000  H
  H35      1.0000 0.28180  0.69746  0.37244  Biso   1.000  H
  H36      1.0000 0.30254  0.78180  0.62244  Biso   1.000  H
  H37      1.0000 0.28180  0.19746  0.87756  Biso   1.000  H
  H38      1.0000 0.30254  0.28180  0.62756  Biso   1.000  H
  H39      1.0000 0.71820  0.80254  0.87756  Biso   1.000  H
  H40      1.0000 0.69746  0.71820  0.62756  Biso   1.000  H
  H41      1.0000 0.21820  0.80254  0.87244  Biso   1.000  H
  H42      1.0000 0.19746  0.71820  0.12244  Biso   1.000  H
  H43      1.0000 0.78180  0.19746  0.87244  Biso   1.000  H
  H44      1.0000 0.80254  0.28180  0.12244  Biso   1.000  H
  H45      1.0000 0.78180  0.69746  0.37756  Biso   1.000  H
  H46      1.0000 0.80254  0.78180  0.12756  Biso   1.000  H
  H47      1.0000 0.21820  0.30254  0.37756  Biso   1.000  H
  H48      1.0000 0.19746  0.21820  0.12756  Biso   1.000  H
  H49      1.0000 0.61609  0.32621  0.24667  Biso   1.000  H
  H50      1.0000 0.67379  0.11609  0.49667  Biso   1.000  H
  H51      1.0000 0.38391  0.67379  0.24667  Biso   1.000  H
  H52      1.0000 0.32621  0.88391  0.49667  Biso   1.000  H
  H53      1.0000 0.38391  0.17379  0.00333  Biso   1.000  H
  H54      1.0000 0.32621  0.38391  0.75333  Biso   1.000  H
  H55      1.0000 0.61609  0.82621  0.00333  Biso   1.000  H
  H56      1.0000 0.67379  0.61609  0.75333  Biso   1.000  H
  H57      1.0000 0.11609  0.82621  0.74667  Biso   1.000  H
  H58      1.0000 0.17379  0.61609  0.99667  Biso   1.000  H
  H59      1.0000 0.88391  0.17379  0.74667  Biso   1.000  H
  H60      1.0000 0.82621  0.38391  0.99667  Biso   1.000  H
  H61      1.0000 0.88391  0.67379  0.50333  Biso   1.000  H
  H62      1.0000 0.82621  0.88391  0.25333  Biso   1.000  H
  H63      1.0000 0.11609  0.32621  0.50333  Biso   1.000  H
  H64      1.0000 0.17379  0.11609  0.25333  Biso   1.000  H
