data_image0
_cell_length_a       15.782
_cell_length_b       15.782
_cell_length_c       13.624
_cell_angle_alpha    90
_cell_angle_beta     90
_cell_angle_gamma    90

_symmetry_space_group_name_H-M    "P 1"
_symmetry_int_tables_number       1

loop_
  _symmetry_equiv_pos_as_xyz
  'x, y, z'

loop_
  _atom_site_label
  _atom_site_occupancy
  _atom_site_fract_x
  _atom_site_fract_y
  _atom_site_fract_z
  _atom_site_thermal_displace_type
  _atom_site_B_iso_or_equiv
  _atom_site_type_symbol
  Cu1      1.0000 0.97710  0.41580  0.57510  Biso   1.000  Cu
  Cu2      1.0000 0.52290  0.58420  0.07510  Biso   1.000  Cu
  Cu3      1.0000 0.33420  0.22710  0.82510  Biso   1.000  Cu
  Cu4      1.0000 0.16580  0.77290  0.32510  Biso   1.000  Cu
  Cu5      1.0000 0.47710  0.91580  0.07510  Biso   1.000  Cu
  Cu6      1.0000 0.02290  0.08420  0.57510  Biso   1.000  Cu
  Cu7      1.0000 0.83420  0.72710  0.32510  Biso   1.000  Cu
  Cu8      1.0000 0.66580  0.27290  0.82510  Biso   1.000  Cu
  Cu9      1.0000 0.02290  0.58420  0.42490  Biso   1.000  Cu
  Cu10     1.0000 0.47710  0.41580  0.92490  Biso   1.000  Cu
  Cu11     1.0000 0.16580  0.27290  0.67490  Biso   1.000  Cu
  Cu12     1.0000 0.33420  0.72710  0.17490  Biso   1.000  Cu
  Cu13     1.0000 0.52290  0.08420  0.92490  Biso   1.000  Cu
  Cu14     1.0000 0.97710  0.91580  0.42490  Biso   1.000  Cu
  Cu15     1.0000 0.66580  0.77290  0.17490  Biso   1.000  Cu
  Cu16     1.0000 0.83420  0.22710  0.67490  Biso   1.000  Cu
  Cu17     1.0000 0.95500  0.41180  0.60300  Biso   1.000  Cu
  Cu18     1.0000 0.54500  0.58820  0.10300  Biso   1.000  Cu
  Cu19     1.0000 0.33820  0.20500  0.85300  Biso   1.000  Cu
  Cu20     1.0000 0.16180  0.79500  0.35300  Biso   1.000  Cu
  Cu21     1.0000 0.45500  0.91180  0.10300  Biso   1.000  Cu
  Cu22     1.0000 0.04500  0.08820  0.60300  Biso   1.000  Cu
  Cu23     1.0000 0.83820  0.70500  0.35300  Biso   1.000  Cu
  Cu24     1.0000 0.66180  0.29500  0.85300  Biso   1.000  Cu
  Cu25     1.0000 0.04500  0.58820  0.39700  Biso   1.000  Cu
  Cu26     1.0000 0.45500  0.41180  0.89700  Biso   1.000  Cu
  Cu27     1.0000 0.16180  0.29500  0.64700  Biso   1.000  Cu
  Cu28     1.0000 0.33820  0.70500  0.14700  Biso   1.000  Cu
  Cu29     1.0000 0.54500  0.08820  0.89700  Biso   1.000  Cu
  Cu30     1.0000 0.95500  0.91180  0.39700  Biso   1.000  Cu
  Cu31     1.0000 0.66180  0.79500  0.14700  Biso   1.000  Cu
  Cu32     1.0000 0.83820  0.20500  0.64700  Biso   1.000  Cu
  Cu33     1.0000 0.01540  0.28148  0.45962  Biso   1.000  Cu
  Cu34     1.0000 0.48460  0.71852  0.95962  Biso   1.000  Cu
  Cu35     1.0000 0.46852  0.26540  0.70962  Biso   1.000  Cu
  Cu36     1.0000 0.03148  0.73460  0.20962  Biso   1.000  Cu
  Cu37     1.0000 0.51540  0.78148  0.95962  Biso   1.000  Cu
  Cu38     1.0000 0.98460  0.21852  0.45962  Biso   1.000  Cu
  Cu39     1.0000 0.96852  0.76540  0.20962  Biso   1.000  Cu
  Cu40     1.0000 0.53148  0.23460  0.70962  Biso   1.000  Cu
  Cu41     1.0000 0.98460  0.71852  0.54038  Biso   1.000  Cu
  Cu42     1.0000 0.51540  0.28148  0.04038  Biso   1.000  Cu
  Cu43     1.0000 0.03148  0.23460  0.79038  Biso   1.000  Cu
  Cu44     1.0000 0.46852  0.76540  0.29038  Biso   1.000  Cu
  Cu45     1.0000 0.48460  0.21852  0.04038  Biso   1.000  Cu
  Cu46     1.0000 0.01540  0.78148  0.54038  Biso   1.000  Cu
  Cu47     1.0000 0.53148  0.73460  0.29038  Biso   1.000  Cu
  Cu48     1.0000 0.96852  0.26540  0.79038  Biso   1.000  Cu
  I1       1.0000 0.10954  0.44378  0.43443  Biso   1.000  I
  I2       1.0000 0.39046  0.55622  0.93443  Biso   1.000  I
  I3       1.0000 0.30622  0.35954  0.68443  Biso   1.000  I
  I4       1.0000 0.19378  0.64046  0.18443  Biso   1.000  I
  I5       1.0000 0.60954  0.94378  0.93443  Biso   1.000  I
  I6       1.0000 0.89046  0.05622  0.43443  Biso   1.000  I
  I7       1.0000 0.80622  0.85954  0.18443  Biso   1.000  I
  I8       1.0000 0.69378  0.14046  0.68443  Biso   1.000  I
  I9       1.0000 0.89046  0.55622  0.56557  Biso   1.000  I
  I10      1.0000 0.60954  0.44378  0.06557  Biso   1.000  I
  I11      1.0000 0.19378  0.14046  0.81557  Biso   1.000  I
  I12      1.0000 0.30622  0.85954  0.31557  Biso   1.000  I
  I13      1.0000 0.39046  0.05622  0.06557  Biso   1.000  I
  I14      1.0000 0.10954  0.94378  0.56557  Biso   1.000  I
  I15      1.0000 0.69378  0.64046  0.31557  Biso   1.000  I
  I16      1.0000 0.80622  0.35954  0.81557  Biso   1.000  I
  I17      1.0000 0.00000  0.25000  0.27830  Biso   1.000  I
  I18      1.0000 0.50000  0.75000  0.77830  Biso   1.000  I
  I19      1.0000 0.50000  0.25000  0.52830  Biso   1.000  I
  I20      1.0000 0.00000  0.75000  0.02830  Biso   1.000  I
  I21      1.0000 0.00000  0.75000  0.72170  Biso   1.000  I
  I22      1.0000 0.50000  0.25000  0.22170  Biso   1.000  I
  I23      1.0000 0.00000  0.25000  0.97170  Biso   1.000  I
  I24      1.0000 0.50000  0.75000  0.47170  Biso   1.000  I
  S1       1.0000 0.05035  0.36178  0.71050  Biso   1.000  S
  S2       1.0000 0.44965  0.63822  0.21050  Biso   1.000  S
  S3       1.0000 0.38822  0.30035  0.96050  Biso   1.000  S
  S4       1.0000 0.11178  0.69965  0.46050  Biso   1.000  S
  S5       1.0000 0.55035  0.86178  0.21050  Biso   1.000  S
  S6       1.0000 0.94965  0.13822  0.71050  Biso   1.000  S
  S7       1.0000 0.88822  0.80035  0.46050  Biso   1.000  S
  S8       1.0000 0.61178  0.19965  0.96050  Biso   1.000  S
  S9       1.0000 0.94965  0.63822  0.28950  Biso   1.000  S
  S10      1.0000 0.55035  0.36178  0.78950  Biso   1.000  S
  S11      1.0000 0.11178  0.19965  0.53950  Biso   1.000  S
  S12      1.0000 0.38822  0.80035  0.03950  Biso   1.000  S
  S13      1.0000 0.44965  0.13822  0.78950  Biso   1.000  S
  S14      1.0000 0.05035  0.86178  0.28950  Biso   1.000  S
  S15      1.0000 0.61178  0.69965  0.03950  Biso   1.000  S
  S16      1.0000 0.88822  0.30035  0.53950  Biso   1.000  S
  N1       1.0000 0.10380  0.54640  0.95220  Biso   1.000  N
  N2       1.0000 0.39620  0.45360  0.45220  Biso   1.000  N
  N3       1.0000 0.20360  0.35380  0.20220  Biso   1.000  N
  N4       1.0000 0.29640  0.64620  0.70220  Biso   1.000  N
  N5       1.0000 0.60380  0.04640  0.45220  Biso   1.000  N
  N6       1.0000 0.89620  0.95360  0.95220  Biso   1.000  N
  N7       1.0000 0.70360  0.85380  0.70220  Biso   1.000  N
  N8       1.0000 0.79640  0.14620  0.20220  Biso   1.000  N
  N9       1.0000 0.89620  0.45360  0.04780  Biso   1.000  N
  N10      1.0000 0.60380  0.54640  0.54780  Biso   1.000  N
  N11      1.0000 0.29640  0.14620  0.29780  Biso   1.000  N
  N12      1.0000 0.20360  0.85380  0.79780  Biso   1.000  N
  N13      1.0000 0.39620  0.95360  0.54780  Biso   1.000  N
  N14      1.0000 0.10380  0.04640  0.04780  Biso   1.000  N
  N15      1.0000 0.79640  0.64620  0.79780  Biso   1.000  N
  N16      1.0000 0.70360  0.35380  0.29780  Biso   1.000  N
  H1       1.0000 0.11290  0.58150  0.99940  Biso   1.000  H
  H2       1.0000 0.38710  0.41850  0.49940  Biso   1.000  H
  H3       1.0000 0.16850  0.36290  0.24940  Biso   1.000  H
  H4       1.0000 0.33150  0.63710  0.74940  Biso   1.000  H
  H5       1.0000 0.61290  0.08150  0.49940  Biso   1.000  H
  H6       1.0000 0.88710  0.91850  0.99940  Biso   1.000  H
  H7       1.0000 0.66850  0.86290  0.74940  Biso   1.000  H
  H8       1.0000 0.83150  0.13710  0.24940  Biso   1.000  H
  H9       1.0000 0.88710  0.41850  0.00060  Biso   1.000  H
  H10      1.0000 0.61290  0.58150  0.50060  Biso   1.000  H
  H11      1.0000 0.33150  0.13710  0.25060  Biso   1.000  H
  H12      1.0000 0.16850  0.86290  0.75060  Biso   1.000  H
  H13      1.0000 0.38710  0.91850  0.50060  Biso   1.000  H
  H14      1.0000 0.11290  0.08150  0.00060  Biso   1.000  H
  H15      1.0000 0.83150  0.63710  0.75060  Biso   1.000  H
  H16      1.0000 0.66850  0.36290  0.25060  Biso   1.000  H
  C1       1.0000 0.04200  0.56290  0.88810  Biso   1.000  C
  C2       1.0000 0.45800  0.43710  0.38810  Biso   1.000  C
  C3       1.0000 0.18710  0.29200  0.13810  Biso   1.000  C
  C4       1.0000 0.31290  0.70800  0.63810  Biso   1.000  C
  C5       1.0000 0.54200  0.06290  0.38810  Biso   1.000  C
  C6       1.0000 0.95800  0.93710  0.88810  Biso   1.000  C
  C7       1.0000 0.68710  0.79200  0.63810  Biso   1.000  C
  C8       1.0000 0.81290  0.20800  0.13810  Biso   1.000  C
  C9       1.0000 0.95800  0.43710  0.11190  Biso   1.000  C
  C10      1.0000 0.54200  0.56290  0.61190  Biso   1.000  C
  C11      1.0000 0.31290  0.20800  0.36190  Biso   1.000  C
  C12      1.0000 0.18710  0.79200  0.86190  Biso   1.000  C
  C13      1.0000 0.45800  0.93710  0.61190  Biso   1.000  C
  C14      1.0000 0.04200  0.06290  0.11190  Biso   1.000  C
  C15      1.0000 0.81290  0.70800  0.86190  Biso   1.000  C
  C16      1.0000 0.68710  0.29200  0.36190  Biso   1.000  C
  H17      1.0000 0.01050  0.61240  0.89380  Biso   1.000  H
  H18      1.0000 0.48950  0.38760  0.39380  Biso   1.000  H
  H19      1.0000 0.13760  0.26050  0.14380  Biso   1.000  H
  H20      1.0000 0.36240  0.73950  0.64380  Biso   1.000  H
  H21      1.0000 0.51050  0.11240  0.39380  Biso   1.000  H
  H22      1.0000 0.98950  0.88760  0.89380  Biso   1.000  H
  H23      1.0000 0.63760  0.76050  0.64380  Biso   1.000  H
  H24      1.0000 0.86240  0.23950  0.14380  Biso   1.000  H
  H25      1.0000 0.98950  0.38760  0.10620  Biso   1.000  H
  H26      1.0000 0.51050  0.61240  0.60620  Biso   1.000  H
  H27      1.0000 0.36240  0.23950  0.35620  Biso   1.000  H
  H28      1.0000 0.13760  0.76050  0.85620  Biso   1.000  H
  H29      1.0000 0.48950  0.88760  0.60620  Biso   1.000  H
  H30      1.0000 0.01050  0.11240  0.10620  Biso   1.000  H
  H31      1.0000 0.86240  0.73950  0.85620  Biso   1.000  H
  H32      1.0000 0.63760  0.26050  0.35620  Biso   1.000  H
  C17      1.0000 0.02500  0.50660  0.81380  Biso   1.000  C
  C18      1.0000 0.47500  0.49340  0.31380  Biso   1.000  C
  C19      1.0000 0.24340  0.27500  0.06380  Biso   1.000  C
  C20      1.0000 0.25660  0.72500  0.56380  Biso   1.000  C
  C21      1.0000 0.52500  0.00660  0.31380  Biso   1.000  C
  C22      1.0000 0.97500  0.99340  0.81380  Biso   1.000  C
  C23      1.0000 0.74340  0.77500  0.56380  Biso   1.000  C
  C24      1.0000 0.75660  0.22500  0.06380  Biso   1.000  C
  C25      1.0000 0.97500  0.49340  0.18620  Biso   1.000  C
  C26      1.0000 0.52500  0.50660  0.68620  Biso   1.000  C
  C27      1.0000 0.25660  0.22500  0.43620  Biso   1.000  C
  C28      1.0000 0.24340  0.77500  0.93620  Biso   1.000  C
  C29      1.0000 0.47500  0.99340  0.68620  Biso   1.000  C
  C30      1.0000 0.02500  0.00660  0.18620  Biso   1.000  C
  C31      1.0000 0.75660  0.72500  0.93620  Biso   1.000  C
  C32      1.0000 0.74340  0.27500  0.43620  Biso   1.000  C
  H33      1.0000 0.98120  0.51760  0.77000  Biso   1.000  H
  H34      1.0000 0.51880  0.48240  0.27000  Biso   1.000  H
  H35      1.0000 0.23240  0.23120  0.02000  Biso   1.000  H
  H36      1.0000 0.26760  0.76880  0.52000  Biso   1.000  H
  H37      1.0000 0.48120  0.01760  0.27000  Biso   1.000  H
  H38      1.0000 0.01880  0.98240  0.77000  Biso   1.000  H
  H39      1.0000 0.73240  0.73120  0.52000  Biso   1.000  H
  H40      1.0000 0.76760  0.26880  0.02000  Biso   1.000  H
  H41      1.0000 0.01880  0.48240  0.23000  Biso   1.000  H
  H42      1.0000 0.48120  0.51760  0.73000  Biso   1.000  H
  H43      1.0000 0.26760  0.26880  0.48000  Biso   1.000  H
  H44      1.0000 0.23240  0.73120  0.98000  Biso   1.000  H
  H45      1.0000 0.51880  0.98240  0.73000  Biso   1.000  H
  H46      1.0000 0.98120  0.01760  0.23000  Biso   1.000  H
  H47      1.0000 0.76760  0.76880  0.98000  Biso   1.000  H
  H48      1.0000 0.73240  0.23120  0.48000  Biso   1.000  H
  C33      1.0000 0.07320  0.43310  0.80390  Biso   1.000  C
  C34      1.0000 0.42680  0.56690  0.30390  Biso   1.000  C
  C35      1.0000 0.31690  0.32320  0.05390  Biso   1.000  C
  C36      1.0000 0.18310  0.67680  0.55390  Biso   1.000  C
  C37      1.0000 0.57320  0.93310  0.30390  Biso   1.000  C
  C38      1.0000 0.92680  0.06690  0.80390  Biso   1.000  C
  C39      1.0000 0.81690  0.82320  0.55390  Biso   1.000  C
  C40      1.0000 0.68310  0.17680  0.05390  Biso   1.000  C
  C41      1.0000 0.92680  0.56690  0.19610  Biso   1.000  C
  C42      1.0000 0.57320  0.43310  0.69610  Biso   1.000  C
  C43      1.0000 0.18310  0.17680  0.44610  Biso   1.000  C
  C44      1.0000 0.31690  0.82320  0.94610  Biso   1.000  C
  C45      1.0000 0.42680  0.06690  0.69610  Biso   1.000  C
  C46      1.0000 0.07320  0.93310  0.19610  Biso   1.000  C
  C47      1.0000 0.68310  0.67680  0.94610  Biso   1.000  C
  C48      1.0000 0.81690  0.32320  0.44610  Biso   1.000  C
  C49      1.0000 0.13750  0.41950  0.87270  Biso   1.000  C
  C50      1.0000 0.36250  0.58050  0.37270  Biso   1.000  C
  C51      1.0000 0.33050  0.38750  0.12270  Biso   1.000  C
  C52      1.0000 0.16950  0.61250  0.62270  Biso   1.000  C
  C53      1.0000 0.63750  0.91950  0.37270  Biso   1.000  C
  C54      1.0000 0.86250  0.08050  0.87270  Biso   1.000  C
  C55      1.0000 0.83050  0.88750  0.62270  Biso   1.000  C
  C56      1.0000 0.66950  0.11250  0.12270  Biso   1.000  C
  C57      1.0000 0.86250  0.58050  0.12730  Biso   1.000  C
  C58      1.0000 0.63750  0.41950  0.62730  Biso   1.000  C
  C59      1.0000 0.16950  0.11250  0.37730  Biso   1.000  C
  C60      1.0000 0.33050  0.88750  0.87730  Biso   1.000  C
  C61      1.0000 0.36250  0.08050  0.62730  Biso   1.000  C
  C62      1.0000 0.13750  0.91950  0.12730  Biso   1.000  C
  C63      1.0000 0.66950  0.61250  0.87730  Biso   1.000  C
  C64      1.0000 0.83050  0.38750  0.37730  Biso   1.000  C
  H49      1.0000 0.17070  0.37100  0.86870  Biso   1.000  H
  H50      1.0000 0.32930  0.62900  0.36870  Biso   1.000  H
  H51      1.0000 0.37900  0.42070  0.11870  Biso   1.000  H
  H52      1.0000 0.12100  0.57930  0.61870  Biso   1.000  H
  H53      1.0000 0.67070  0.87100  0.36870  Biso   1.000  H
  H54      1.0000 0.82930  0.12900  0.86870  Biso   1.000  H
  H55      1.0000 0.87900  0.92070  0.61870  Biso   1.000  H
  H56      1.0000 0.62100  0.07930  0.11870  Biso   1.000  H
  H57      1.0000 0.82930  0.62900  0.13130  Biso   1.000  H
  H58      1.0000 0.67070  0.37100  0.63130  Biso   1.000  H
  H59      1.0000 0.12100  0.07930  0.38130  Biso   1.000  H
  H60      1.0000 0.37900  0.92070  0.88130  Biso   1.000  H
  H61      1.0000 0.32930  0.12900  0.63130  Biso   1.000  H
  H62      1.0000 0.17070  0.87100  0.13130  Biso   1.000  H
  H63      1.0000 0.62100  0.57930  0.88130  Biso   1.000  H
  H64      1.0000 0.87900  0.42070  0.38130  Biso   1.000  H
  C65      1.0000 0.15180  0.47690  0.94530  Biso   1.000  C
  C66      1.0000 0.34820  0.52310  0.44530  Biso   1.000  C
  C67      1.0000 0.27310  0.40180  0.19530  Biso   1.000  C
  C68      1.0000 0.22690  0.59820  0.69530  Biso   1.000  C
  C69      1.0000 0.65180  0.97690  0.44530  Biso   1.000  C
  C70      1.0000 0.84820  0.02310  0.94530  Biso   1.000  C
  C71      1.0000 0.77310  0.90180  0.69530  Biso   1.000  C
  C72      1.0000 0.72690  0.09820  0.19530  Biso   1.000  C
  C73      1.0000 0.84820  0.52310  0.05470  Biso   1.000  C
  C74      1.0000 0.65180  0.47690  0.55470  Biso   1.000  C
  C75      1.0000 0.22690  0.09820  0.30470  Biso   1.000  C
  C76      1.0000 0.27310  0.90180  0.80470  Biso   1.000  C
  C77      1.0000 0.34820  0.02310  0.55470  Biso   1.000  C
  C78      1.0000 0.15180  0.97690  0.05470  Biso   1.000  C
  C79      1.0000 0.72690  0.59820  0.80470  Biso   1.000  C
  C80      1.0000 0.77310  0.40180  0.30470  Biso   1.000  C
  H65      1.0000 0.19520  0.46770  0.99030  Biso   1.000  H
  H66      1.0000 0.30480  0.53230  0.49030  Biso   1.000  H
  H67      1.0000 0.28230  0.44520  0.24030  Biso   1.000  H
  H68      1.0000 0.21770  0.55480  0.74030  Biso   1.000  H
  H69      1.0000 0.69520  0.96770  0.49030  Biso   1.000  H
  H70      1.0000 0.80480  0.03230  0.99030  Biso   1.000  H
  H71      1.0000 0.78230  0.94520  0.74030  Biso   1.000  H
  H72      1.0000 0.71770  0.05480  0.24030  Biso   1.000  H
  H73      1.0000 0.80480  0.53230  0.00970  Biso   1.000  H
  H74      1.0000 0.69520  0.46770  0.50970  Biso   1.000  H
  H75      1.0000 0.21770  0.05480  0.25970  Biso   1.000  H
  H76      1.0000 0.28230  0.94520  0.75970  Biso   1.000  H
  H77      1.0000 0.30480  0.03230  0.50970  Biso   1.000  H
  H78      1.0000 0.19520  0.96770  0.00970  Biso   1.000  H
  H79      1.0000 0.71770  0.55480  0.75970  Biso   1.000  H
  H80      1.0000 0.78230  0.44520  0.25970  Biso   1.000  H
