data_image0
_cell_length_a       13.177
_cell_length_b       6.571
_cell_length_c       14.444
_cell_angle_alpha    90
_cell_angle_beta     100.54
_cell_angle_gamma    90

_symmetry_space_group_name_H-M    "P 1"
_symmetry_int_tables_number       1

loop_
  _symmetry_equiv_pos_as_xyz
  'x, y, z'

loop_
  _atom_site_label
  _atom_site_occupancy
  _atom_site_fract_x
  _atom_site_fract_y
  _atom_site_fract_z
  _atom_site_thermal_displace_type
  _atom_site_B_iso_or_equiv
  _atom_site_type_symbol
  Cu1      1.0000 0.14498  0.21356  0.73268  Biso   1.000  Cu
  Cu2      1.0000 0.35502  0.71356  0.76732  Biso   1.000  Cu
  Cu3      1.0000 0.85502  0.78644  0.26732  Biso   1.000  Cu
  Cu4      1.0000 0.64498  0.28644  0.23268  Biso   1.000  Cu
  Cl1      1.0000 0.34299  0.08490  0.76668  Biso   1.000  Cl
  Cl2      1.0000 0.15701  0.58490  0.73332  Biso   1.000  Cl
  Cl3      1.0000 0.65701  0.91510  0.23332  Biso   1.000  Cl
  Cl4      1.0000 0.84299  0.41510  0.26668  Biso   1.000  Cl
  N1       1.0000 0.12260  0.15570  0.59380  Biso   1.000  N
  N2       1.0000 0.37740  0.65570  0.90620  Biso   1.000  N
  N3       1.0000 0.87740  0.84430  0.40620  Biso   1.000  N
  N4       1.0000 0.62260  0.34430  0.09380  Biso   1.000  N
  N5       1.0000 0.12100  0.15410  0.86240  Biso   1.000  N
  N6       1.0000 0.37900  0.65410  0.63760  Biso   1.000  N
  N7       1.0000 0.87900  0.84590  0.13760  Biso   1.000  N
  N8       1.0000 0.62100  0.34590  0.36240  Biso   1.000  N
  N9       1.0000 0.15990  0.84440  0.28330  Biso   1.000  N
  N10      1.0000 0.34010  0.34440  0.21670  Biso   1.000  N
  N11      1.0000 0.84010  0.15560  0.71670  Biso   1.000  N
  N12      1.0000 0.65990  0.65560  0.78330  Biso   1.000  N
  N13      1.0000 0.16170  0.84570  0.18840  Biso   1.000  N
  N14      1.0000 0.33830  0.34570  0.31160  Biso   1.000  N
  N15      1.0000 0.83830  0.15430  0.81160  Biso   1.000  N
  N16      1.0000 0.66170  0.65430  0.68840  Biso   1.000  N
  N17      1.0000 0.11200  0.14230  0.22620  Biso   1.000  N
  N18      1.0000 0.38800  0.64230  0.27380  Biso   1.000  N
  N19      1.0000 0.88800  0.85770  0.77380  Biso   1.000  N
  N20      1.0000 0.61200  0.35770  0.72620  Biso   1.000  N
  N21      1.0000 0.07690  0.34860  0.21560  Biso   1.000  N
  N22      1.0000 0.42310  0.84860  0.28440  Biso   1.000  N
  N23      1.0000 0.92310  0.65140  0.78440  Biso   1.000  N
  N24      1.0000 0.57690  0.15140  0.71560  Biso   1.000  N
  H1       1.0000 0.02200  0.36300  0.24200  Biso   1.000  H
  H2       1.0000 0.47800  0.86300  0.25800  Biso   1.000  H
  H3       1.0000 0.97800  0.63700  0.75800  Biso   1.000  H
  H4       1.0000 0.52200  0.13700  0.74200  Biso   1.000  H
  H5       1.0000 0.12400  0.38400  0.23000  Biso   1.000  H
  H6       1.0000 0.37600  0.88400  0.27000  Biso   1.000  H
  H7       1.0000 0.87600  0.61600  0.77000  Biso   1.000  H
  H8       1.0000 0.62400  0.11600  0.73000  Biso   1.000  H
  C1       1.0000 0.12960  0.02660  0.30570  Biso   1.000  C
  C2       1.0000 0.37040  0.52660  0.19430  Biso   1.000  C
  C3       1.0000 0.87040  0.97340  0.69430  Biso   1.000  C
  C4       1.0000 0.62960  0.47340  0.80570  Biso   1.000  C
  C5       1.0000 0.13360  0.02710  0.15460  Biso   1.000  C
  C6       1.0000 0.36640  0.52710  0.34540  Biso   1.000  C
  C7       1.0000 0.86640  0.97290  0.84540  Biso   1.000  C
  C8       1.0000 0.63360  0.47290  0.65460  Biso   1.000  C
  C9       1.0000 0.10440  0.30710  0.53060  Biso   1.000  C
  C10      1.0000 0.39560  0.80710  0.96940  Biso   1.000  C
  C11      1.0000 0.89560  0.69290  0.46940  Biso   1.000  C
  C12      1.0000 0.60440  0.19290  0.03060  Biso   1.000  C
  H9       1.0000 0.09380  0.43790  0.55160  Biso   1.000  H
  H10      1.0000 0.40620  0.93790  0.94840  Biso   1.000  H
  H11      1.0000 0.90620  0.56210  0.44840  Biso   1.000  H
  H12      1.0000 0.59380  0.06210  0.05160  Biso   1.000  H
  C13      1.0000 0.10070  0.27490  0.43350  Biso   1.000  C
  C14      1.0000 0.39930  0.77490  0.06650  Biso   1.000  C
  C15      1.0000 0.89930  0.72510  0.56650  Biso   1.000  C
  C16      1.0000 0.60070  0.22510  0.93350  Biso   1.000  C
  H13      1.0000 0.08300  0.38130  0.39120  Biso   1.000  H
  H14      1.0000 0.41700  0.88130  0.10880  Biso   1.000  H
  H15      1.0000 0.91700  0.61870  0.60880  Biso   1.000  H
  H16      1.0000 0.58300  0.11870  0.89120  Biso   1.000  H
  C17      1.0000 0.12220  0.09540  0.40290  Biso   1.000  C
  C18      1.0000 0.37780  0.59540  0.09710  Biso   1.000  C
  C19      1.0000 0.87780  0.90460  0.59710  Biso   1.000  C
  C20      1.0000 0.62220  0.40460  0.90290  Biso   1.000  C
  C21      1.0000 0.14240  0.93250  0.47190  Biso   1.000  C
  C22      1.0000 0.35760  0.43250  0.02810  Biso   1.000  C
  C23      1.0000 0.85760  0.06750  0.52810  Biso   1.000  C
  C24      1.0000 0.64240  0.56750  0.97190  Biso   1.000  C
  H17      1.0000 0.15440  0.80040  0.45330  Biso   1.000  H
  H18      1.0000 0.34560  0.30040  0.04670  Biso   1.000  H
  H19      1.0000 0.84560  0.19960  0.54670  Biso   1.000  H
  H20      1.0000 0.65440  0.69960  0.95330  Biso   1.000  H
  C25      1.0000 0.14360  0.97720  0.56500  Biso   1.000  C
  C26      1.0000 0.35640  0.47720  0.93500  Biso   1.000  C
  C27      1.0000 0.85640  0.02280  0.43500  Biso   1.000  C
  C28      1.0000 0.64360  0.52280  0.06500  Biso   1.000  C
  H21      1.0000 0.16020  0.87420  0.60930  Biso   1.000  H
  H22      1.0000 0.33980  0.37420  0.89070  Biso   1.000  H
  H23      1.0000 0.83980  0.12580  0.39070  Biso   1.000  H
  H24      1.0000 0.66020  0.62580  0.10930  Biso   1.000  H
  C29      1.0000 0.10190  0.30620  0.92040  Biso   1.000  C
  C30      1.0000 0.39810  0.80620  0.57960  Biso   1.000  C
  C31      1.0000 0.89810  0.69380  0.07960  Biso   1.000  C
  C32      1.0000 0.60190  0.19380  0.42040  Biso   1.000  C
  H25      1.0000 0.08840  0.43660  0.89630  Biso   1.000  H
  H26      1.0000 0.41160  0.93660  0.60370  Biso   1.000  H
  H27      1.0000 0.91160  0.56340  0.10370  Biso   1.000  H
  H28      1.0000 0.58840  0.06340  0.39630  Biso   1.000  H
  C33      1.0000 0.10230  0.26970  0.01640  Biso   1.000  C
  C34      1.0000 0.39770  0.76970  0.48360  Biso   1.000  C
  C35      1.0000 0.89770  0.73030  0.98360  Biso   1.000  C
  C36      1.0000 0.60230  0.23030  0.51640  Biso   1.000  C
  H29      1.0000 0.08510  0.37560  0.05330  Biso   1.000  H
  H30      1.0000 0.41490  0.87560  0.44670  Biso   1.000  H
  H31      1.0000 0.91490  0.62440  0.94670  Biso   1.000  H
  H32      1.0000 0.58510  0.12440  0.55330  Biso   1.000  H
  C37      1.0000 0.12530  0.09700  0.05460  Biso   1.000  C
  C38      1.0000 0.37470  0.59700  0.44540  Biso   1.000  C
  C39      1.0000 0.87470  0.90300  0.94540  Biso   1.000  C
  C40      1.0000 0.62530  0.40300  0.55460  Biso   1.000  C
  C41      1.0000 0.14510  0.92800  0.99410  Biso   1.000  C
  C42      1.0000 0.35490  0.42800  0.50590  Biso   1.000  C
  C43      1.0000 0.85490  0.07200  0.00590  Biso   1.000  C
  C44      1.0000 0.64510  0.57200  0.49410  Biso   1.000  C
  H33      1.0000 0.15750  0.79650  0.01720  Biso   1.000  H
  H34      1.0000 0.34250  0.29650  0.48280  Biso   1.000  H
  H35      1.0000 0.84250  0.20350  0.98280  Biso   1.000  H
  H36      1.0000 0.65750  0.70350  0.51720  Biso   1.000  H
  C45      1.0000 0.14420  0.97540  0.90030  Biso   1.000  C
  C46      1.0000 0.35580  0.47540  0.59970  Biso   1.000  C
  C47      1.0000 0.85580  0.02460  0.09970  Biso   1.000  C
  C48      1.0000 0.64420  0.52460  0.40030  Biso   1.000  C
  H37      1.0000 0.16140  0.87270  0.86160  Biso   1.000  H
  H38      1.0000 0.33860  0.37270  0.63840  Biso   1.000  H
  H39      1.0000 0.83860  0.12730  0.13840  Biso   1.000  H
  H40      1.0000 0.66140  0.62730  0.36160  Biso   1.000  H
