data_image0
_cell_length_a       7.4292
_cell_length_b       14.559
_cell_length_c       17.925
_cell_angle_alpha    90
_cell_angle_beta     108.21
_cell_angle_gamma    90

_symmetry_space_group_name_H-M    "P 1"
_symmetry_int_tables_number       1

loop_
  _symmetry_equiv_pos_as_xyz
  'x, y, z'

loop_
  _atom_site_label
  _atom_site_occupancy
  _atom_site_fract_x
  _atom_site_fract_y
  _atom_site_fract_z
  _atom_site_thermal_displace_type
  _atom_site_B_iso_or_equiv
  _atom_site_type_symbol
  Cu1      1.0000 0.71500  0.81574  0.87394  Biso   1.000  Cu
  Cu2      1.0000 0.28500  0.31574  0.62606  Biso   1.000  Cu
  Cu3      1.0000 0.28500  0.18426  0.12606  Biso   1.000  Cu
  Cu4      1.0000 0.71500  0.68426  0.37394  Biso   1.000  Cu
  Cu5      1.0000 0.50020  0.89496  0.69824  Biso   1.000  Cu
  Cu6      1.0000 0.49980  0.39496  0.80176  Biso   1.000  Cu
  Cu7      1.0000 0.49980  0.10504  0.30176  Biso   1.000  Cu
  Cu8      1.0000 0.50020  0.60504  0.19824  Biso   1.000  Cu
  I1       1.0000 0.87037  0.88217  0.77693  Biso   1.000  I
  I2       1.0000 0.12963  0.38217  0.72307  Biso   1.000  I
  I3       1.0000 0.12963  0.11783  0.22307  Biso   1.000  I
  I4       1.0000 0.87037  0.61783  0.27693  Biso   1.000  I
  I5       1.0000 0.38389  0.05401  0.72398  Biso   1.000  I
  I6       1.0000 0.61611  0.55401  0.77602  Biso   1.000  I
  I7       1.0000 0.61611  0.94599  0.27602  Biso   1.000  I
  I8       1.0000 0.38389  0.44599  0.22398  Biso   1.000  I
  I9       1.0000 0.53157  0.51131  0.58130  Biso   1.000  I
  I10      1.0000 0.46843  0.01131  0.91870  Biso   1.000  I
  I11      1.0000 0.46843  0.48869  0.41870  Biso   1.000  I
  I12      1.0000 0.53157  0.98869  0.08130  Biso   1.000  I
  N1       1.0000 0.44930  0.77910  0.82450  Biso   1.000  N
  N2       1.0000 0.55070  0.27910  0.67550  Biso   1.000  N
  N3       1.0000 0.55070  0.22090  0.17550  Biso   1.000  N
  N4       1.0000 0.44930  0.72090  0.32450  Biso   1.000  N
  N5       1.0000 0.37390  0.79300  0.74430  Biso   1.000  N
  N6       1.0000 0.62610  0.29300  0.75570  Biso   1.000  N
  N7       1.0000 0.62610  0.20700  0.25570  Biso   1.000  N
  N8       1.0000 0.37390  0.70700  0.24430  Biso   1.000  N
  N9       1.0000 0.19990  0.69140  0.78010  Biso   1.000  N
  N10      1.0000 0.80010  0.19140  0.71990  Biso   1.000  N
  N11      1.0000 0.80010  0.30860  0.21990  Biso   1.000  N
  N12      1.0000 0.19990  0.80860  0.28010  Biso   1.000  N
  N13      1.0000 0.04930  0.63580  0.78300  Biso   1.000  N
  N14      1.0000 0.95070  0.13580  0.71700  Biso   1.000  N
  N15      1.0000 0.95070  0.36420  0.21700  Biso   1.000  N
  N16      1.0000 0.04930  0.86420  0.28300  Biso   1.000  N
  N17      1.0000 0.45220  0.63590  0.08380  Biso   1.000  N
  N18      1.0000 0.54780  0.13590  0.41620  Biso   1.000  N
  N19      1.0000 0.54780  0.36410  0.91620  Biso   1.000  N
  N20      1.0000 0.45220  0.86410  0.58380  Biso   1.000  N
  N21      1.0000 0.88570  0.70530  0.48190  Biso   1.000  N
  N22      1.0000 0.11430  0.20530  0.01810  Biso   1.000  N
  N23      1.0000 0.11430  0.29470  0.51810  Biso   1.000  N
  N24      1.0000 0.88570  0.79470  0.98190  Biso   1.000  N
  C1       1.0000 0.34130  0.71840  0.84580  Biso   1.000  C
  C2       1.0000 0.65870  0.21840  0.65420  Biso   1.000  C
  C3       1.0000 0.65870  0.28160  0.15420  Biso   1.000  C
  C4       1.0000 0.34130  0.78160  0.34580  Biso   1.000  C
  C5       1.0000 0.22630  0.73910  0.71990  Biso   1.000  C
  C6       1.0000 0.77370  0.23910  0.78010  Biso   1.000  C
  C7       1.0000 0.77370  0.26090  0.28010  Biso   1.000  C
  C8       1.0000 0.22630  0.76090  0.21990  Biso   1.000  C
  C9       1.0000 0.36560  0.57760  0.02400  Biso   1.000  C
  C10      1.0000 0.63440  0.07760  0.47600  Biso   1.000  C
  C11      1.0000 0.63440  0.42240  0.97600  Biso   1.000  C
  C12      1.0000 0.36560  0.92240  0.52400  Biso   1.000  C
  C13      1.0000 0.32600  0.60060  0.94550  Biso   1.000  C
  C14      1.0000 0.67400  0.10060  0.55450  Biso   1.000  C
  C15      1.0000 0.67400  0.39940  0.05450  Biso   1.000  C
  C16      1.0000 0.32600  0.89940  0.44550  Biso   1.000  C
  C17      1.0000 0.37100  0.69000  0.92820  Biso   1.000  C
  C18      1.0000 0.62900  0.19000  0.57180  Biso   1.000  C
  C19      1.0000 0.62900  0.31000  0.07180  Biso   1.000  C
  C20      1.0000 0.37100  0.81000  0.42820  Biso   1.000  C
  C21      1.0000 0.44820  0.74990  0.98780  Biso   1.000  C
  C22      1.0000 0.55180  0.24990  0.51220  Biso   1.000  C
  C23      1.0000 0.55180  0.25010  0.01220  Biso   1.000  C
  C24      1.0000 0.44820  0.75010  0.48780  Biso   1.000  C
  C25      1.0000 0.48900  0.72030  0.06420  Biso   1.000  C
  C26      1.0000 0.51100  0.22030  0.43580  Biso   1.000  C
  C27      1.0000 0.51100  0.27970  0.93580  Biso   1.000  C
  C28      1.0000 0.48900  0.77970  0.56420  Biso   1.000  C
  C29      1.0000 0.92540  0.79020  0.51280  Biso   1.000  C
  C30      1.0000 0.07460  0.29020  0.98720  Biso   1.000  C
  C31      1.0000 0.07460  0.20980  0.48720  Biso   1.000  C
  C32      1.0000 0.92540  0.70980  0.01280  Biso   1.000  C
  C33      1.0000 0.03600  0.80340  0.59070  Biso   1.000  C
  C34      1.0000 0.96400  0.30340  0.90930  Biso   1.000  C
  C35      1.0000 0.96400  0.19660  0.40930  Biso   1.000  C
  C36      1.0000 0.03600  0.69660  0.09070  Biso   1.000  C
  C37      1.0000 0.10650  0.72820  0.63870  Biso   1.000  C
  C38      1.0000 0.89350  0.22820  0.86130  Biso   1.000  C
  C39      1.0000 0.89350  0.27180  0.36130  Biso   1.000  C
  C40      1.0000 0.10650  0.77180  0.13870  Biso   1.000  C
  C41      1.0000 0.06800  0.64120  0.60580  Biso   1.000  C
  C42      1.0000 0.93200  0.14120  0.89420  Biso   1.000  C
  C43      1.0000 0.93200  0.35880  0.39420  Biso   1.000  C
  C44      1.0000 0.06800  0.85880  0.10580  Biso   1.000  C
  C45      1.0000 0.95800  0.63350  0.52840  Biso   1.000  C
  C46      1.0000 0.04200  0.13350  0.97160  Biso   1.000  C
  C47      1.0000 0.04200  0.36650  0.47160  Biso   1.000  C
  C48      1.0000 0.95800  0.86650  0.02840  Biso   1.000  C
  H1       1.0000 0.08000  0.84900  0.61500  Biso   1.000  H
  H2       1.0000 0.92000  0.34900  0.88500  Biso   1.000  H
  H3       1.0000 0.92000  0.15100  0.38500  Biso   1.000  H
  H4       1.0000 0.08000  0.65100  0.11500  Biso   1.000  H
  H5       1.0000 0.45000  0.81500  0.96700  Biso   1.000  H
  H6       1.0000 0.55000  0.31500  0.53300  Biso   1.000  H
  H7       1.0000 0.55000  0.18500  0.03300  Biso   1.000  H
  H8       1.0000 0.45000  0.68500  0.46700  Biso   1.000  H
  H9       1.0000 0.87000  0.84200  0.47400  Biso   1.000  H
  H10      1.0000 0.13000  0.34200  0.02600  Biso   1.000  H
  H11      1.0000 0.13000  0.15800  0.52600  Biso   1.000  H
  H12      1.0000 0.87000  0.65800  0.97400  Biso   1.000  H
  H13      1.0000 0.29000  0.54000  0.90400  Biso   1.000  H
  H14      1.0000 0.71000  0.04000  0.59600  Biso   1.000  H
  H15      1.0000 0.71000  0.46000  0.09600  Biso   1.000  H
  H16      1.0000 0.29000  0.96000  0.40400  Biso   1.000  H
  H17      1.0000 0.11000  0.59100  0.63500  Biso   1.000  H
  H18      1.0000 0.89000  0.09100  0.86500  Biso   1.000  H
  H19      1.0000 0.89000  0.40900  0.36500  Biso   1.000  H
  H20      1.0000 0.11000  0.90900  0.13500  Biso   1.000  H
  H21      1.0000 0.91000  0.57300  0.49800  Biso   1.000  H
  H22      1.0000 0.09000  0.07300  0.00200  Biso   1.000  H
  H23      1.0000 0.09000  0.42700  0.50200  Biso   1.000  H
  H24      1.0000 0.91000  0.92700  0.99800  Biso   1.000  H
  H25      1.0000 0.56000  0.77000  0.11300  Biso   1.000  H
  H26      1.0000 0.44000  0.27000  0.38700  Biso   1.000  H
  H27      1.0000 0.44000  0.23000  0.88700  Biso   1.000  H
  H28      1.0000 0.56000  0.73000  0.61300  Biso   1.000  H
  H29      1.0000 0.32000  0.51000  0.04100  Biso   1.000  H
  H30      1.0000 0.68000  0.01000  0.45900  Biso   1.000  H
  H31      1.0000 0.68000  0.49000  0.95900  Biso   1.000  H
  H32      1.0000 0.32000  0.99000  0.54100  Biso   1.000  H
  H33      1.0000 0.03000  0.58800  0.75400  Biso   1.000  H
  H34      1.0000 0.97000  0.08800  0.74600  Biso   1.000  H
  H35      1.0000 0.97000  0.41200  0.24600  Biso   1.000  H
  H36      1.0000 0.03000  0.91200  0.25400  Biso   1.000  H
  H37      1.0000 0.95200  0.67000  0.77200  Biso   1.000  H
  H38      1.0000 0.04800  0.17000  0.72800  Biso   1.000  H
  H39      1.0000 0.04800  0.33000  0.22800  Biso   1.000  H
  H40      1.0000 0.95200  0.83000  0.27200  Biso   1.000  H
