data_image0
_cell_length_a       7.7997
_cell_length_b       13.514
_cell_length_c       16.373
_cell_angle_alpha    103.66
_cell_angle_beta     100.2
_cell_angle_gamma    103.09

_symmetry_space_group_name_H-M    "P 1"
_symmetry_int_tables_number       1

loop_
  _symmetry_equiv_pos_as_xyz
  'x, y, z'

loop_
  _atom_site_label
  _atom_site_occupancy
  _atom_site_fract_x
  _atom_site_fract_y
  _atom_site_fract_z
  _atom_site_thermal_displace_type
  _atom_site_B_iso_or_equiv
  _atom_site_type_symbol
  Cu1      1.0000 0.54090  0.31954  0.82531  Biso   1.000  Cu
  Cu2      1.0000 0.45910  0.68046  0.17469  Biso   1.000  Cu
  Cu3      1.0000 0.48140  0.59317  0.97992  Biso   1.000  Cu
  Cu4      1.0000 0.51860  0.40683  0.02008  Biso   1.000  Cu
  Cu5      1.0000 0.59130  0.13197  0.85992  Biso   1.000  Cu
  Cu6      1.0000 0.40870  0.86803  0.14008  Biso   1.000  Cu
  Cu7      1.0000 0.52960  0.09167  0.69285  Biso   1.000  Cu
  Cu8      1.0000 0.47040  0.90833  0.30715  Biso   1.000  Cu
  I1       1.0000 0.81625  0.23948  0.78111  Biso   1.000  I
  I2       1.0000 0.18375  0.76052  0.21889  Biso   1.000  I
  I3       1.0000 0.73512  0.50603  0.93833  Biso   1.000  I
  I4       1.0000 0.26488  0.49397  0.06167  Biso   1.000  I
  I5       1.0000 0.34003  0.21789  0.90732  Biso   1.000  I
  I6       1.0000 0.65997  0.78211  0.09268  Biso   1.000  I
  I7       1.0000 0.42514  0.93830  0.75139  Biso   1.000  I
  I8       1.0000 0.57486  0.06170  0.24861  Biso   1.000  I
  N1       1.0000 0.22140  0.27470  0.25530  Biso   1.000  N
  N2       1.0000 0.77860  0.72530  0.74470  Biso   1.000  N
  N3       1.0000 0.31170  0.27180  0.33590  Biso   1.000  N
  N4       1.0000 0.68830  0.72820  0.66410  Biso   1.000  N
  N5       1.0000 0.11790  0.11570  0.26780  Biso   1.000  N
  N6       1.0000 0.88210  0.88430  0.73220  Biso   1.000  N
  N7       1.0000 0.03270  0.00680  0.25350  Biso   1.000  N
  N8       1.0000 0.96730  0.99320  0.74650  Biso   1.000  N
  H1       1.0000 0.93560  0.02550  0.25140  Biso   1.000  H
  H2       1.0000 0.06440  0.97450  0.74860  Biso   1.000  H
  H3       1.0000 0.00980  0.94370  0.22140  Biso   1.000  H
  H4       1.0000 0.99020  0.05630  0.77860  Biso   1.000  H
  N9       1.0000 0.43920  0.10820  0.57800  Biso   1.000  N
  N10      1.0000 0.56080  0.89180  0.42200  Biso   1.000  N
  N11      1.0000 0.76870  0.13420  0.96770  Biso   1.000  N
  N12      1.0000 0.23130  0.86580  0.03230  Biso   1.000  N
  N13      1.0000 0.16380  0.53560  0.41250  Biso   1.000  N
  N14      1.0000 0.83620  0.46440  0.58750  Biso   1.000  N
  N15      1.0000 0.25310  0.53070  0.48960  Biso   1.000  N
  N16      1.0000 0.74690  0.46930  0.51040  Biso   1.000  N
  N17      1.0000 0.04130  0.38250  0.42960  Biso   1.000  N
  N18      1.0000 0.95870  0.61750  0.57040  Biso   1.000  N
  N19      1.0000 0.92840  0.28170  0.41690  Biso   1.000  N
  N20      1.0000 0.07160  0.71830  0.58310  Biso   1.000  N
  H5       1.0000 0.87530  0.28250  0.45800  Biso   1.000  H
  H6       1.0000 0.12470  0.71750  0.54200  Biso   1.000  H
  H7       1.0000 0.85270  0.24880  0.36870  Biso   1.000  H
  H8       1.0000 0.14730  0.75120  0.63130  Biso   1.000  H
  N21      1.0000 0.68480  0.40490  0.12970  Biso   1.000  N
  N22      1.0000 0.31520  0.59510  0.87030  Biso   1.000  N
  N23      1.0000 0.41230  0.35330  0.72160  Biso   1.000  N
  N24      1.0000 0.58770  0.64670  0.27840  Biso   1.000  N
  C1       1.0000 0.24060  0.17870  0.34260  Biso   1.000  C
  C2       1.0000 0.75940  0.82130  0.65740  Biso   1.000  C
  C3       1.0000 0.11250  0.18160  0.21480  Biso   1.000  C
  C4       1.0000 0.88750  0.81840  0.78520  Biso   1.000  C
  C5       1.0000 0.52060  0.19610  0.55830  Biso   1.000  C
  C6       1.0000 0.47940  0.80390  0.44170  Biso   1.000  C
  H9       1.0000 0.62180  0.24460  0.59850  Biso   1.000  H
  H10      1.0000 0.37820  0.75540  0.40150  Biso   1.000  H
  C7       1.0000 0.46120  0.21730  0.48150  Biso   1.000  C
  C8       1.0000 0.53880  0.78270  0.51850  Biso   1.000  C
  H11      1.0000 0.52250  0.27820  0.47030  Biso   1.000  H
  H12      1.0000 0.47750  0.72180  0.52970  Biso   1.000  H
  C9       1.0000 0.30890  0.14680  0.42130  Biso   1.000  C
  C10      1.0000 0.69110  0.85320  0.57870  Biso   1.000  C
  C11      1.0000 0.22200  0.05730  0.43910  Biso   1.000  C
  C12      1.0000 0.77800  0.94270  0.56090  Biso   1.000  C
  H13      1.0000 0.11960  0.00880  0.39940  Biso   1.000  H
  H14      1.0000 0.88040  0.99120  0.60060  Biso   1.000  H
  C13      1.0000 0.29000  0.04000  0.51800  Biso   1.000  C
  C14      1.0000 0.71000  0.96000  0.48200  Biso   1.000  C
  H15      1.0000 0.22960  0.97930  0.53010  Biso   1.000  H
  H16      1.0000 0.77040  0.02070  0.46990  Biso   1.000  H
  C15      1.0000 0.76300  0.05260  0.99920  Biso   1.000  C
  C16      1.0000 0.23700  0.94740  0.00080  Biso   1.000  C
  H17      1.0000 0.68190  0.98740  0.96710  Biso   1.000  H
  H18      1.0000 0.31810  0.01260  0.03290  Biso   1.000  H
  C17      1.0000 0.87400  0.05970  0.07890  Biso   1.000  C
  C18      1.0000 0.12600  0.94030  0.92110  Biso   1.000  C
  H19      1.0000 0.86860  0.00020  0.09870  Biso   1.000  H
  H20      1.0000 0.13140  0.99980  0.90130  Biso   1.000  H
  C19      1.0000 0.99290  0.15730  0.12760  Biso   1.000  C
  C20      1.0000 0.00710  0.84270  0.87240  Biso   1.000  C
  C21      1.0000 0.99600  0.24160  0.09390  Biso   1.000  C
  C22      1.0000 0.00400  0.75840  0.90610  Biso   1.000  C
  H21      1.0000 0.07160  0.30890  0.12480  Biso   1.000  H
  H22      1.0000 0.92840  0.69110  0.87520  Biso   1.000  H
  C23      1.0000 0.88500  0.22470  0.01400  Biso   1.000  C
  C24      1.0000 0.11500  0.77530  0.98600  Biso   1.000  C
  H23      1.0000 0.89250  0.28180  0.99100  Biso   1.000  H
  H24      1.0000 0.10750  0.71820  0.00900  Biso   1.000  H
  C25      1.0000 0.03240  0.44780  0.37750  Biso   1.000  C
  C26      1.0000 0.96760  0.55220  0.62250  Biso   1.000  C
  C27      1.0000 0.18660  0.43690  0.49800  Biso   1.000  C
  C28      1.0000 0.81340  0.56310  0.50200  Biso   1.000  C
  C29      1.0000 0.63350  0.34730  0.18120  Biso   1.000  C
  C30      1.0000 0.36650  0.65270  0.81880  Biso   1.000  C
  H25      1.0000 0.51880  0.29900  0.16240  Biso   1.000  H
  H26      1.0000 0.48120  0.70100  0.83760  Biso   1.000  H
  C31      1.0000 0.73800  0.35430  0.26040  Biso   1.000  C
  C32      1.0000 0.26200  0.64570  0.73960  Biso   1.000  C
  H27      1.0000 0.69480  0.31080  0.29290  Biso   1.000  H
  H28      1.0000 0.30520  0.68920  0.70710  Biso   1.000  H
  C33      1.0000 0.90750  0.42560  0.29130  Biso   1.000  C
  C34      1.0000 0.09250  0.57440  0.70870  Biso   1.000  C
  C35      1.0000 0.95840  0.49070  0.24010  Biso   1.000  C
  C36      1.0000 0.04160  0.50930  0.75990  Biso   1.000  C
  H29      1.0000 0.06820  0.54360  0.25940  Biso   1.000  H
  H30      1.0000 0.93180  0.45640  0.74060  Biso   1.000  H
  C37      1.0000 0.84880  0.47680  0.16320  Biso   1.000  C
  C38      1.0000 0.15120  0.52320  0.83680  Biso   1.000  C
  H31      1.0000 0.88890  0.52030  0.13010  Biso   1.000  H
  H32      1.0000 0.11110  0.47970  0.86990  Biso   1.000  H
  C39      1.0000 0.49110  0.43680  0.69630  Biso   1.000  C
  C40      1.0000 0.50890  0.56320  0.30370  Biso   1.000  C
  H33      1.0000 0.60230  0.48120  0.73110  Biso   1.000  H
  H34      1.0000 0.39770  0.51880  0.26890  Biso   1.000  H
  C41      1.0000 0.42100  0.46150  0.62390  Biso   1.000  C
  C42      1.0000 0.57900  0.53850  0.37610  Biso   1.000  C
  H35      1.0000 0.48780  0.51710  0.60820  Biso   1.000  H
  H36      1.0000 0.51220  0.48290  0.39180  Biso   1.000  H
  C43      1.0000 0.25060  0.40340  0.57420  Biso   1.000  C
  C44      1.0000 0.74940  0.59660  0.42580  Biso   1.000  C
  C45      1.0000 0.16230  0.31870  0.59950  Biso   1.000  C
  C46      1.0000 0.83770  0.68130  0.40050  Biso   1.000  C
  H37      1.0000 0.04760  0.27640  0.56710  Biso   1.000  H
  H38      1.0000 0.95240  0.72360  0.43290  Biso   1.000  H
  C47      1.0000 0.24430  0.29670  0.67280  Biso   1.000  C
  C48      1.0000 0.75570  0.70330  0.32720  Biso   1.000  C
  H39      1.0000 0.18090  0.24060  0.68920  Biso   1.000  H
  H40      1.0000 0.81910  0.75940  0.31080  Biso   1.000  H
