data_image0
_cell_length_a       15.34
_cell_length_b       17.579
_cell_length_c       6.997
_cell_angle_alpha    90
_cell_angle_beta     90
_cell_angle_gamma    90

_symmetry_space_group_name_H-M    "P 1"
_symmetry_int_tables_number       1

loop_
  _symmetry_equiv_pos_as_xyz
  'x, y, z'

loop_
  _atom_site_label
  _atom_site_occupancy
  _atom_site_fract_x
  _atom_site_fract_y
  _atom_site_fract_z
  _atom_site_thermal_displace_type
  _atom_site_B_iso_or_equiv
  _atom_site_type_symbol
  Cu1      1.0000 0.00822  0.75000  0.73960  Biso   1.000  Cu
  Cu2      1.0000 0.49178  0.25000  0.23960  Biso   1.000  Cu
  Cu3      1.0000 0.99178  0.25000  0.26040  Biso   1.000  Cu
  Cu4      1.0000 0.50822  0.75000  0.76040  Biso   1.000  Cu
  Cu5      1.0000 0.13283  0.64968  0.78852  Biso   1.000  Cu
  Cu6      1.0000 0.36717  0.35032  0.28852  Biso   1.000  Cu
  Cu7      1.0000 0.86717  0.14968  0.21148  Biso   1.000  Cu
  Cu8      1.0000 0.63283  0.85032  0.71148  Biso   1.000  Cu
  Cu9      1.0000 0.86717  0.35032  0.21148  Biso   1.000  Cu
  Cu10     1.0000 0.63283  0.64968  0.71148  Biso   1.000  Cu
  Cu11     1.0000 0.13283  0.85032  0.78852  Biso   1.000  Cu
  Cu12     1.0000 0.36717  0.14968  0.28852  Biso   1.000  Cu
  I1       1.0000 0.09448  0.75000  0.07104  Biso   1.000  I
  I2       1.0000 0.40552  0.25000  0.57104  Biso   1.000  I
  I3       1.0000 0.90552  0.25000  0.92896  Biso   1.000  I
  I4       1.0000 0.59448  0.75000  0.42896  Biso   1.000  I
  I5       1.0000 0.97759  0.62361  0.58942  Biso   1.000  I
  I6       1.0000 0.52241  0.37639  0.08942  Biso   1.000  I
  I7       1.0000 0.02241  0.12361  0.41058  Biso   1.000  I
  I8       1.0000 0.47759  0.87639  0.91058  Biso   1.000  I
  I9       1.0000 0.02241  0.37639  0.41058  Biso   1.000  I
  I10      1.0000 0.47759  0.62361  0.91058  Biso   1.000  I
  I11      1.0000 0.97759  0.87639  0.58942  Biso   1.000  I
  I12      1.0000 0.52241  0.12361  0.08942  Biso   1.000  I
  N1       1.0000 0.21100  0.71070  0.60990  Biso   1.000  N
  N2       1.0000 0.28900  0.28930  0.10990  Biso   1.000  N
  N3       1.0000 0.78900  0.21070  0.39010  Biso   1.000  N
  N4       1.0000 0.71100  0.78930  0.89010  Biso   1.000  N
  N5       1.0000 0.78900  0.28930  0.39010  Biso   1.000  N
  N6       1.0000 0.71100  0.71070  0.89010  Biso   1.000  N
  N7       1.0000 0.21100  0.78930  0.60990  Biso   1.000  N
  N8       1.0000 0.28900  0.21070  0.10990  Biso   1.000  N
  N9       1.0000 0.30050  0.75000  0.38630  Biso   1.000  N
  N10      1.0000 0.19950  0.25000  0.88630  Biso   1.000  N
  N11      1.0000 0.69950  0.25000  0.61370  Biso   1.000  N
  N12      1.0000 0.80050  0.75000  0.11370  Biso   1.000  N
  N13      1.0000 0.34350  0.75000  0.21600  Biso   1.000  N
  N14      1.0000 0.15650  0.25000  0.71600  Biso   1.000  N
  N15      1.0000 0.65650  0.25000  0.78400  Biso   1.000  N
  N16      1.0000 0.84350  0.75000  0.28400  Biso   1.000  N
  N17      1.0000 0.33300  0.45740  0.36390  Biso   1.000  N
  N18      1.0000 0.16700  0.54260  0.86390  Biso   1.000  N
  N19      1.0000 0.66700  0.95740  0.63610  Biso   1.000  N
  N20      1.0000 0.83300  0.04260  0.13610  Biso   1.000  N
  N21      1.0000 0.66700  0.54260  0.63610  Biso   1.000  N
  N22      1.0000 0.83300  0.45740  0.13610  Biso   1.000  N
  N23      1.0000 0.33300  0.04260  0.36390  Biso   1.000  N
  N24      1.0000 0.16700  0.95740  0.86390  Biso   1.000  N
  C1       1.0000 0.26520  0.68830  0.47390  Biso   1.000  C
  C2       1.0000 0.23480  0.31170  0.97390  Biso   1.000  C
  C3       1.0000 0.73480  0.18830  0.52610  Biso   1.000  C
  C4       1.0000 0.76520  0.81170  0.02610  Biso   1.000  C
  C5       1.0000 0.73480  0.31170  0.52610  Biso   1.000  C
  C6       1.0000 0.76520  0.68830  0.02610  Biso   1.000  C
  C7       1.0000 0.26520  0.81170  0.47390  Biso   1.000  C
  C8       1.0000 0.23480  0.18830  0.97390  Biso   1.000  C
  C9       1.0000 0.24890  0.47700  0.38490  Biso   1.000  C
  C10      1.0000 0.25110  0.52300  0.88490  Biso   1.000  C
  C11      1.0000 0.75110  0.97700  0.61510  Biso   1.000  C
  C12      1.0000 0.74890  0.02300  0.11510  Biso   1.000  C
  C13      1.0000 0.75110  0.52300  0.61510  Biso   1.000  C
  C14      1.0000 0.74890  0.47700  0.11510  Biso   1.000  C
  C15      1.0000 0.24890  0.02300  0.38490  Biso   1.000  C
  C16      1.0000 0.25110  0.97700  0.88490  Biso   1.000  C
  H1       1.0000 0.20620  0.43960  0.37830  Biso   1.000  H
  H2       1.0000 0.29380  0.56040  0.87830  Biso   1.000  H
  H3       1.0000 0.79380  0.93960  0.62170  Biso   1.000  H
  H4       1.0000 0.70620  0.06040  0.12170  Biso   1.000  H
  H5       1.0000 0.79380  0.56040  0.62170  Biso   1.000  H
  H6       1.0000 0.70620  0.43960  0.12170  Biso   1.000  H
  H7       1.0000 0.20620  0.06040  0.37830  Biso   1.000  H
  H8       1.0000 0.29380  0.93960  0.87830  Biso   1.000  H
  C17      1.0000 0.22430  0.55210  0.41630  Biso   1.000  C
  C18      1.0000 0.27570  0.44790  0.91630  Biso   1.000  C
  C19      1.0000 0.77570  0.05210  0.58370  Biso   1.000  C
  C20      1.0000 0.72430  0.94790  0.08370  Biso   1.000  C
  C21      1.0000 0.77570  0.44790  0.58370  Biso   1.000  C
  C22      1.0000 0.72430  0.55210  0.08370  Biso   1.000  C
  C23      1.0000 0.22430  0.94790  0.41630  Biso   1.000  C
  C24      1.0000 0.27570  0.05210  0.91630  Biso   1.000  C
  H9       1.0000 0.16570  0.56440  0.42880  Biso   1.000  H
  H10      1.0000 0.33430  0.43560  0.92880  Biso   1.000  H
  H11      1.0000 0.83430  0.06440  0.57120  Biso   1.000  H
  H12      1.0000 0.66570  0.93560  0.07120  Biso   1.000  H
  H13      1.0000 0.83430  0.43560  0.57120  Biso   1.000  H
  H14      1.0000 0.66570  0.56440  0.07120  Biso   1.000  H
  H15      1.0000 0.16570  0.93560  0.42880  Biso   1.000  H
  H16      1.0000 0.33430  0.06440  0.92880  Biso   1.000  H
  C25      1.0000 0.28670  0.60840  0.42910  Biso   1.000  C
  C26      1.0000 0.21330  0.39160  0.92910  Biso   1.000  C
  C27      1.0000 0.71330  0.10840  0.57090  Biso   1.000  C
  C28      1.0000 0.78670  0.89160  0.07090  Biso   1.000  C
  C29      1.0000 0.71330  0.39160  0.57090  Biso   1.000  C
  C30      1.0000 0.78670  0.60840  0.07090  Biso   1.000  C
  C31      1.0000 0.28670  0.89160  0.42910  Biso   1.000  C
  C32      1.0000 0.21330  0.10840  0.92910  Biso   1.000  C
  C33      1.0000 0.37310  0.58760  0.40640  Biso   1.000  C
  C34      1.0000 0.12690  0.41240  0.90640  Biso   1.000  C
  C35      1.0000 0.62690  0.08760  0.59360  Biso   1.000  C
  C36      1.0000 0.87310  0.91240  0.09360  Biso   1.000  C
  C37      1.0000 0.62690  0.41240  0.59360  Biso   1.000  C
  C38      1.0000 0.87310  0.58760  0.09360  Biso   1.000  C
  C39      1.0000 0.37310  0.91240  0.40640  Biso   1.000  C
  C40      1.0000 0.12690  0.08760  0.90640  Biso   1.000  C
  H17      1.0000 0.41720  0.62380  0.41340  Biso   1.000  H
  H18      1.0000 0.08280  0.37620  0.91340  Biso   1.000  H
  H19      1.0000 0.58280  0.12380  0.58660  Biso   1.000  H
  H20      1.0000 0.91720  0.87620  0.08660  Biso   1.000  H
  H21      1.0000 0.58280  0.37620  0.58660  Biso   1.000  H
  H22      1.0000 0.91720  0.62380  0.08660  Biso   1.000  H
  H23      1.0000 0.41720  0.87620  0.41340  Biso   1.000  H
  H24      1.0000 0.08280  0.12380  0.91340  Biso   1.000  H
  C41      1.0000 0.39280  0.51110  0.37290  Biso   1.000  C
  C42      1.0000 0.10720  0.48890  0.87290  Biso   1.000  C
  C43      1.0000 0.60720  0.01110  0.62710  Biso   1.000  C
  C44      1.0000 0.89280  0.98890  0.12710  Biso   1.000  C
  C45      1.0000 0.60720  0.48890  0.62710  Biso   1.000  C
  C46      1.0000 0.89280  0.51110  0.12710  Biso   1.000  C
  C47      1.0000 0.39280  0.98890  0.37290  Biso   1.000  C
  C48      1.0000 0.10720  0.01110  0.87290  Biso   1.000  C
  H25      1.0000 0.45090  0.49750  0.35620  Biso   1.000  H
  H26      1.0000 0.04910  0.50250  0.85620  Biso   1.000  H
  H27      1.0000 0.54910  0.99750  0.64380  Biso   1.000  H
  H28      1.0000 0.95090  0.00250  0.14380  Biso   1.000  H
  H29      1.0000 0.54910  0.50250  0.64380  Biso   1.000  H
  H30      1.0000 0.95090  0.49750  0.14380  Biso   1.000  H
  H31      1.0000 0.45090  0.00250  0.35620  Biso   1.000  H
  H32      1.0000 0.04910  0.99750  0.85620  Biso   1.000  H
  H33      1.0000 0.37200  0.71040  0.19000  Biso   1.000  H
  H34      1.0000 0.12800  0.28960  0.69000  Biso   1.000  H
  H35      1.0000 0.62800  0.21040  0.81000  Biso   1.000  H
  H36      1.0000 0.87200  0.78960  0.31000  Biso   1.000  H
  H37      1.0000 0.62800  0.28960  0.81000  Biso   1.000  H
  H38      1.0000 0.87200  0.71040  0.31000  Biso   1.000  H
  H39      1.0000 0.37200  0.78960  0.19000  Biso   1.000  H
  H40      1.0000 0.12800  0.21040  0.69000  Biso   1.000  H
