data_image0
_cell_length_a       7.7045
_cell_length_b       13.3663
_cell_length_c       14.6717
_cell_angle_alpha    90
_cell_angle_beta     120.289
_cell_angle_gamma    90

_symmetry_space_group_name_H-M    "P 1"
_symmetry_int_tables_number       1

loop_
  _symmetry_equiv_pos_as_xyz
  'x, y, z'

loop_
  _atom_site_label
  _atom_site_occupancy
  _atom_site_fract_x
  _atom_site_fract_y
  _atom_site_fract_z
  _atom_site_thermal_displace_type
  _atom_site_B_iso_or_equiv
  _atom_site_type_symbol
  N1       1.0000 0.78210  0.63250  0.33568  Biso   1.000  N
  N2       1.0000 0.21790  0.13250  0.16432  Biso   1.000  N
  N3       1.0000 0.21790  0.36750  0.66432  Biso   1.000  N
  N4       1.0000 0.78210  0.86750  0.83568  Biso   1.000  N
  N5       1.0000 0.97250  0.59090  0.38400  Biso   1.000  N
  N6       1.0000 0.02750  0.09090  0.11600  Biso   1.000  N
  N7       1.0000 0.02750  0.40910  0.61600  Biso   1.000  N
  N8       1.0000 0.97250  0.90910  0.88400  Biso   1.000  N
  N9       1.0000 0.00360  0.75031  0.42293  Biso   1.000  N
  N10      1.0000 0.99640  0.25031  0.07707  Biso   1.000  N
  N11      1.0000 0.99640  0.24969  0.57707  Biso   1.000  N
  N12      1.0000 0.00360  0.74969  0.92293  Biso   1.000  N
  N13      1.0000 0.10380  0.84120  0.46860  Biso   1.000  N
  N14      1.0000 0.89620  0.34120  0.03140  Biso   1.000  N
  N15      1.0000 0.89620  0.15880  0.53140  Biso   1.000  N
  N16      1.0000 0.10380  0.65880  0.96860  Biso   1.000  N
  H1       1.0000 0.06480  0.88320  0.41820  Biso   1.000  H
  H2       1.0000 0.93520  0.38320  0.08180  Biso   1.000  H
  H3       1.0000 0.93520  0.11680  0.58180  Biso   1.000  H
  H4       1.0000 0.06480  0.61680  0.91820  Biso   1.000  H
  H5       1.0000 0.05230  0.85650  0.50630  Biso   1.000  H
  H6       1.0000 0.94770  0.35650  0.99370  Biso   1.000  H
  H7       1.0000 0.94770  0.14350  0.49370  Biso   1.000  H
  H8       1.0000 0.05230  0.64350  0.00630  Biso   1.000  H
  C1       1.0000 0.80170  0.72800  0.35980  Biso   1.000  C
  C2       1.0000 0.19830  0.22800  0.14020  Biso   1.000  C
  C3       1.0000 0.19830  0.27200  0.64020  Biso   1.000  C
  C4       1.0000 0.80170  0.77200  0.85980  Biso   1.000  C
  C5       1.0000 0.10120  0.66270  0.43622  Biso   1.000  C
  C6       1.0000 0.89880  0.16270  0.06378  Biso   1.000  C
  C7       1.0000 0.89880  0.33730  0.56378  Biso   1.000  C
  C8       1.0000 0.10120  0.83730  0.93622  Biso   1.000  C
  C9       1.0000 0.62450  0.79280  0.32570  Biso   1.000  C
  C10      1.0000 0.37550  0.29280  0.17430  Biso   1.000  C
  C11      1.0000 0.37550  0.20720  0.67430  Biso   1.000  C
  C12      1.0000 0.62450  0.70720  0.82570  Biso   1.000  C
  C13      1.0000 0.43870  0.74920  0.25560  Biso   1.000  C
  C14      1.0000 0.56130  0.24920  0.24440  Biso   1.000  C
  C15      1.0000 0.56130  0.25080  0.74440  Biso   1.000  C
  C16      1.0000 0.43870  0.75080  0.75560  Biso   1.000  C
  H9       1.0000 0.43240  0.68530  0.22900  Biso   1.000  H
  H10      1.0000 0.56760  0.18530  0.27100  Biso   1.000  H
  H11      1.0000 0.56760  0.31470  0.77100  Biso   1.000  H
  H12      1.0000 0.43240  0.81470  0.72900  Biso   1.000  H
  C17      1.0000 0.31960  0.64440  0.50570  Biso   1.000  C
  C18      1.0000 0.68040  0.14440  0.99430  Biso   1.000  C
  C19      1.0000 0.68040  0.35560  0.49430  Biso   1.000  C
  C20      1.0000 0.31960  0.85560  0.00570  Biso   1.000  C
  C21      1.0000 0.47010  0.70620  0.51250  Biso   1.000  C
  C22      1.0000 0.52990  0.20620  0.98750  Biso   1.000  C
  C23      1.0000 0.52990  0.29380  0.48750  Biso   1.000  C
  C24      1.0000 0.47010  0.79380  0.01250  Biso   1.000  C
  H13      1.0000 0.43900  0.76600  0.47520  Biso   1.000  H
  H14      1.0000 0.56100  0.26600  0.02480  Biso   1.000  H
  H15      1.0000 0.56100  0.23400  0.52480  Biso   1.000  H
  H16      1.0000 0.43900  0.73400  0.97520  Biso   1.000  H
  C25      1.0000 0.26580  0.80240  0.22680  Biso   1.000  C
  C26      1.0000 0.73420  0.30240  0.27320  Biso   1.000  C
  C27      1.0000 0.73420  0.19760  0.77320  Biso   1.000  C
  C28      1.0000 0.26580  0.69760  0.72680  Biso   1.000  C
  H17      1.0000 0.14340  0.77210  0.18110  Biso   1.000  H
  H18      1.0000 0.85660  0.27210  0.31890  Biso   1.000  H
  H19      1.0000 0.85660  0.22790  0.81890  Biso   1.000  H
  H20      1.0000 0.14340  0.72790  0.68110  Biso   1.000  H
  N17      1.0000 0.26290  0.89510  0.26053  Biso   1.000  N
  N18      1.0000 0.73710  0.39510  0.23947  Biso   1.000  N
  N19      1.0000 0.73710  0.10490  0.73947  Biso   1.000  N
  N20      1.0000 0.26290  0.60490  0.76053  Biso   1.000  N
  C29      1.0000 0.44220  0.93650  0.32780  Biso   1.000  C
  C30      1.0000 0.55780  0.43650  0.17220  Biso   1.000  C
  C31      1.0000 0.55780  0.06350  0.67220  Biso   1.000  C
  C32      1.0000 0.44220  0.56350  0.82780  Biso   1.000  C
  H21      1.0000 0.44430  0.00050  0.35320  Biso   1.000  H
  H22      1.0000 0.55570  0.50050  0.14680  Biso   1.000  H
  H23      1.0000 0.55570  0.99950  0.64680  Biso   1.000  H
  H24      1.0000 0.44430  0.49950  0.85320  Biso   1.000  H
  C33      1.0000 0.62360  0.88850  0.36100  Biso   1.000  C
  C34      1.0000 0.37640  0.38850  0.13900  Biso   1.000  C
  C35      1.0000 0.37640  0.11150  0.63900  Biso   1.000  C
  C36      1.0000 0.62360  0.61150  0.86100  Biso   1.000  C
  H25      1.0000 0.74400  0.92040  0.40670  Biso   1.000  H
  H26      1.0000 0.25600  0.42040  0.09330  Biso   1.000  H
  H27      1.0000 0.25600  0.07960  0.59330  Biso   1.000  H
  H28      1.0000 0.74400  0.57960  0.90670  Biso   1.000  H
  C37      1.0000 0.37540  0.55700  0.56600  Biso   1.000  C
  C38      1.0000 0.62460  0.05700  0.93400  Biso   1.000  C
  C39      1.0000 0.62460  0.44300  0.43400  Biso   1.000  C
  C40      1.0000 0.37540  0.94300  0.06600  Biso   1.000  C
  H29      1.0000 0.27800  0.51480  0.56450  Biso   1.000  H
  H30      1.0000 0.72200  0.01480  0.93550  Biso   1.000  H
  H31      1.0000 0.72200  0.48520  0.43550  Biso   1.000  H
  H32      1.0000 0.27800  0.98520  0.06450  Biso   1.000  H
  C41      1.0000 0.57690  0.53380  0.62800  Biso   1.000  C
  C42      1.0000 0.42310  0.03380  0.87200  Biso   1.000  C
  C43      1.0000 0.42310  0.46620  0.37200  Biso   1.000  C
  C44      1.0000 0.57690  0.96620  0.12800  Biso   1.000  C
  N21      1.0000 0.72410  0.59163  0.63260  Biso   1.000  N
  N22      1.0000 0.27590  0.09163  0.86740  Biso   1.000  N
  N23      1.0000 0.27590  0.40837  0.36740  Biso   1.000  N
  N24      1.0000 0.72410  0.90837  0.13260  Biso   1.000  N
  C45      1.0000 0.66850  0.67650  0.57650  Biso   1.000  C
  C46      1.0000 0.33150  0.17650  0.92350  Biso   1.000  C
  C47      1.0000 0.33150  0.32350  0.42350  Biso   1.000  C
  C48      1.0000 0.66850  0.82350  0.07650  Biso   1.000  C
  H33      1.0000 0.76890  0.71810  0.58070  Biso   1.000  H
  H34      1.0000 0.23110  0.21810  0.91930  Biso   1.000  H
  H35      1.0000 0.23110  0.28190  0.41930  Biso   1.000  H
  H36      1.0000 0.76890  0.78190  0.08070  Biso   1.000  H
  Cu1      1.0000 0.00042  0.96965  0.20015  Biso   1.000  Cu
  Cu2      1.0000 0.99958  0.46965  0.29985  Biso   1.000  Cu
  Cu3      1.0000 0.99958  0.03035  0.79985  Biso   1.000  Cu
  Cu4      1.0000 0.00042  0.53035  0.70015  Biso   1.000  Cu
  Br1      1.0000 0.03222  0.07355  0.35447  Biso   1.000  Br
  Br2      1.0000 0.96778  0.57355  0.14553  Biso   1.000  Br
  Br3      1.0000 0.96778  0.92645  0.64553  Biso   1.000  Br
  Br4      1.0000 0.03222  0.42645  0.85447  Biso   1.000  Br
  H37      1.0000 0.62100  0.47300  0.67200  Biso   1.000  H
  H38      1.0000 0.37900  0.97300  0.82800  Biso   1.000  H
  H39      1.0000 0.37900  0.52700  0.32800  Biso   1.000  H
  H40      1.0000 0.62100  0.02700  0.17200  Biso   1.000  H
