data_image0
_cell_length_a       7.126
_cell_length_b       12.5407
_cell_length_c       30.918
_cell_angle_alpha    90
_cell_angle_beta     90
_cell_angle_gamma    90

_symmetry_space_group_name_H-M    "P 1"
_symmetry_int_tables_number       1

loop_
  _symmetry_equiv_pos_as_xyz
  'x, y, z'

loop_
  _atom_site_label
  _atom_site_occupancy
  _atom_site_fract_x
  _atom_site_fract_y
  _atom_site_fract_z
  _atom_site_thermal_displace_type
  _atom_site_B_iso_or_equiv
  _atom_site_type_symbol
  Cu1      1.0000 0.80722  0.10700  0.35897  Biso   1.000  Cu
  Cu2      1.0000 0.69278  0.89300  0.85897  Biso   1.000  Cu
  Cu3      1.0000 0.19278  0.60700  0.14103  Biso   1.000  Cu
  Cu4      1.0000 0.30722  0.39300  0.64103  Biso   1.000  Cu
  Cu5      1.0000 0.19278  0.89300  0.64103  Biso   1.000  Cu
  Cu6      1.0000 0.30722  0.10700  0.14103  Biso   1.000  Cu
  Cu7      1.0000 0.80722  0.39300  0.85897  Biso   1.000  Cu
  Cu8      1.0000 0.69278  0.60700  0.35897  Biso   1.000  Cu
  Cu9      1.0000 0.60998  0.28944  0.41770  Biso   1.000  Cu
  Cu10     1.0000 0.89002  0.71056  0.91770  Biso   1.000  Cu
  Cu11     1.0000 0.39002  0.78944  0.08230  Biso   1.000  Cu
  Cu12     1.0000 0.10998  0.21056  0.58230  Biso   1.000  Cu
  Cu13     1.0000 0.39002  0.71056  0.58230  Biso   1.000  Cu
  Cu14     1.0000 0.10998  0.28944  0.08230  Biso   1.000  Cu
  Cu15     1.0000 0.60998  0.21056  0.91770  Biso   1.000  Cu
  Cu16     1.0000 0.89002  0.78944  0.41770  Biso   1.000  Cu
  Cl1      1.0000 0.50795  0.20058  0.36121  Biso   1.000  Cl
  Cl2      1.0000 0.99205  0.79942  0.86121  Biso   1.000  Cl
  Cl3      1.0000 0.49205  0.70058  0.13879  Biso   1.000  Cl
  Cl4      1.0000 0.00795  0.29942  0.63879  Biso   1.000  Cl
  Cl5      1.0000 0.49205  0.79942  0.63879  Biso   1.000  Cl
  Cl6      1.0000 0.00795  0.20058  0.13879  Biso   1.000  Cl
  Cl7      1.0000 0.50795  0.29942  0.86121  Biso   1.000  Cl
  Cl8      1.0000 0.99205  0.70058  0.36121  Biso   1.000  Cl
  Cl9      1.0000 0.79820  0.96981  0.41037  Biso   1.000  Cl
  Cl10     1.0000 0.70180  0.03019  0.91037  Biso   1.000  Cl
  Cl11     1.0000 0.20180  0.46981  0.08963  Biso   1.000  Cl
  Cl12     1.0000 0.29820  0.53019  0.58963  Biso   1.000  Cl
  Cl13     1.0000 0.20180  0.03019  0.58963  Biso   1.000  Cl
  Cl14     1.0000 0.29820  0.96981  0.08963  Biso   1.000  Cl
  Cl15     1.0000 0.79820  0.53019  0.91037  Biso   1.000  Cl
  Cl16     1.0000 0.70180  0.46981  0.41037  Biso   1.000  Cl
  N1       1.0000 0.86520  0.88310  0.14002  Biso   1.000  N
  N2       1.0000 0.63480  0.11690  0.64002  Biso   1.000  N
  N3       1.0000 0.13480  0.38310  0.35998  Biso   1.000  N
  N4       1.0000 0.36520  0.61690  0.85998  Biso   1.000  N
  N5       1.0000 0.13480  0.11690  0.85998  Biso   1.000  N
  N6       1.0000 0.36520  0.88310  0.35998  Biso   1.000  N
  N7       1.0000 0.86520  0.61690  0.64002  Biso   1.000  N
  N8       1.0000 0.63480  0.38310  0.14002  Biso   1.000  N
  N9       1.0000 0.98540  0.76570  0.18380  Biso   1.000  N
  N10      1.0000 0.51460  0.23430  0.68380  Biso   1.000  N
  N11      1.0000 0.01460  0.26570  0.31620  Biso   1.000  N
  N12      1.0000 0.48540  0.73430  0.81620  Biso   1.000  N
  N13      1.0000 0.01460  0.23430  0.81620  Biso   1.000  N
  N14      1.0000 0.48540  0.76570  0.31620  Biso   1.000  N
  N15      1.0000 0.98540  0.73430  0.68380  Biso   1.000  N
  N16      1.0000 0.51460  0.26570  0.18380  Biso   1.000  N
  N17      1.0000 0.99960  0.72720  0.14238  Biso   1.000  N
  N18      1.0000 0.50040  0.27280  0.64238  Biso   1.000  N
  N19      1.0000 0.00040  0.22720  0.35762  Biso   1.000  N
  N20      1.0000 0.49960  0.77280  0.85762  Biso   1.000  N
  N21      1.0000 0.00040  0.27280  0.85762  Biso   1.000  N
  N22      1.0000 0.49960  0.72720  0.35762  Biso   1.000  N
  N23      1.0000 0.99960  0.77280  0.64238  Biso   1.000  N
  N24      1.0000 0.50040  0.22720  0.14238  Biso   1.000  N
  N25      1.0000 0.77260  0.97140  0.12192  Biso   1.000  N
  N26      1.0000 0.72740  0.02860  0.62192  Biso   1.000  N
  N27      1.0000 0.22740  0.47140  0.37808  Biso   1.000  N
  N28      1.0000 0.27260  0.52860  0.87808  Biso   1.000  N
  N29      1.0000 0.22740  0.02860  0.87808  Biso   1.000  N
  N30      1.0000 0.27260  0.97140  0.37808  Biso   1.000  N
  N31      1.0000 0.77260  0.52860  0.62192  Biso   1.000  N
  N32      1.0000 0.72740  0.47140  0.12192  Biso   1.000  N
  H1       1.0000 0.65500  0.97200  0.13220  Biso   1.000  H
  H2       1.0000 0.84500  0.02800  0.63220  Biso   1.000  H
  H3       1.0000 0.34500  0.47200  0.36780  Biso   1.000  H
  H4       1.0000 0.15500  0.52800  0.86780  Biso   1.000  H
  H5       1.0000 0.34500  0.02800  0.86780  Biso   1.000  H
  H6       1.0000 0.15500  0.97200  0.36780  Biso   1.000  H
  H7       1.0000 0.65500  0.52800  0.63220  Biso   1.000  H
  H8       1.0000 0.84500  0.47200  0.13220  Biso   1.000  H
  H9       1.0000 0.83900  0.02100  0.12620  Biso   1.000  H
  H10      1.0000 0.66100  0.97900  0.62620  Biso   1.000  H
  H11      1.0000 0.16100  0.52100  0.37380  Biso   1.000  H
  H12      1.0000 0.33900  0.47900  0.87380  Biso   1.000  H
  H13      1.0000 0.16100  0.97900  0.87380  Biso   1.000  H
  H14      1.0000 0.33900  0.02100  0.37380  Biso   1.000  H
  H15      1.0000 0.83900  0.47900  0.62620  Biso   1.000  H
  H16      1.0000 0.66100  0.52100  0.12620  Biso   1.000  H
  N33      1.0000 0.81720  0.02990  0.30027  Biso   1.000  N
  N34      1.0000 0.68280  0.97010  0.80027  Biso   1.000  N
  N35      1.0000 0.18280  0.52990  0.19973  Biso   1.000  N
  N36      1.0000 0.31720  0.47010  0.69973  Biso   1.000  N
  N37      1.0000 0.18280  0.97010  0.69973  Biso   1.000  N
  N38      1.0000 0.31720  0.02990  0.19973  Biso   1.000  N
  N39      1.0000 0.81720  0.47010  0.80027  Biso   1.000  N
  N40      1.0000 0.68280  0.52990  0.30027  Biso   1.000  N
  N41      1.0000 0.88070  0.74200  0.98027  Biso   1.000  N
  N42      1.0000 0.61930  0.25800  0.48027  Biso   1.000  N
  N43      1.0000 0.11930  0.24200  0.51973  Biso   1.000  N
  N44      1.0000 0.38070  0.75800  0.01973  Biso   1.000  N
  N45      1.0000 0.11930  0.25800  0.01973  Biso   1.000  N
  N46      1.0000 0.38070  0.74200  0.51973  Biso   1.000  N
  N47      1.0000 0.88070  0.75800  0.48027  Biso   1.000  N
  N48      1.0000 0.61930  0.24200  0.98027  Biso   1.000  N
  C1       1.0000 0.90510  0.85950  0.18203  Biso   1.000  C
  C2       1.0000 0.59490  0.14050  0.68203  Biso   1.000  C
  C3       1.0000 0.09490  0.35950  0.31797  Biso   1.000  C
  C4       1.0000 0.40510  0.64050  0.81797  Biso   1.000  C
  C5       1.0000 0.09490  0.14050  0.81797  Biso   1.000  C
  C6       1.0000 0.40510  0.85950  0.31797  Biso   1.000  C
  C7       1.0000 0.90510  0.64050  0.68203  Biso   1.000  C
  C8       1.0000 0.59490  0.35950  0.18203  Biso   1.000  C
  C9       1.0000 0.92450  0.79820  0.11576  Biso   1.000  C
  C10      1.0000 0.57550  0.20180  0.61576  Biso   1.000  C
  C11      1.0000 0.07550  0.29820  0.38424  Biso   1.000  C
  C12      1.0000 0.42450  0.70180  0.88424  Biso   1.000  C
  C13      1.0000 0.07550  0.20180  0.88424  Biso   1.000  C
  C14      1.0000 0.42450  0.79820  0.38424  Biso   1.000  C
  C15      1.0000 0.92450  0.70180  0.61576  Biso   1.000  C
  C16      1.0000 0.57550  0.29820  0.11576  Biso   1.000  C
  C17      1.0000 0.79290  0.07790  0.26195  Biso   1.000  C
  C18      1.0000 0.70710  0.92210  0.76195  Biso   1.000  C
  C19      1.0000 0.20710  0.57790  0.23805  Biso   1.000  C
  C20      1.0000 0.29290  0.42210  0.73805  Biso   1.000  C
  C21      1.0000 0.20710  0.92210  0.73805  Biso   1.000  C
  C22      1.0000 0.29290  0.07790  0.23805  Biso   1.000  C
  C23      1.0000 0.79290  0.42210  0.76195  Biso   1.000  C
  C24      1.0000 0.70710  0.57790  0.26195  Biso   1.000  C
  H17      1.0000 0.74900  0.14400  0.26510  Biso   1.000  H
  H18      1.0000 0.75100  0.85600  0.76510  Biso   1.000  H
  H19      1.0000 0.25100  0.64400  0.23490  Biso   1.000  H
  H20      1.0000 0.24900  0.35600  0.73490  Biso   1.000  H
  H21      1.0000 0.25100  0.85600  0.73490  Biso   1.000  H
  H22      1.0000 0.24900  0.14400  0.23490  Biso   1.000  H
  H23      1.0000 0.74900  0.35600  0.76510  Biso   1.000  H
  H24      1.0000 0.75100  0.64400  0.26510  Biso   1.000  H
  C25      1.0000 0.81530  0.02920  0.22246  Biso   1.000  C
  C26      1.0000 0.68470  0.97080  0.72246  Biso   1.000  C
  C27      1.0000 0.18470  0.52920  0.27754  Biso   1.000  C
  C28      1.0000 0.31530  0.47080  0.77754  Biso   1.000  C
  C29      1.0000 0.18470  0.97080  0.77754  Biso   1.000  C
  C30      1.0000 0.31530  0.02920  0.27754  Biso   1.000  C
  C31      1.0000 0.81530  0.47080  0.72246  Biso   1.000  C
  C32      1.0000 0.68470  0.52920  0.22246  Biso   1.000  C
  H25      1.0000 0.79200  0.06600  0.20230  Biso   1.000  H
  H26      1.0000 0.70800  0.93400  0.70230  Biso   1.000  H
  H27      1.0000 0.20800  0.56600  0.29770  Biso   1.000  H
  H28      1.0000 0.29200  0.43400  0.79770  Biso   1.000  H
  H29      1.0000 0.20800  0.93400  0.79770  Biso   1.000  H
  H30      1.0000 0.29200  0.06600  0.29770  Biso   1.000  H
  H31      1.0000 0.79200  0.43400  0.70230  Biso   1.000  H
  H32      1.0000 0.70800  0.56600  0.20230  Biso   1.000  H
  C33      1.0000 0.86980  0.92300  0.22127  Biso   1.000  C
  C34      1.0000 0.63020  0.07700  0.72127  Biso   1.000  C
  C35      1.0000 0.13020  0.42300  0.27873  Biso   1.000  C
  C36      1.0000 0.36980  0.57700  0.77873  Biso   1.000  C
  C37      1.0000 0.13020  0.07700  0.77873  Biso   1.000  C
  C38      1.0000 0.36980  0.92300  0.27873  Biso   1.000  C
  C39      1.0000 0.86980  0.57700  0.72127  Biso   1.000  C
  C40      1.0000 0.63020  0.42300  0.22127  Biso   1.000  C
  C41      1.0000 0.89750  0.87250  0.26067  Biso   1.000  C
  C42      1.0000 0.60250  0.12750  0.76067  Biso   1.000  C
  C43      1.0000 0.10250  0.37250  0.23933  Biso   1.000  C
  C44      1.0000 0.39750  0.62750  0.73933  Biso   1.000  C
  C45      1.0000 0.10250  0.12750  0.73933  Biso   1.000  C
  C46      1.0000 0.39750  0.87250  0.23933  Biso   1.000  C
  C47      1.0000 0.89750  0.62750  0.76067  Biso   1.000  C
  C48      1.0000 0.60250  0.37250  0.26067  Biso   1.000  C
  H33      1.0000 0.93900  0.80800  0.26260  Biso   1.000  H
  H34      1.0000 0.56100  0.19200  0.76260  Biso   1.000  H
  H35      1.0000 0.06100  0.30800  0.23740  Biso   1.000  H
  H36      1.0000 0.43900  0.69200  0.73740  Biso   1.000  H
  H37      1.0000 0.06100  0.19200  0.73740  Biso   1.000  H
  H38      1.0000 0.43900  0.80800  0.23740  Biso   1.000  H
  H39      1.0000 0.93900  0.69200  0.76260  Biso   1.000  H
  H40      1.0000 0.56100  0.30800  0.26260  Biso   1.000  H
  C49      1.0000 0.86870  0.92700  0.29839  Biso   1.000  C
  C50      1.0000 0.63130  0.07300  0.79839  Biso   1.000  C
  C51      1.0000 0.13130  0.42700  0.20161  Biso   1.000  C
  C52      1.0000 0.36870  0.57300  0.70161  Biso   1.000  C
  C53      1.0000 0.13130  0.07300  0.70161  Biso   1.000  C
  C54      1.0000 0.36870  0.92700  0.20161  Biso   1.000  C
  C55      1.0000 0.86870  0.57300  0.79839  Biso   1.000  C
  C56      1.0000 0.63130  0.42700  0.29839  Biso   1.000  C
  H41      1.0000 0.88200  0.89800  0.32040  Biso   1.000  H
  H42      1.0000 0.61800  0.10200  0.82040  Biso   1.000  H
  H43      1.0000 0.11800  0.39800  0.17960  Biso   1.000  H
  H44      1.0000 0.38200  0.60200  0.67960  Biso   1.000  H
  H45      1.0000 0.11800  0.10200  0.67960  Biso   1.000  H
  H46      1.0000 0.38200  0.89800  0.17960  Biso   1.000  H
  H47      1.0000 0.88200  0.60200  0.82040  Biso   1.000  H
  H48      1.0000 0.61800  0.39800  0.32040  Biso   1.000  H
  C57      1.0000 0.88190  0.84170  0.99560  Biso   1.000  C
  C58      1.0000 0.61810  0.15830  0.49560  Biso   1.000  C
  C59      1.0000 0.11810  0.34170  0.50440  Biso   1.000  C
  C60      1.0000 0.38190  0.65830  0.00440  Biso   1.000  C
  C61      1.0000 0.11810  0.15830  0.00440  Biso   1.000  C
  C62      1.0000 0.38190  0.84170  0.50440  Biso   1.000  C
  C63      1.0000 0.88190  0.65830  0.49560  Biso   1.000  C
  C64      1.0000 0.61810  0.34170  0.99560  Biso   1.000  C
  H49      1.0000 0.87700  0.90200  0.97460  Biso   1.000  H
  H50      1.0000 0.62300  0.09800  0.47460  Biso   1.000  H
  H51      1.0000 0.12300  0.40200  0.52540  Biso   1.000  H
  H52      1.0000 0.37700  0.59800  0.02540  Biso   1.000  H
  H53      1.0000 0.12300  0.09800  0.02540  Biso   1.000  H
  H54      1.0000 0.37700  0.90200  0.52540  Biso   1.000  H
  H55      1.0000 0.87700  0.59800  0.47460  Biso   1.000  H
  H56      1.0000 0.62300  0.40200  0.97460  Biso   1.000  H
  C65      1.0000 0.89540  0.86410  0.03902  Biso   1.000  C
  C66      1.0000 0.60460  0.13590  0.53902  Biso   1.000  C
  C67      1.0000 0.10460  0.36410  0.46098  Biso   1.000  C
  C68      1.0000 0.39540  0.63590  0.96098  Biso   1.000  C
  C69      1.0000 0.10460  0.13590  0.96098  Biso   1.000  C
  C70      1.0000 0.39540  0.86410  0.46098  Biso   1.000  C
  C71      1.0000 0.89540  0.63590  0.53902  Biso   1.000  C
  C72      1.0000 0.60460  0.36410  0.03902  Biso   1.000  C
  H57      1.0000 0.90100  0.93100  0.04600  Biso   1.000  H
  H58      1.0000 0.59900  0.06900  0.54600  Biso   1.000  H
  H59      1.0000 0.09900  0.43100  0.45400  Biso   1.000  H
  H60      1.0000 0.40100  0.56900  0.95400  Biso   1.000  H
  H61      1.0000 0.09900  0.06900  0.95400  Biso   1.000  H
  H62      1.0000 0.40100  0.93100  0.45400  Biso   1.000  H
  H63      1.0000 0.90100  0.56900  0.54600  Biso   1.000  H
  H64      1.0000 0.59900  0.43100  0.04600  Biso   1.000  H
  C73      1.0000 0.90390  0.78310  0.06900  Biso   1.000  C
  C74      1.0000 0.59610  0.21690  0.56900  Biso   1.000  C
  C75      1.0000 0.09610  0.28310  0.43100  Biso   1.000  C
  C76      1.0000 0.40390  0.71690  0.93100  Biso   1.000  C
  C77      1.0000 0.09610  0.21690  0.93100  Biso   1.000  C
  C78      1.0000 0.40390  0.78310  0.43100  Biso   1.000  C
  C79      1.0000 0.90390  0.71690  0.56900  Biso   1.000  C
  C80      1.0000 0.59610  0.28310  0.06900  Biso   1.000  C
  C81      1.0000 0.89870  0.67970  0.05255  Biso   1.000  C
  C82      1.0000 0.60130  0.32030  0.55255  Biso   1.000  C
  C83      1.0000 0.10130  0.17970  0.44745  Biso   1.000  C
  C84      1.0000 0.39870  0.82030  0.94745  Biso   1.000  C
  C85      1.0000 0.10130  0.32030  0.94745  Biso   1.000  C
  C86      1.0000 0.39870  0.67970  0.44745  Biso   1.000  C
  C87      1.0000 0.89870  0.82030  0.55255  Biso   1.000  C
  C88      1.0000 0.60130  0.17970  0.05255  Biso   1.000  C
  H65      1.0000 0.91300  0.62700  0.06860  Biso   1.000  H
  H66      1.0000 0.58700  0.37300  0.56860  Biso   1.000  H
  H67      1.0000 0.08700  0.12700  0.43140  Biso   1.000  H
  H68      1.0000 0.41300  0.87300  0.93140  Biso   1.000  H
  H69      1.0000 0.08700  0.37300  0.93140  Biso   1.000  H
  H70      1.0000 0.41300  0.62700  0.43140  Biso   1.000  H
  H71      1.0000 0.91300  0.87300  0.56860  Biso   1.000  H
  H72      1.0000 0.58700  0.12700  0.06860  Biso   1.000  H
  C89      1.0000 0.88810  0.66330  0.00931  Biso   1.000  C
  C90      1.0000 0.61190  0.33670  0.50931  Biso   1.000  C
  C91      1.0000 0.11190  0.16330  0.49069  Biso   1.000  C
  C92      1.0000 0.38810  0.83670  0.99069  Biso   1.000  C
  C93      1.0000 0.11190  0.33670  0.99069  Biso   1.000  C
  C94      1.0000 0.38810  0.66330  0.49069  Biso   1.000  C
  C95      1.0000 0.88810  0.83670  0.50931  Biso   1.000  C
  C96      1.0000 0.61190  0.16330  0.00931  Biso   1.000  C
  H73      1.0000 0.88600  0.59300  0.99820  Biso   1.000  H
  H74      1.0000 0.61400  0.40700  0.49820  Biso   1.000  H
  H75      1.0000 0.11400  0.09300  0.50180  Biso   1.000  H
  H76      1.0000 0.38600  0.90700  0.00180  Biso   1.000  H
  H77      1.0000 0.11400  0.40700  0.00180  Biso   1.000  H
  H78      1.0000 0.38600  0.59300  0.50180  Biso   1.000  H
  H79      1.0000 0.88600  0.90700  0.49820  Biso   1.000  H
  H80      1.0000 0.61400  0.09300  0.99820  Biso   1.000  H
