data_image0
_cell_length_a       7.4912
_cell_length_b       9.1875
_cell_length_c       10.0575
_cell_angle_alpha    100.104
_cell_angle_beta     102.747
_cell_angle_gamma    92.139

_symmetry_space_group_name_H-M    "P 1"
_symmetry_int_tables_number       1

loop_
  _symmetry_equiv_pos_as_xyz
  'x, y, z'

loop_
  _atom_site_label
  _atom_site_occupancy
  _atom_site_fract_x
  _atom_site_fract_y
  _atom_site_fract_z
  _atom_site_thermal_displace_type
  _atom_site_B_iso_or_equiv
  _atom_site_type_symbol
  Br1      1.0000 0.84781  0.78347  0.04561  Biso   1.000  Br
  Br2      1.0000 0.15219  0.21653  0.95439  Biso   1.000  Br
  Cu1      1.0000 0.65888  0.81723  0.81867  Biso   1.000  Cu
  Cu2      1.0000 0.34112  0.18277  0.18133  Biso   1.000  Cu
  N1       1.0000 0.43490  0.67260  0.77530  Biso   1.000  N
  N2       1.0000 0.56510  0.32740  0.22470  Biso   1.000  N
  N3       1.0000 0.18740  0.54230  0.77820  Biso   1.000  N
  N4       1.0000 0.81260  0.45770  0.22180  Biso   1.000  N
  N5       1.0000 0.02150  0.50080  0.81090  Biso   1.000  N
  N6       1.0000 0.97850  0.49920  0.18910  Biso   1.000  N
  H1       1.0000 0.99270  0.54770  0.88640  Biso   1.000  H
  H2       1.0000 0.00730  0.45230  0.11360  Biso   1.000  H
  H3       1.0000 0.94670  0.42790  0.75570  Biso   1.000  H
  H4       1.0000 0.05330  0.57210  0.24430  Biso   1.000  H
  N7       1.0000 0.38540  0.57110  0.65190  Biso   1.000  N
  N8       1.0000 0.61460  0.42890  0.34810  Biso   1.000  N
  C1       1.0000 0.33090  0.72720  0.99370  Biso   1.000  C
  C2       1.0000 0.66910  0.27280  0.00630  Biso   1.000  C
  C3       1.0000 0.23640  0.49360  0.65550  Biso   1.000  C
  C4       1.0000 0.76360  0.50640  0.34450  Biso   1.000  C
  C5       1.0000 0.31780  0.65090  0.85050  Biso   1.000  C
  C6       1.0000 0.68220  0.34910  0.14950  Biso   1.000  C
  C7       1.0000 0.34770  0.64830  0.10210  Biso   1.000  C
  C8       1.0000 0.65230  0.35170  0.89790  Biso   1.000  C
  H5       1.0000 0.34210  0.54300  0.08450  Biso   1.000  H
  H6       1.0000 0.65790  0.45700  0.91550  Biso   1.000  H
  C9       1.0000 0.37290  0.72830  0.23580  Biso   1.000  C
  C10      1.0000 0.62710  0.27170  0.76420  Biso   1.000  C
  H7       1.0000 0.38490  0.67900  0.31250  Biso   1.000  H
  H8       1.0000 0.61510  0.32100  0.68750  Biso   1.000  H
  N9       1.0000 0.36110  0.95920  0.15380  Biso   1.000  N
  N10      1.0000 0.63890  0.04080  0.84620  Biso   1.000  N
  C11      1.0000 0.38040  0.88140  0.25570  Biso   1.000  C
  C12      1.0000 0.61960  0.11860  0.74430  Biso   1.000  C
  H9       1.0000 0.40060  0.93490  0.34820  Biso   1.000  H
  H10      1.0000 0.59940  0.06510  0.65180  Biso   1.000  H
  C13      1.0000 0.33660  0.88040  0.02360  Biso   1.000  C
  C14      1.0000 0.66340  0.11960  0.97640  Biso   1.000  C
  H11      1.0000 0.32260  0.93270  0.94890  Biso   1.000  H
  H12      1.0000 0.67740  0.06730  0.05110  Biso   1.000  H
  C15      1.0000 0.24070  0.33560  0.43770  Biso   1.000  C
  C16      1.0000 0.75930  0.66440  0.56230  Biso   1.000  C
  H13      1.0000 0.34720  0.39670  0.44060  Biso   1.000  H
  H14      1.0000 0.65280  0.60330  0.55940  Biso   1.000  H
  N11      1.0000 0.18550  0.22250  0.32960  Biso   1.000  N
  N12      1.0000 0.81450  0.77750  0.67040  Biso   1.000  N
  C17      1.0000 0.15240  0.36830  0.54440  Biso   1.000  C
  C18      1.0000 0.84760  0.63170  0.45560  Biso   1.000  C
  C19      1.0000 0.93640  0.16450  0.42570  Biso   1.000  C
  C20      1.0000 0.06360  0.83550  0.57430  Biso   1.000  C
  H15      1.0000 0.82770  0.10390  0.41810  Biso   1.000  H
  H16      1.0000 0.17230  0.89610  0.58190  Biso   1.000  H
  C21      1.0000 0.03460  0.13950  0.32370  Biso   1.000  C
  C22      1.0000 0.96540  0.86050  0.67630  Biso   1.000  C
  H17      1.0000 0.99250  0.06040  0.24700  Biso   1.000  H
  H18      1.0000 0.00750  0.93960  0.75300  Biso   1.000  H
  C23      1.0000 0.99700  0.27740  0.53810  Biso   1.000  C
  C24      1.0000 0.00300  0.72260  0.46190  Biso   1.000  C
  H19      1.0000 0.93340  0.29320  0.61070  Biso   1.000  H
  H20      1.0000 0.06660  0.70680  0.38930  Biso   1.000  H
