data_image0
_cell_length_a       7.4676
_cell_length_b       9.1796
_cell_length_c       10.032
_cell_angle_alpha    100.09
_cell_angle_beta     102.75
_cell_angle_gamma    92.02

_symmetry_space_group_name_H-M    "P 1"
_symmetry_int_tables_number       1

loop_
  _symmetry_equiv_pos_as_xyz
  'x, y, z'

loop_
  _atom_site_label
  _atom_site_occupancy
  _atom_site_fract_x
  _atom_site_fract_y
  _atom_site_fract_z
  _atom_site_thermal_displace_type
  _atom_site_B_iso_or_equiv
  _atom_site_type_symbol
  Cu1      1.0000 0.34110  0.18295  0.68139  Biso   1.000  Cu
  Cu2      1.0000 0.65890  0.81705  0.31861  Biso   1.000  Cu
  Br1      1.0000 0.15274  0.21670  0.45379  Biso   1.000  Br
  Br2      1.0000 0.84726  0.78330  0.54621  Biso   1.000  Br
  N1       1.0000 0.43550  0.67200  0.27520  Biso   1.000  N
  N2       1.0000 0.56450  0.32800  0.72480  Biso   1.000  N
  N3       1.0000 0.38550  0.57020  0.15160  Biso   1.000  N
  N4       1.0000 0.61450  0.42980  0.84840  Biso   1.000  N
  N5       1.0000 0.18660  0.54250  0.27760  Biso   1.000  N
  N6       1.0000 0.81340  0.45750  0.72240  Biso   1.000  N
  N7       1.0000 0.01960  0.50110  0.30980  Biso   1.000  N
  N8       1.0000 0.98040  0.49890  0.69020  Biso   1.000  N
  N9       1.0000 0.36130  0.95800  0.65370  Biso   1.000  N
  N10      1.0000 0.63870  0.04200  0.34630  Biso   1.000  N
  N11      1.0000 0.18490  0.22150  0.82890  Biso   1.000  N
  N12      1.0000 0.81510  0.77850  0.17110  Biso   1.000  N
  C1       1.0000 0.31810  0.65170  0.35090  Biso   1.000  C
  C2       1.0000 0.68190  0.34830  0.64910  Biso   1.000  C
  C3       1.0000 0.23610  0.49330  0.15530  Biso   1.000  C
  C4       1.0000 0.76390  0.50670  0.84470  Biso   1.000  C
  C5       1.0000 0.33610  0.87980  0.52420  Biso   1.000  C
  C6       1.0000 0.66390  0.12020  0.47580  Biso   1.000  C
  C7       1.0000 0.33050  0.72670  0.49490  Biso   1.000  C
  C8       1.0000 0.66950  0.27330  0.50510  Biso   1.000  C
  C9       1.0000 0.34700  0.64900  0.60190  Biso   1.000  C
  C10      1.0000 0.65300  0.35100  0.39810  Biso   1.000  C
  C11      1.0000 0.37370  0.72830  0.73620  Biso   1.000  C
  C12      1.0000 0.62630  0.27170  0.26380  Biso   1.000  C
  C13      1.0000 0.38040  0.88070  0.75620  Biso   1.000  C
  C14      1.0000 0.61960  0.11930  0.24380  Biso   1.000  C
  C15      1.0000 0.24020  0.33550  0.93660  Biso   1.000  C
  C16      1.0000 0.75980  0.66450  0.06340  Biso   1.000  C
  C17      1.0000 0.15170  0.36810  0.04450  Biso   1.000  C
  C18      1.0000 0.84830  0.63190  0.95550  Biso   1.000  C
  C19      1.0000 0.99710  0.27920  0.03950  Biso   1.000  C
  C20      1.0000 0.00290  0.72080  0.96050  Biso   1.000  C
  C21      1.0000 0.93620  0.16280  0.92720  Biso   1.000  C
  C22      1.0000 0.06380  0.83720  0.07280  Biso   1.000  C
  C23      1.0000 0.03290  0.13760  0.82570  Biso   1.000  C
  C24      1.0000 0.96710  0.86240  0.17430  Biso   1.000  C
  H1       1.0000 0.00000  0.06000  0.74800  Biso   1.000  H
  H2       1.0000 0.00000  0.94000  0.25200  Biso   1.000  H
  H3       1.0000 0.38600  0.93300  0.84500  Biso   1.000  H
  H4       1.0000 0.61400  0.06700  0.15500  Biso   1.000  H
  H5       1.0000 0.32300  0.93600  0.45400  Biso   1.000  H
  H6       1.0000 0.67700  0.06400  0.54600  Biso   1.000  H
  H7       1.0000 0.33700  0.39400  0.93800  Biso   1.000  H
  H8       1.0000 0.66300  0.60600  0.06200  Biso   1.000  H
  H9       1.0000 0.94400  0.29400  0.11000  Biso   1.000  H
  H10      1.0000 0.05600  0.70600  0.89000  Biso   1.000  H
  H11      1.0000 0.36200  0.55200  0.58600  Biso   1.000  H
  H12      1.0000 0.63800  0.44800  0.41400  Biso   1.000  H
  H13      1.0000 0.38400  0.67900  0.81100  Biso   1.000  H
  H14      1.0000 0.61600  0.32100  0.18900  Biso   1.000  H
  H15      1.0000 0.82800  0.10700  0.92200  Biso   1.000  H
  H16      1.0000 0.17200  0.89300  0.07800  Biso   1.000  H
  H17      1.0000 0.97900  0.57700  0.35200  Biso   1.000  H
  H18      1.0000 0.02100  0.42300  0.64800  Biso   1.000  H
  H19      1.0000 0.05100  0.44100  0.36600  Biso   1.000  H
  H20      1.0000 0.94900  0.55900  0.63400  Biso   1.000  H
