data_image0
_cell_length_a       10.6561
_cell_length_b       8.7946
_cell_length_c       15.819
_cell_angle_alpha    90
_cell_angle_beta     100.595
_cell_angle_gamma    90

_symmetry_space_group_name_H-M    "P 1"
_symmetry_int_tables_number       1

loop_
  _symmetry_equiv_pos_as_xyz
  'x, y, z'

loop_
  _atom_site_label
  _atom_site_occupancy
  _atom_site_fract_x
  _atom_site_fract_y
  _atom_site_fract_z
  _atom_site_thermal_displace_type
  _atom_site_B_iso_or_equiv
  _atom_site_type_symbol
  Cu1      1.0000 0.51777  0.87899  0.85006  Biso   1.000  Cu
  Cu2      1.0000 0.48223  0.87899  0.64994  Biso   1.000  Cu
  Cu3      1.0000 0.01777  0.37899  0.85006  Biso   1.000  Cu
  Cu4      1.0000 0.98223  0.37899  0.64994  Biso   1.000  Cu
  Cu5      1.0000 0.48223  0.12101  0.14994  Biso   1.000  Cu
  Cu6      1.0000 0.51777  0.12101  0.35006  Biso   1.000  Cu
  Cu7      1.0000 0.98223  0.62101  0.14994  Biso   1.000  Cu
  Cu8      1.0000 0.01777  0.62101  0.35006  Biso   1.000  Cu
  Br1      1.0000 0.70269  0.77130  0.79880  Biso   1.000  Br
  Br2      1.0000 0.29731  0.77130  0.70120  Biso   1.000  Br
  Br3      1.0000 0.20269  0.27130  0.79880  Biso   1.000  Br
  Br4      1.0000 0.79731  0.27130  0.70120  Biso   1.000  Br
  Br5      1.0000 0.29731  0.22870  0.20120  Biso   1.000  Br
  Br6      1.0000 0.70269  0.22870  0.29880  Biso   1.000  Br
  Br7      1.0000 0.79731  0.72870  0.20120  Biso   1.000  Br
  Br8      1.0000 0.20269  0.72870  0.29880  Biso   1.000  Br
  N1       1.0000 0.51380  0.08230  0.79477  Biso   1.000  N
  N2       1.0000 0.48620  0.08230  0.70523  Biso   1.000  N
  N3       1.0000 0.01380  0.58230  0.79477  Biso   1.000  N
  N4       1.0000 0.98620  0.58230  0.70523  Biso   1.000  N
  N5       1.0000 0.48620  0.91770  0.20523  Biso   1.000  N
  N6       1.0000 0.51380  0.91770  0.29477  Biso   1.000  N
  N7       1.0000 0.98620  0.41770  0.20523  Biso   1.000  N
  N8       1.0000 0.01380  0.41770  0.29477  Biso   1.000  N
  N9       1.0000 0.50000  0.31680  0.75000  Biso   1.000  N
  N10      1.0000 0.00000  0.81680  0.75000  Biso   1.000  N
  N11      1.0000 0.50000  0.68320  0.25000  Biso   1.000  N
  N12      1.0000 0.00000  0.18320  0.25000  Biso   1.000  N
  N13      1.0000 0.50000  0.47570  0.75000  Biso   1.000  N
  N14      1.0000 0.00000  0.97570  0.75000  Biso   1.000  N
  N15      1.0000 0.50000  0.52430  0.25000  Biso   1.000  N
  N16      1.0000 0.00000  0.02430  0.25000  Biso   1.000  N
  H1       1.0000 0.56300  0.50500  0.75300  Biso   1.000  H
  H2       1.0000 0.43700  0.50500  0.74700  Biso   1.000  H
  H3       1.0000 0.06300  0.00500  0.75300  Biso   1.000  H
  H4       1.0000 0.93700  0.00500  0.74700  Biso   1.000  H
  H5       1.0000 0.43700  0.49500  0.24700  Biso   1.000  H
  H6       1.0000 0.56300  0.49500  0.25300  Biso   1.000  H
  H7       1.0000 0.93700  0.99500  0.24700  Biso   1.000  H
  H8       1.0000 0.06300  0.99500  0.25300  Biso   1.000  H
  N17      1.0000 0.54350  0.23320  0.05765  Biso   1.000  N
  N18      1.0000 0.45650  0.23320  0.44235  Biso   1.000  N
  N19      1.0000 0.04350  0.73320  0.05765  Biso   1.000  N
  N20      1.0000 0.95650  0.73320  0.44235  Biso   1.000  N
  N21      1.0000 0.45650  0.76680  0.94235  Biso   1.000  N
  N22      1.0000 0.54350  0.76680  0.55765  Biso   1.000  N
  N23      1.0000 0.95650  0.26680  0.94235  Biso   1.000  N
  N24      1.0000 0.04350  0.26680  0.55765  Biso   1.000  N
  C1       1.0000 0.52220  0.22430  0.82030  Biso   1.000  C
  C2       1.0000 0.47780  0.22430  0.67970  Biso   1.000  C
  C3       1.0000 0.02220  0.72430  0.82030  Biso   1.000  C
  C4       1.0000 0.97780  0.72430  0.67970  Biso   1.000  C
  C5       1.0000 0.47780  0.77570  0.17970  Biso   1.000  C
  C6       1.0000 0.52220  0.77570  0.32030  Biso   1.000  C
  C7       1.0000 0.97780  0.27570  0.17970  Biso   1.000  C
  C8       1.0000 0.02220  0.27570  0.32030  Biso   1.000  C
  C9       1.0000 0.50870  0.19970  0.97360  Biso   1.000  C
  C10      1.0000 0.49130  0.19970  0.52640  Biso   1.000  C
  C11      1.0000 0.00870  0.69970  0.97360  Biso   1.000  C
  C12      1.0000 0.99130  0.69970  0.52640  Biso   1.000  C
  C13      1.0000 0.49130  0.80030  0.02640  Biso   1.000  C
  C14      1.0000 0.50870  0.80030  0.47360  Biso   1.000  C
  C15      1.0000 0.99130  0.30030  0.02640  Biso   1.000  C
  C16      1.0000 0.00870  0.30030  0.47360  Biso   1.000  C
  H9       1.0000 0.44900  0.12200  0.95800  Biso   1.000  H
  H10      1.0000 0.55100  0.12200  0.54200  Biso   1.000  H
  H11      1.0000 0.94900  0.62200  0.95800  Biso   1.000  H
  H12      1.0000 0.05100  0.62200  0.54200  Biso   1.000  H
  H13      1.0000 0.55100  0.87800  0.04200  Biso   1.000  H
  H14      1.0000 0.44900  0.87800  0.45800  Biso   1.000  H
  H15      1.0000 0.05100  0.37800  0.04200  Biso   1.000  H
  H16      1.0000 0.94900  0.37800  0.45800  Biso   1.000  H
  C17      1.0000 0.55540  0.27780  0.90920  Biso   1.000  C
  C18      1.0000 0.44460  0.27780  0.59080  Biso   1.000  C
  C19      1.0000 0.05540  0.77780  0.90920  Biso   1.000  C
  C20      1.0000 0.94460  0.77780  0.59080  Biso   1.000  C
  C21      1.0000 0.44460  0.72220  0.09080  Biso   1.000  C
  C22      1.0000 0.55540  0.72220  0.40920  Biso   1.000  C
  C23      1.0000 0.94460  0.22220  0.09080  Biso   1.000  C
  C24      1.0000 0.05540  0.22220  0.40920  Biso   1.000  C
  C25      1.0000 0.63940  0.39850  0.93240  Biso   1.000  C
  C26      1.0000 0.36060  0.39850  0.56760  Biso   1.000  C
  C27      1.0000 0.13940  0.89850  0.93240  Biso   1.000  C
  C28      1.0000 0.86060  0.89850  0.56760  Biso   1.000  C
  C29      1.0000 0.36060  0.60150  0.06760  Biso   1.000  C
  C30      1.0000 0.63940  0.60150  0.43240  Biso   1.000  C
  C31      1.0000 0.86060  0.10150  0.06760  Biso   1.000  C
  C32      1.0000 0.13940  0.10150  0.43240  Biso   1.000  C
  H17      1.0000 0.67000  0.45500  0.88900  Biso   1.000  H
  H18      1.0000 0.33000  0.45500  0.61100  Biso   1.000  H
  H19      1.0000 0.17000  0.95500  0.88900  Biso   1.000  H
  H20      1.0000 0.83000  0.95500  0.61100  Biso   1.000  H
  H21      1.0000 0.33000  0.54500  0.11100  Biso   1.000  H
  H22      1.0000 0.67000  0.54500  0.38900  Biso   1.000  H
  H23      1.0000 0.83000  0.04500  0.11100  Biso   1.000  H
  H24      1.0000 0.17000  0.04500  0.38900  Biso   1.000  H
  C33      1.0000 0.66990  0.43670  0.01830  Biso   1.000  C
  C34      1.0000 0.33010  0.43670  0.48170  Biso   1.000  C
  C35      1.0000 0.16990  0.93670  0.01830  Biso   1.000  C
  C36      1.0000 0.83010  0.93670  0.48170  Biso   1.000  C
  C37      1.0000 0.33010  0.56330  0.98170  Biso   1.000  C
  C38      1.0000 0.66990  0.56330  0.51830  Biso   1.000  C
  C39      1.0000 0.83010  0.06330  0.98170  Biso   1.000  C
  C40      1.0000 0.16990  0.06330  0.51830  Biso   1.000  C
  H25      1.0000 0.72700  0.51400  0.03900  Biso   1.000  H
  H26      1.0000 0.27300  0.51400  0.46100  Biso   1.000  H
  H27      1.0000 0.22700  0.01400  0.03900  Biso   1.000  H
  H28      1.0000 0.77300  0.01400  0.46100  Biso   1.000  H
  H29      1.0000 0.27300  0.48600  0.96100  Biso   1.000  H
  H30      1.0000 0.72700  0.48600  0.53900  Biso   1.000  H
  H31      1.0000 0.77300  0.98600  0.96100  Biso   1.000  H
  H32      1.0000 0.22700  0.98600  0.53900  Biso   1.000  H
  C41      1.0000 0.62400  0.35170  0.07780  Biso   1.000  C
  C42      1.0000 0.37600  0.35170  0.42220  Biso   1.000  C
  C43      1.0000 0.12400  0.85170  0.07780  Biso   1.000  C
  C44      1.0000 0.87600  0.85170  0.42220  Biso   1.000  C
  C45      1.0000 0.37600  0.64830  0.92220  Biso   1.000  C
  C46      1.0000 0.62400  0.64830  0.57780  Biso   1.000  C
  C47      1.0000 0.87600  0.14830  0.92220  Biso   1.000  C
  C48      1.0000 0.12400  0.14830  0.57780  Biso   1.000  C
  H33      1.0000 0.64700  0.36900  0.12600  Biso   1.000  H
  H34      1.0000 0.35300  0.36900  0.37400  Biso   1.000  H
  H35      1.0000 0.14700  0.86900  0.12600  Biso   1.000  H
  H36      1.0000 0.85300  0.86900  0.37400  Biso   1.000  H
  H37      1.0000 0.35300  0.63100  0.87400  Biso   1.000  H
  H38      1.0000 0.64700  0.63100  0.62600  Biso   1.000  H
  H39      1.0000 0.85300  0.13100  0.87400  Biso   1.000  H
  H40      1.0000 0.14700  0.13100  0.62600  Biso   1.000  H
