data_image0
_cell_length_a       9.9483
_cell_length_b       12.4494
_cell_length_c       15.7784
_cell_angle_alpha    90
_cell_angle_beta     127.973
_cell_angle_gamma    90

_symmetry_space_group_name_H-M    "P 1"
_symmetry_int_tables_number       1

loop_
  _symmetry_equiv_pos_as_xyz
  'x, y, z'

loop_
  _atom_site_label
  _atom_site_occupancy
  _atom_site_fract_x
  _atom_site_fract_y
  _atom_site_fract_z
  _atom_site_thermal_displace_type
  _atom_site_B_iso_or_equiv
  _atom_site_type_symbol
  Cu1      1.0000 0.79274  0.62926  0.32750  Biso   1.000  Cu
  Cu2      1.0000 0.20726  0.12926  0.17250  Biso   1.000  Cu
  Cu3      1.0000 0.20726  0.37074  0.67250  Biso   1.000  Cu
  Cu4      1.0000 0.79274  0.87074  0.82750  Biso   1.000  Cu
  Cu5      1.0000 0.56822  0.00230  0.24782  Biso   1.000  Cu
  Cu6      1.0000 0.43178  0.50230  0.25218  Biso   1.000  Cu
  Cu7      1.0000 0.43178  0.99770  0.75218  Biso   1.000  Cu
  Cu8      1.0000 0.56822  0.49770  0.74782  Biso   1.000  Cu
  Br1      1.0000 0.63381  0.82319  0.21586  Biso   1.000  Br
  Br2      1.0000 0.36619  0.32319  0.28414  Biso   1.000  Br
  Br3      1.0000 0.36619  0.17681  0.78414  Biso   1.000  Br
  Br4      1.0000 0.63381  0.67681  0.71586  Biso   1.000  Br
  Br5      1.0000 0.61823  0.48273  0.20084  Biso   1.000  Br
  Br6      1.0000 0.38177  0.98273  0.29916  Biso   1.000  Br
  Br7      1.0000 0.38177  0.51727  0.79916  Biso   1.000  Br
  Br8      1.0000 0.61823  0.01727  0.70084  Biso   1.000  Br
  N1       1.0000 0.55520  0.61160  0.37770  Biso   1.000  N
  N2       1.0000 0.44480  0.11160  0.12230  Biso   1.000  N
  N3       1.0000 0.44480  0.38840  0.62230  Biso   1.000  N
  N4       1.0000 0.55520  0.88840  0.87770  Biso   1.000  N
  N5       1.0000 0.71310  0.65160  0.41630  Biso   1.000  N
  N6       1.0000 0.28690  0.15160  0.08370  Biso   1.000  N
  N7       1.0000 0.28690  0.34840  0.58370  Biso   1.000  N
  N8       1.0000 0.71310  0.84840  0.91630  Biso   1.000  N
  N9       1.0000 0.60920  0.75410  0.47540  Biso   1.000  N
  N10      1.0000 0.39080  0.25410  0.02460  Biso   1.000  N
  N11      1.0000 0.39080  0.24590  0.52460  Biso   1.000  N
  N12      1.0000 0.60920  0.74590  0.97540  Biso   1.000  N
  N13      1.0000 0.60590  0.83550  0.53610  Biso   1.000  N
  N14      1.0000 0.39410  0.33550  0.96390  Biso   1.000  N
  N15      1.0000 0.39410  0.16450  0.46390  Biso   1.000  N
  N16      1.0000 0.60590  0.66450  0.03610  Biso   1.000  N
  H1       1.0000 0.59000  0.80300  0.58300  Biso   1.000  H
  H2       1.0000 0.41000  0.30300  0.91700  Biso   1.000  H
  H3       1.0000 0.41000  0.19700  0.41700  Biso   1.000  H
  H4       1.0000 0.59000  0.69700  0.08300  Biso   1.000  H
  H5       1.0000 0.54100  0.88200  0.49400  Biso   1.000  H
  H6       1.0000 0.45900  0.38200  0.00600  Biso   1.000  H
  H7       1.0000 0.45900  0.11800  0.50600  Biso   1.000  H
  H8       1.0000 0.54100  0.61800  0.99400  Biso   1.000  H
  N17      1.0000 0.01300  0.63960  0.35170  Biso   1.000  N
  N18      1.0000 0.98700  0.13960  0.14830  Biso   1.000  N
  N19      1.0000 0.98700  0.36040  0.64830  Biso   1.000  N
  N20      1.0000 0.01300  0.86040  0.85170  Biso   1.000  N
  N21      1.0000 0.20790  0.91580  0.64850  Biso   1.000  N
  N22      1.0000 0.79210  0.41580  0.85150  Biso   1.000  N
  N23      1.0000 0.79210  0.08420  0.35150  Biso   1.000  N
  N24      1.0000 0.20790  0.58420  0.14850  Biso   1.000  N
  C1       1.0000 0.49430  0.67450  0.41390  Biso   1.000  C
  C2       1.0000 0.50570  0.17450  0.08610  Biso   1.000  C
  C3       1.0000 0.50570  0.32550  0.58610  Biso   1.000  C
  C4       1.0000 0.49430  0.82550  0.91390  Biso   1.000  C
  C5       1.0000 0.74480  0.73610  0.47580  Biso   1.000  C
  C6       1.0000 0.25520  0.23610  0.02420  Biso   1.000  C
  C7       1.0000 0.25520  0.26390  0.52420  Biso   1.000  C
  C8       1.0000 0.74480  0.76390  0.97580  Biso   1.000  C
  C9       1.0000 0.11490  0.55630  0.37680  Biso   1.000  C
  C10      1.0000 0.88510  0.05630  0.12320  Biso   1.000  C
  C11      1.0000 0.88510  0.44370  0.62320  Biso   1.000  C
  C12      1.0000 0.11490  0.94370  0.87680  Biso   1.000  C
  H9       1.0000 0.08200  0.49200  0.37900  Biso   1.000  H
  H10      1.0000 0.91800  0.99200  0.12100  Biso   1.000  H
  H11      1.0000 0.91800  0.50800  0.62100  Biso   1.000  H
  H12      1.0000 0.08200  0.00800  0.87900  Biso   1.000  H
  C13      1.0000 0.27040  0.56390  0.39660  Biso   1.000  C
  C14      1.0000 0.72960  0.06390  0.10340  Biso   1.000  C
  C15      1.0000 0.72960  0.43610  0.60340  Biso   1.000  C
  C16      1.0000 0.27040  0.93610  0.89660  Biso   1.000  C
  H13      1.0000 0.32500  0.50700  0.40800  Biso   1.000  H
  H14      1.0000 0.67500  0.00700  0.09200  Biso   1.000  H
  H15      1.0000 0.67500  0.49300  0.59200  Biso   1.000  H
  H16      1.0000 0.32500  0.99300  0.90800  Biso   1.000  H
  C17      1.0000 0.32660  0.66230  0.39160  Biso   1.000  C
  C18      1.0000 0.67340  0.16230  0.10840  Biso   1.000  C
  C19      1.0000 0.67340  0.33770  0.60840  Biso   1.000  C
  C20      1.0000 0.32660  0.83770  0.89160  Biso   1.000  C
  C21      1.0000 0.22120  0.74860  0.36310  Biso   1.000  C
  C22      1.0000 0.77880  0.24860  0.13690  Biso   1.000  C
  C23      1.0000 0.77880  0.25140  0.63690  Biso   1.000  C
  C24      1.0000 0.22120  0.75140  0.86310  Biso   1.000  C
  H17      1.0000 0.25100  0.81600  0.35000  Biso   1.000  H
  H18      1.0000 0.74900  0.31600  0.15000  Biso   1.000  H
  H19      1.0000 0.74900  0.18400  0.65000  Biso   1.000  H
  H20      1.0000 0.25100  0.68400  0.85000  Biso   1.000  H
  C25      1.0000 0.06640  0.73460  0.34330  Biso   1.000  C
  C26      1.0000 0.93360  0.23460  0.15670  Biso   1.000  C
  C27      1.0000 0.93360  0.26540  0.65670  Biso   1.000  C
  C28      1.0000 0.06640  0.76540  0.84330  Biso   1.000  C
  H21      1.0000 0.98800  0.79100  0.32100  Biso   1.000  H
  H22      1.0000 0.01200  0.29100  0.17900  Biso   1.000  H
  H23      1.0000 0.01200  0.20900  0.67900  Biso   1.000  H
  H24      1.0000 0.98800  0.70900  0.82100  Biso   1.000  H
  C29      1.0000 0.20240  0.81200  0.62590  Biso   1.000  C
  C30      1.0000 0.79760  0.31200  0.87410  Biso   1.000  C
  C31      1.0000 0.79760  0.18800  0.37410  Biso   1.000  C
  C32      1.0000 0.20240  0.68800  0.12590  Biso   1.000  C
  H25      1.0000 0.31000  0.77800  0.65200  Biso   1.000  H
  H26      1.0000 0.69000  0.27800  0.84800  Biso   1.000  H
  H27      1.0000 0.69000  0.22200  0.34800  Biso   1.000  H
  H28      1.0000 0.31000  0.72200  0.15200  Biso   1.000  H
  C33      1.0000 0.05410  0.75130  0.57100  Biso   1.000  C
  C34      1.0000 0.94590  0.25130  0.92900  Biso   1.000  C
  C35      1.0000 0.94590  0.24870  0.42900  Biso   1.000  C
  C36      1.0000 0.05410  0.74870  0.07100  Biso   1.000  C
  H29      1.0000 0.05800  0.67500  0.55900  Biso   1.000  H
  H30      1.0000 0.94200  0.17500  0.94100  Biso   1.000  H
  H31      1.0000 0.94200  0.32500  0.44100  Biso   1.000  H
  H32      1.0000 0.05800  0.82500  0.05900  Biso   1.000  H
  C37      1.0000 0.90360  0.79960  0.53550  Biso   1.000  C
  C38      1.0000 0.09640  0.29960  0.96450  Biso   1.000  C
  C39      1.0000 0.09640  0.20040  0.46450  Biso   1.000  C
  C40      1.0000 0.90360  0.70040  0.03550  Biso   1.000  C
  C41      1.0000 0.90670  0.90800  0.55720  Biso   1.000  C
  C42      1.0000 0.09330  0.40800  0.94280  Biso   1.000  C
  C43      1.0000 0.09330  0.09200  0.44280  Biso   1.000  C
  C44      1.0000 0.90670  0.59200  0.05720  Biso   1.000  C
  H33      1.0000 0.80700  0.94500  0.54000  Biso   1.000  H
  H34      1.0000 0.19300  0.44500  0.96000  Biso   1.000  H
  H35      1.0000 0.19300  0.05500  0.46000  Biso   1.000  H
  H36      1.0000 0.80700  0.55500  0.04000  Biso   1.000  H
  C45      1.0000 0.05940  0.96120  0.61360  Biso   1.000  C
  C46      1.0000 0.94060  0.46120  0.88640  Biso   1.000  C
  C47      1.0000 0.94060  0.03880  0.38640  Biso   1.000  C
  C48      1.0000 0.05940  0.53880  0.11360  Biso   1.000  C
  H37      1.0000 0.06400  0.02800  0.63200  Biso   1.000  H
  H38      1.0000 0.93600  0.52800  0.86800  Biso   1.000  H
  H39      1.0000 0.93600  0.97200  0.36800  Biso   1.000  H
  H40      1.0000 0.06400  0.47200  0.13200  Biso   1.000  H
