data_image0
_cell_length_a       9.447
_cell_length_b       10.227
_cell_length_c       14.195
_cell_angle_alpha    90
_cell_angle_beta     90.047
_cell_angle_gamma    90

_symmetry_space_group_name_H-M    "P 1"
_symmetry_int_tables_number       1

loop_
  _symmetry_equiv_pos_as_xyz
  'x, y, z'

loop_
  _atom_site_label
  _atom_site_occupancy
  _atom_site_fract_x
  _atom_site_fract_y
  _atom_site_fract_z
  _atom_site_thermal_displace_type
  _atom_site_B_iso_or_equiv
  _atom_site_type_symbol
  I1       1.0000 0.44965  0.01041  0.15821  Biso   1.000  I
  I2       1.0000 0.55035  0.51041  0.34179  Biso   1.000  I
  I3       1.0000 0.55035  0.98959  0.84179  Biso   1.000  I
  I4       1.0000 0.44965  0.48959  0.65821  Biso   1.000  I
  Cu1      1.0000 0.43364  0.11853  0.98587  Biso   1.000  Cu
  Cu2      1.0000 0.56636  0.61853  0.51413  Biso   1.000  Cu
  Cu3      1.0000 0.56636  0.88147  0.01413  Biso   1.000  Cu
  Cu4      1.0000 0.43364  0.38147  0.48587  Biso   1.000  Cu
  N1       1.0000 0.55080  0.28850  0.99039  Biso   1.000  N
  N2       1.0000 0.44920  0.78850  0.50961  Biso   1.000  N
  N3       1.0000 0.44920  0.71150  0.00961  Biso   1.000  N
  N4       1.0000 0.55080  0.21150  0.49039  Biso   1.000  N
  N5       1.0000 0.92110  0.54290  0.14018  Biso   1.000  N
  N6       1.0000 0.07890  0.04290  0.35982  Biso   1.000  N
  N7       1.0000 0.07890  0.45710  0.85982  Biso   1.000  N
  N8       1.0000 0.92110  0.95710  0.64018  Biso   1.000  N
  N9       1.0000 0.00050  0.53620  0.22252  Biso   1.000  N
  N10      1.0000 0.99950  0.03620  0.27748  Biso   1.000  N
  N11      1.0000 0.99950  0.46380  0.77748  Biso   1.000  N
  N12      1.0000 0.00050  0.96380  0.72252  Biso   1.000  N
  N13      1.0000 0.85780  0.36770  0.21902  Biso   1.000  N
  N14      1.0000 0.14220  0.86770  0.28098  Biso   1.000  N
  N15      1.0000 0.14220  0.63230  0.78098  Biso   1.000  N
  N16      1.0000 0.85780  0.13230  0.71902  Biso   1.000  N
  N17      1.0000 0.79030  0.24910  0.24034  Biso   1.000  N
  N18      1.0000 0.20970  0.74910  0.25966  Biso   1.000  N
  N19      1.0000 0.20970  0.75090  0.75966  Biso   1.000  N
  N20      1.0000 0.79030  0.25090  0.74034  Biso   1.000  N
  H1       1.0000 0.81340  0.20600  0.29170  Biso   1.000  H
  H2       1.0000 0.18660  0.70600  0.20830  Biso   1.000  H
  H3       1.0000 0.18660  0.79400  0.70830  Biso   1.000  H
  H4       1.0000 0.81340  0.29400  0.79170  Biso   1.000  H
  H5       1.0000 0.72490  0.21800  0.20230  Biso   1.000  H
  H6       1.0000 0.27510  0.71800  0.29770  Biso   1.000  H
  H7       1.0000 0.27510  0.78200  0.79770  Biso   1.000  H
  H8       1.0000 0.72490  0.28200  0.70230  Biso   1.000  H
  N21      1.0000 0.22120  0.36450  0.45969  Biso   1.000  N
  N22      1.0000 0.77880  0.86450  0.04031  Biso   1.000  N
  N23      1.0000 0.77880  0.63550  0.54031  Biso   1.000  N
  N24      1.0000 0.22120  0.13550  0.95969  Biso   1.000  N
  C1       1.0000 0.55860  0.36630  0.91445  Biso   1.000  C
  C2       1.0000 0.44140  0.86630  0.58555  Biso   1.000  C
  C3       1.0000 0.44140  0.63370  0.08555  Biso   1.000  C
  C4       1.0000 0.55860  0.13370  0.41445  Biso   1.000  C
  H9       1.0000 0.49540  0.35090  0.86350  Biso   1.000  H
  H10      1.0000 0.50460  0.85090  0.63650  Biso   1.000  H
  H11      1.0000 0.50460  0.64910  0.13650  Biso   1.000  H
  H12      1.0000 0.49540  0.14910  0.36350  Biso   1.000  H
  C5       1.0000 0.65380  0.46710  0.90710  Biso   1.000  C
  C6       1.0000 0.34620  0.96710  0.59290  Biso   1.000  C
  C7       1.0000 0.34620  0.53290  0.09290  Biso   1.000  C
  C8       1.0000 0.65380  0.03290  0.40710  Biso   1.000  C
  H13      1.0000 0.65630  0.52020  0.85220  Biso   1.000  H
  H14      1.0000 0.34370  0.02020  0.64780  Biso   1.000  H
  H15      1.0000 0.34370  0.47980  0.14780  Biso   1.000  H
  H16      1.0000 0.65630  0.97980  0.35220  Biso   1.000  H
  C9       1.0000 0.74670  0.49030  0.98130  Biso   1.000  C
  C10      1.0000 0.25330  0.99030  0.51870  Biso   1.000  C
  C11      1.0000 0.25330  0.50970  0.01870  Biso   1.000  C
  C12      1.0000 0.74670  0.00970  0.48130  Biso   1.000  C
  H17      1.0000 0.81540  0.55780  0.97700  Biso   1.000  H
  H18      1.0000 0.18460  0.05780  0.52300  Biso   1.000  H
  H19      1.0000 0.18460  0.44220  0.02300  Biso   1.000  H
  H20      1.0000 0.81540  0.94220  0.47700  Biso   1.000  H
  C13      1.0000 0.73760  0.41390  0.06156  Biso   1.000  C
  C14      1.0000 0.26240  0.91390  0.43844  Biso   1.000  C
  C15      1.0000 0.26240  0.58610  0.93844  Biso   1.000  C
  C16      1.0000 0.73760  0.08610  0.56156  Biso   1.000  C
  C17      1.0000 0.63710  0.31430  0.06292  Biso   1.000  C
  C18      1.0000 0.36290  0.81430  0.43708  Biso   1.000  C
  C19      1.0000 0.36290  0.68570  0.93708  Biso   1.000  C
  C20      1.0000 0.63710  0.18570  0.56292  Biso   1.000  C
  H21      1.0000 0.62940  0.26220  0.11800  Biso   1.000  H
  H22      1.0000 0.37060  0.76220  0.38200  Biso   1.000  H
  H23      1.0000 0.37060  0.73780  0.88200  Biso   1.000  H
  H24      1.0000 0.62940  0.23780  0.61800  Biso   1.000  H
  C21      1.0000 0.83610  0.44120  0.13917  Biso   1.000  C
  C22      1.0000 0.16390  0.94120  0.36083  Biso   1.000  C
  C23      1.0000 0.16390  0.55880  0.86083  Biso   1.000  C
  C24      1.0000 0.83610  0.05880  0.63917  Biso   1.000  C
  C25      1.0000 0.96070  0.43140  0.26839  Biso   1.000  C
  C26      1.0000 0.03930  0.93140  0.23161  Biso   1.000  C
  C27      1.0000 0.03930  0.56860  0.73161  Biso   1.000  C
  C28      1.0000 0.96070  0.06860  0.76839  Biso   1.000  C
  C29      1.0000 0.01720  0.38840  0.36033  Biso   1.000  C
  C30      1.0000 0.98280  0.88840  0.13967  Biso   1.000  C
  C31      1.0000 0.98280  0.61160  0.63967  Biso   1.000  C
  C32      1.0000 0.01720  0.11160  0.86033  Biso   1.000  C
  C33      1.0000 0.92900  0.35330  0.43420  Biso   1.000  C
  C34      1.0000 0.07100  0.85330  0.06580  Biso   1.000  C
  C35      1.0000 0.07100  0.64670  0.56580  Biso   1.000  C
  C36      1.0000 0.92900  0.14670  0.93420  Biso   1.000  C
  H25      1.0000 0.82930  0.34930  0.42570  Biso   1.000  H
  H26      1.0000 0.17070  0.84930  0.07430  Biso   1.000  H
  H27      1.0000 0.17070  0.65070  0.57430  Biso   1.000  H
  H28      1.0000 0.82930  0.15070  0.92570  Biso   1.000  H
  C37      1.0000 0.98900  0.32420  0.52040  Biso   1.000  C
  C38      1.0000 0.01100  0.82420  0.97960  Biso   1.000  C
  C39      1.0000 0.01100  0.67580  0.47960  Biso   1.000  C
  C40      1.0000 0.98900  0.17580  0.02040  Biso   1.000  C
  H29      1.0000 0.93120  0.30000  0.57230  Biso   1.000  H
  H30      1.0000 0.06880  0.80000  0.92770  Biso   1.000  H
  H31      1.0000 0.06880  0.70000  0.42770  Biso   1.000  H
  H32      1.0000 0.93120  0.20000  0.07230  Biso   1.000  H
  C41      1.0000 0.13450  0.33070  0.53018  Biso   1.000  C
  C42      1.0000 0.86550  0.83070  0.96982  Biso   1.000  C
  C43      1.0000 0.86550  0.66930  0.46982  Biso   1.000  C
  C44      1.0000 0.13450  0.16930  0.03018  Biso   1.000  C
  H33      1.0000 0.17480  0.31010  0.58970  Biso   1.000  H
  H34      1.0000 0.82520  0.81010  0.91030  Biso   1.000  H
  H35      1.0000 0.82520  0.68990  0.41030  Biso   1.000  H
  H36      1.0000 0.17480  0.18990  0.08970  Biso   1.000  H
  C45      1.0000 0.16240  0.39280  0.37586  Biso   1.000  C
  C46      1.0000 0.83760  0.89280  0.12414  Biso   1.000  C
  C47      1.0000 0.83760  0.60720  0.62414  Biso   1.000  C
  C48      1.0000 0.16240  0.10720  0.87586  Biso   1.000  C
  H37      1.0000 0.22260  0.41680  0.32510  Biso   1.000  H
  H38      1.0000 0.77740  0.91680  0.17490  Biso   1.000  H
  H39      1.0000 0.77740  0.58320  0.67490  Biso   1.000  H
  H40      1.0000 0.22260  0.08320  0.82510  Biso   1.000  H
