data_image0
_cell_length_a       9.4591
_cell_length_b       10.2141
_cell_length_c       14.1803
_cell_angle_alpha    90
_cell_angle_beta     90.052
_cell_angle_gamma    90

_symmetry_space_group_name_H-M    "P 1"
_symmetry_int_tables_number       1

loop_
  _symmetry_equiv_pos_as_xyz
  'x, y, z'

loop_
  _atom_site_label
  _atom_site_occupancy
  _atom_site_fract_x
  _atom_site_fract_y
  _atom_site_fract_z
  _atom_site_thermal_displace_type
  _atom_site_B_iso_or_equiv
  _atom_site_type_symbol
  Cu1      1.0000 0.43344  0.11903  0.51429  Biso   1.000  Cu
  Cu2      1.0000 0.56656  0.61903  0.98571  Biso   1.000  Cu
  Cu3      1.0000 0.56656  0.88097  0.48571  Biso   1.000  Cu
  Cu4      1.0000 0.43344  0.38097  0.01429  Biso   1.000  Cu
  I1       1.0000 0.44965  0.01037  0.34183  Biso   1.000  I
  I2       1.0000 0.55035  0.51037  0.15817  Biso   1.000  I
  I3       1.0000 0.55035  0.98963  0.65817  Biso   1.000  I
  I4       1.0000 0.44965  0.48963  0.84183  Biso   1.000  I
  N1       1.0000 0.00070  0.96410  0.77798  Biso   1.000  N
  N2       1.0000 0.99930  0.46410  0.72202  Biso   1.000  N
  N3       1.0000 0.99930  0.03590  0.22202  Biso   1.000  N
  N4       1.0000 0.00070  0.53590  0.27798  Biso   1.000  N
  N5       1.0000 0.92150  0.95680  0.85965  Biso   1.000  N
  N6       1.0000 0.07850  0.45680  0.64035  Biso   1.000  N
  N7       1.0000 0.07850  0.04320  0.14035  Biso   1.000  N
  N8       1.0000 0.92150  0.54320  0.35965  Biso   1.000  N
  N9       1.0000 0.85790  0.13220  0.78116  Biso   1.000  N
  N10      1.0000 0.14210  0.63220  0.71884  Biso   1.000  N
  N11      1.0000 0.14210  0.86780  0.21884  Biso   1.000  N
  N12      1.0000 0.85790  0.36780  0.28116  Biso   1.000  N
  N13      1.0000 0.78970  0.25130  0.76022  Biso   1.000  N
  N14      1.0000 0.21030  0.75130  0.73978  Biso   1.000  N
  N15      1.0000 0.21030  0.74870  0.23978  Biso   1.000  N
  N16      1.0000 0.78970  0.24870  0.26022  Biso   1.000  N
  N17      1.0000 0.22140  0.13560  0.54041  Biso   1.000  N
  N18      1.0000 0.77860  0.63560  0.95959  Biso   1.000  N
  N19      1.0000 0.77860  0.86440  0.45959  Biso   1.000  N
  N20      1.0000 0.22140  0.36440  0.04041  Biso   1.000  N
  N21      1.0000 0.55050  0.21120  0.00965  Biso   1.000  N
  N22      1.0000 0.44950  0.71120  0.49035  Biso   1.000  N
  N23      1.0000 0.44950  0.78880  0.99035  Biso   1.000  N
  N24      1.0000 0.55050  0.28880  0.50965  Biso   1.000  N
  C1       1.0000 0.96070  0.06970  0.73134  Biso   1.000  C
  C2       1.0000 0.03930  0.56970  0.76866  Biso   1.000  C
  C3       1.0000 0.03930  0.93030  0.26866  Biso   1.000  C
  C4       1.0000 0.96070  0.43030  0.23134  Biso   1.000  C
  C5       1.0000 0.83600  0.05930  0.86053  Biso   1.000  C
  C6       1.0000 0.16400  0.55930  0.63947  Biso   1.000  C
  C7       1.0000 0.16400  0.94070  0.13947  Biso   1.000  C
  C8       1.0000 0.83600  0.44070  0.36053  Biso   1.000  C
  C9       1.0000 0.01730  0.11130  0.63968  Biso   1.000  C
  C10      1.0000 0.98270  0.61130  0.86032  Biso   1.000  C
  C11      1.0000 0.98270  0.88870  0.36032  Biso   1.000  C
  C12      1.0000 0.01730  0.38870  0.13968  Biso   1.000  C
  C13      1.0000 0.16190  0.10820  0.62422  Biso   1.000  C
  C14      1.0000 0.83810  0.60820  0.87578  Biso   1.000  C
  C15      1.0000 0.83810  0.89180  0.37578  Biso   1.000  C
  C16      1.0000 0.16190  0.39180  0.12422  Biso   1.000  C
  H1       1.0000 0.22070  0.08620  0.67430  Biso   1.000  H
  H2       1.0000 0.77930  0.58620  0.82570  Biso   1.000  H
  H3       1.0000 0.77930  0.91380  0.32570  Biso   1.000  H
  H4       1.0000 0.22070  0.41380  0.17430  Biso   1.000  H
  C17      1.0000 0.13440  0.16940  0.46990  Biso   1.000  C
  C18      1.0000 0.86560  0.66940  0.03010  Biso   1.000  C
  C19      1.0000 0.86560  0.83060  0.53010  Biso   1.000  C
  C20      1.0000 0.13440  0.33060  0.96990  Biso   1.000  C
  H5       1.0000 0.17370  0.18940  0.41160  Biso   1.000  H
  H6       1.0000 0.82630  0.68940  0.08840  Biso   1.000  H
  H7       1.0000 0.82630  0.81060  0.58840  Biso   1.000  H
  H8       1.0000 0.17370  0.31060  0.91160  Biso   1.000  H
  C21      1.0000 0.98920  0.17590  0.47930  Biso   1.000  C
  C22      1.0000 0.01080  0.67590  0.02070  Biso   1.000  C
  C23      1.0000 0.01080  0.82410  0.52070  Biso   1.000  C
  C24      1.0000 0.98920  0.32410  0.97930  Biso   1.000  C
  H9       1.0000 0.93280  0.19960  0.42840  Biso   1.000  H
  H10      1.0000 0.06720  0.69960  0.07160  Biso   1.000  H
  H11      1.0000 0.06720  0.80040  0.57160  Biso   1.000  H
  H12      1.0000 0.93280  0.30040  0.92840  Biso   1.000  H
  C25      1.0000 0.92910  0.14680  0.56560  Biso   1.000  C
  C26      1.0000 0.07090  0.64680  0.93440  Biso   1.000  C
  C27      1.0000 0.07090  0.85320  0.43440  Biso   1.000  C
  C28      1.0000 0.92910  0.35320  0.06560  Biso   1.000  C
  H13      1.0000 0.83170  0.15090  0.57390  Biso   1.000  H
  H14      1.0000 0.16830  0.65090  0.92610  Biso   1.000  H
  H15      1.0000 0.16830  0.84910  0.42610  Biso   1.000  H
  H16      1.0000 0.83170  0.34910  0.07390  Biso   1.000  H
  C29      1.0000 0.73760  0.08620  0.93859  Biso   1.000  C
  C30      1.0000 0.26240  0.58620  0.56141  Biso   1.000  C
  C31      1.0000 0.26240  0.91380  0.06141  Biso   1.000  C
  C32      1.0000 0.73760  0.41380  0.43859  Biso   1.000  C
  C33      1.0000 0.63690  0.18570  0.93697  Biso   1.000  C
  C34      1.0000 0.36310  0.68570  0.56303  Biso   1.000  C
  C35      1.0000 0.36310  0.81430  0.06303  Biso   1.000  C
  C36      1.0000 0.63690  0.31430  0.43697  Biso   1.000  C
  H17      1.0000 0.62920  0.23680  0.88290  Biso   1.000  H
  H18      1.0000 0.37080  0.73680  0.61710  Biso   1.000  H
  H19      1.0000 0.37080  0.76320  0.11710  Biso   1.000  H
  H20      1.0000 0.62920  0.26320  0.38290  Biso   1.000  H
  C37      1.0000 0.55840  0.13320  0.08560  Biso   1.000  C
  C38      1.0000 0.44160  0.63320  0.41440  Biso   1.000  C
  C39      1.0000 0.44160  0.86680  0.91440  Biso   1.000  C
  C40      1.0000 0.55840  0.36680  0.58560  Biso   1.000  C
  H21      1.0000 0.49650  0.14780  0.13540  Biso   1.000  H
  H22      1.0000 0.50350  0.64780  0.36460  Biso   1.000  H
  H23      1.0000 0.50350  0.85220  0.86460  Biso   1.000  H
  H24      1.0000 0.49650  0.35220  0.63540  Biso   1.000  H
  C41      1.0000 0.65450  0.03260  0.09280  Biso   1.000  C
  C42      1.0000 0.34550  0.53260  0.40720  Biso   1.000  C
  C43      1.0000 0.34550  0.96740  0.90720  Biso   1.000  C
  C44      1.0000 0.65450  0.46740  0.59280  Biso   1.000  C
  H25      1.0000 0.65740  0.98070  0.14660  Biso   1.000  H
  H26      1.0000 0.34260  0.48070  0.35340  Biso   1.000  H
  H27      1.0000 0.34260  0.01930  0.85340  Biso   1.000  H
  H28      1.0000 0.65740  0.51930  0.64660  Biso   1.000  H
  C45      1.0000 0.74650  0.00950  0.01900  Biso   1.000  C
  C46      1.0000 0.25350  0.50950  0.48100  Biso   1.000  C
  C47      1.0000 0.25350  0.99050  0.98100  Biso   1.000  C
  C48      1.0000 0.74650  0.49050  0.51900  Biso   1.000  C
  H29      1.0000 0.81360  0.94320  0.02320  Biso   1.000  H
  H30      1.0000 0.18640  0.44320  0.47680  Biso   1.000  H
  H31      1.0000 0.18640  0.05680  0.97680  Biso   1.000  H
  H32      1.0000 0.81360  0.55680  0.52320  Biso   1.000  H
  H33      1.0000 0.85200  0.30500  0.74600  Biso   1.000  H
  H34      1.0000 0.14800  0.80500  0.75400  Biso   1.000  H
  H35      1.0000 0.14800  0.69500  0.25400  Biso   1.000  H
  H36      1.0000 0.85200  0.19500  0.24600  Biso   1.000  H
  H37      1.0000 0.72100  0.23400  0.71800  Biso   1.000  H
  H38      1.0000 0.27900  0.73400  0.78200  Biso   1.000  H
  H39      1.0000 0.27900  0.76600  0.28200  Biso   1.000  H
  H40      1.0000 0.72100  0.26600  0.21800  Biso   1.000  H
