data_image0
_cell_length_a       7.506
_cell_length_b       7.796
_cell_length_c       16.0364
_cell_angle_alpha    80.231
_cell_angle_beta     89.714
_cell_angle_gamma    89.512

_symmetry_space_group_name_H-M    "P 1"
_symmetry_int_tables_number       1

loop_
  _symmetry_equiv_pos_as_xyz
  'x, y, z'

loop_
  _atom_site_label
  _atom_site_occupancy
  _atom_site_fract_x
  _atom_site_fract_y
  _atom_site_fract_z
  _atom_site_thermal_displace_type
  _atom_site_B_iso_or_equiv
  _atom_site_type_symbol
  I1       1.0000 0.93207  0.27123  0.28368  Biso   1.000  I
  I2       1.0000 0.06793  0.72877  0.71632  Biso   1.000  I
  Cu1      1.0000 0.69565  0.43548  0.37190  Biso   1.000  Cu
  Cu2      1.0000 0.30435  0.56452  0.62810  Biso   1.000  Cu
  Cu3      1.0000 0.66447  0.27262  0.17254  Biso   1.000  Cu
  Cu4      1.0000 0.33553  0.72738  0.82746  Biso   1.000  Cu
  Cu5      1.0000 0.76786  0.98366  0.27067  Biso   1.000  Cu
  Cu6      1.0000 0.23214  0.01634  0.72933  Biso   1.000  Cu
  N1       1.0000 0.69060  0.29750  0.48980  Biso   1.000  N
  N2       1.0000 0.30940  0.70250  0.51020  Biso   1.000  N
  N3       1.0000 0.51190  0.51090  0.70730  Biso   1.000  N
  N4       1.0000 0.48810  0.48910  0.29270  Biso   1.000  N
  N5       1.0000 0.52650  0.57500  0.78180  Biso   1.000  N
  N6       1.0000 0.47350  0.42500  0.21820  Biso   1.000  N
  N7       1.0000 0.72040  0.36710  0.78330  Biso   1.000  N
  N8       1.0000 0.27960  0.63290  0.21670  Biso   1.000  N
  N9       1.0000 0.86320  0.25210  0.81210  Biso   1.000  N
  N10      1.0000 0.13680  0.74790  0.18790  Biso   1.000  N
  H1       1.0000 0.91370  0.25640  0.86110  Biso   1.000  H
  H2       1.0000 0.08630  0.74360  0.13890  Biso   1.000  H
  H3       1.0000 0.90130  0.17640  0.78100  Biso   1.000  H
  H4       1.0000 0.09870  0.82360  0.21900  Biso   1.000  H
  N11      1.0000 0.73890  0.42640  0.05870  Biso   1.000  N
  N12      1.0000 0.26110  0.57360  0.94130  Biso   1.000  N
  C1       1.0000 0.70610  0.12600  0.50360  Biso   1.000  C
  C2       1.0000 0.29390  0.87400  0.49640  Biso   1.000  C
  H5       1.0000 0.72290  0.06920  0.45620  Biso   1.000  H
  H6       1.0000 0.27710  0.93080  0.54380  Biso   1.000  H
  C3       1.0000 0.69940  0.02520  0.58290  Biso   1.000  C
  C4       1.0000 0.30060  0.97480  0.41710  Biso   1.000  C
  H7       1.0000 0.71000  0.90210  0.58910  Biso   1.000  H
  H8       1.0000 0.29000  0.09790  0.41090  Biso   1.000  H
  C5       1.0000 0.67730  0.10280  0.65270  Biso   1.000  C
  C6       1.0000 0.32270  0.89720  0.34730  Biso   1.000  C
  H9       1.0000 0.67440  0.03610  0.70800  Biso   1.000  H
  H10      1.0000 0.32560  0.96390  0.29200  Biso   1.000  H
  C7       1.0000 0.65900  0.28580  0.63920  Biso   1.000  C
  C8       1.0000 0.34100  0.71420  0.36080  Biso   1.000  C
  C9       1.0000 0.66770  0.37610  0.55760  Biso   1.000  C
  C10      1.0000 0.33230  0.62390  0.44240  Biso   1.000  C
  H11      1.0000 0.65710  0.49930  0.54880  Biso   1.000  H
  H12      1.0000 0.34290  0.50070  0.45120  Biso   1.000  H
  C11      1.0000 0.63020  0.38480  0.70850  Biso   1.000  C
  C12      1.0000 0.36980  0.61520  0.29150  Biso   1.000  C
  C13      1.0000 0.65390  0.48670  0.82690  Biso   1.000  C
  C14      1.0000 0.34610  0.51330  0.17310  Biso   1.000  C
  C15      1.0000 0.71420  0.51820  0.91020  Biso   1.000  C
  C16      1.0000 0.28580  0.48180  0.08980  Biso   1.000  C
  C17      1.0000 0.78880  0.67800  0.91750  Biso   1.000  C
  C18      1.0000 0.21120  0.32200  0.08250  Biso   1.000  C
  H13      1.0000 0.80370  0.76530  0.86900  Biso   1.000  H
  H14      1.0000 0.19630  0.23470  0.13100  Biso   1.000  H
  C19      1.0000 0.83970  0.70690  0.99500  Biso   1.000  C
  C20      1.0000 0.16030  0.29310  0.00500  Biso   1.000  C
  H15      1.0000 0.89400  0.81370  0.00120  Biso   1.000  H
  H16      1.0000 0.10600  0.18630  0.99880  Biso   1.000  H
  C21      1.0000 0.81170  0.57830  0.06520  Biso   1.000  C
  C22      1.0000 0.18830  0.42170  0.93480  Biso   1.000  C
  H17      1.0000 0.84560  0.59980  0.11950  Biso   1.000  H
  H18      1.0000 0.15440  0.40020  0.88050  Biso   1.000  H
  C23      1.0000 0.69180  0.39610  0.98270  Biso   1.000  C
  C24      1.0000 0.30820  0.60390  0.01730  Biso   1.000  C
  H19      1.0000 0.64100  0.28690  0.97810  Biso   1.000  H
  H20      1.0000 0.35900  0.71310  0.02190  Biso   1.000  H
  I3       1.0000 0.59130  0.96841  0.13644  Biso   1.000  I
  I4       1.0000 0.40870  0.03159  0.86356  Biso   1.000  I
  I5       1.0000 0.84013  0.73655  0.38744  Biso   1.000  I
  I6       1.0000 0.15987  0.26345  0.61256  Biso   1.000  I
