data_image0
_cell_length_a       7.5308
_cell_length_b       7.8333
_cell_length_c       16.04
_cell_angle_alpha    80.271
_cell_angle_beta     89.865
_cell_angle_gamma    89.413

_symmetry_space_group_name_H-M    "P 1"
_symmetry_int_tables_number       1

loop_
  _symmetry_equiv_pos_as_xyz
  'x, y, z'

loop_
  _atom_site_label
  _atom_site_occupancy
  _atom_site_fract_x
  _atom_site_fract_y
  _atom_site_fract_z
  _atom_site_thermal_displace_type
  _atom_site_B_iso_or_equiv
  _atom_site_type_symbol
  Cu1      1.0000 0.19601  0.43586  0.87212  Biso   1.000  Cu
  Cu2      1.0000 0.80399  0.56414  0.12788  Biso   1.000  Cu
  Cu3      1.0000 0.16489  0.27337  0.67279  Biso   1.000  Cu
  Cu4      1.0000 0.83511  0.72663  0.32721  Biso   1.000  Cu
  Cu5      1.0000 0.26947  0.98554  0.77093  Biso   1.000  Cu
  Cu6      1.0000 0.73053  0.01446  0.22907  Biso   1.000  Cu
  I1       1.0000 0.43210  0.27234  0.78402  Biso   1.000  I
  I2       1.0000 0.56790  0.72766  0.21599  Biso   1.000  I
  I3       1.0000 0.34130  0.73702  0.88788  Biso   1.000  I
  I4       1.0000 0.65870  0.26298  0.11212  Biso   1.000  I
  I5       1.0000 0.09247  0.96987  0.63638  Biso   1.000  I
  I6       1.0000 0.90753  0.03013  0.36362  Biso   1.000  I
  N1       1.0000 0.98850  0.49050  0.79250  Biso   1.000  N
  N2       1.0000 0.01150  0.50950  0.20750  Biso   1.000  N
  N3       1.0000 0.97330  0.42580  0.71770  Biso   1.000  N
  N4       1.0000 0.02670  0.57420  0.28230  Biso   1.000  N
  N5       1.0000 0.77980  0.63440  0.71650  Biso   1.000  N
  N6       1.0000 0.22020  0.36560  0.28350  Biso   1.000  N
  N7       1.0000 0.63810  0.74740  0.68770  Biso   1.000  N
  N8       1.0000 0.36190  0.25260  0.31230  Biso   1.000  N
  H1       1.0000 0.67800  0.85000  0.67300  Biso   1.000  H
  H2       1.0000 0.32200  0.15000  0.32700  Biso   1.000  H
  H3       1.0000 0.55800  0.74700  0.72100  Biso   1.000  H
  H4       1.0000 0.44200  0.25300  0.27900  Biso   1.000  H
  N9       1.0000 0.81160  0.70210  0.00990  Biso   1.000  N
  N10      1.0000 0.18840  0.29790  0.99010  Biso   1.000  N
  N11      1.0000 0.76100  0.57450  0.44010  Biso   1.000  N
  N12      1.0000 0.23900  0.42550  0.55990  Biso   1.000  N
  C1       1.0000 0.84620  0.51330  0.67280  Biso   1.000  C
  C2       1.0000 0.15380  0.48670  0.32720  Biso   1.000  C
  C3       1.0000 0.87120  0.61550  0.79150  Biso   1.000  C
  C4       1.0000 0.12880  0.38450  0.20850  Biso   1.000  C
  C5       1.0000 0.78570  0.48220  0.58990  Biso   1.000  C
  C6       1.0000 0.21430  0.51780  0.41010  Biso   1.000  C
  C7       1.0000 0.80850  0.60430  0.51690  Biso   1.000  C
  C8       1.0000 0.19150  0.39570  0.48310  Biso   1.000  C
  H5       1.0000 0.87100  0.71400  0.52300  Biso   1.000  H
  H6       1.0000 0.12900  0.28600  0.47700  Biso   1.000  H
  C9       1.0000 0.68760  0.42040  0.43490  Biso   1.000  C
  C10      1.0000 0.31240  0.57960  0.56510  Biso   1.000  C
  C11      1.0000 0.66010  0.29330  0.50440  Biso   1.000  C
  C12      1.0000 0.33990  0.70670  0.49560  Biso   1.000  C
  H7       1.0000 0.61900  0.18500  0.50300  Biso   1.000  H
  H8       1.0000 0.38100  0.81500  0.49700  Biso   1.000  H
  C13      1.0000 0.71160  0.32200  0.58360  Biso   1.000  C
  C14      1.0000 0.28840  0.67800  0.41640  Biso   1.000  C
  H9       1.0000 0.71400  0.22300  0.64000  Biso   1.000  H
  H10      1.0000 0.28600  0.77700  0.36000  Biso   1.000  H
  C15      1.0000 0.84160  0.71520  0.85990  Biso   1.000  C
  C16      1.0000 0.15840  0.28480  0.14010  Biso   1.000  C
  C17      1.0000 0.82400  0.89600  0.84710  Biso   1.000  C
  C18      1.0000 0.17600  0.10400  0.15290  Biso   1.000  C
  H11      1.0000 0.83400  0.95400  0.79100  Biso   1.000  H
  H12      1.0000 0.16600  0.04600  0.20900  Biso   1.000  H
  C19      1.0000 0.79980  0.97380  0.91620  Biso   1.000  C
  C20      1.0000 0.20020  0.02620  0.08380  Biso   1.000  C
  H13      1.0000 0.80000  0.07300  0.91200  Biso   1.000  H
  H14      1.0000 0.20000  0.92700  0.08800  Biso   1.000  H
  C21      1.0000 0.79570  0.87560  0.99600  Biso   1.000  C
  C22      1.0000 0.20430  0.12440  0.00400  Biso   1.000  C
  H15      1.0000 0.79200  0.92100  0.05000  Biso   1.000  H
  H16      1.0000 0.20800  0.07900  0.95000  Biso   1.000  H
  C23      1.0000 0.83330  0.62380  0.94230  Biso   1.000  C
  C24      1.0000 0.16670  0.37620  0.05770  Biso   1.000  C
  H17      1.0000 0.85100  0.49600  0.95700  Biso   1.000  H
  H18      1.0000 0.14900  0.50400  0.04300  Biso   1.000  H
  H19      1.0000 0.65100  0.40500  0.37700  Biso   1.000  H
  H20      1.0000 0.34900  0.59500  0.62300  Biso   1.000  H
