data_image0
_cell_length_a       10.6581
_cell_length_b       15.4244
_cell_length_c       16.9083
_cell_angle_alpha    80.114
_cell_angle_beta     76.006
_cell_angle_gamma    82.716

_symmetry_space_group_name_H-M    "P 1"
_symmetry_int_tables_number       1

loop_
  _symmetry_equiv_pos_as_xyz
  'x, y, z'

loop_
  _atom_site_label
  _atom_site_occupancy
  _atom_site_fract_x
  _atom_site_fract_y
  _atom_site_fract_z
  _atom_site_thermal_displace_type
  _atom_site_B_iso_or_equiv
  _atom_site_type_symbol
  Cu1      1.0000 0.42378  0.75909  0.26356  Biso   1.000  Cu
  Cu2      1.0000 0.57622  0.24091  0.73644  Biso   1.000  Cu
  Cl1      1.0000 0.98030  0.30228  0.20264  Biso   1.000  Cl
  Cl2      1.0000 0.01970  0.69772  0.79736  Biso   1.000  Cl
  P1       1.0000 0.27543  0.65921  0.28009  Biso   1.000  P
  P2       1.0000 0.72457  0.34079  0.71991  Biso   1.000  P
  P3       1.0000 0.55009  0.76635  0.35349  Biso   1.000  P
  P4       1.0000 0.44991  0.23365  0.64651  Biso   1.000  P
  O1       1.0000 0.96550  0.23150  0.17680  Biso   1.000  O
  O2       1.0000 0.03450  0.76850  0.82320  Biso   1.000  O
  O3       1.0000 0.00640  0.35860  0.13700  Biso   1.000  O
  O4       1.0000 0.99360  0.64140  0.86300  Biso   1.000  O
  O5       1.0000 0.98550  0.29500  0.27970  Biso   1.000  O
  O6       1.0000 0.01450  0.70500  0.72030  Biso   1.000  O
  O7       1.0000 0.85160  0.34290  0.22370  Biso   1.000  O
  O8       1.0000 0.14840  0.65710  0.77630  Biso   1.000  O
  O9       1.0000 0.94210  0.07100  0.04410  Biso   1.000  O
  O10      1.0000 0.05790  0.92900  0.95590  Biso   1.000  O
  N1       1.0000 0.55900  0.75760  0.14920  Biso   1.000  N
  N2       1.0000 0.44100  0.24240  0.85080  Biso   1.000  N
  N3       1.0000 0.78450  0.60540  0.02720  Biso   1.000  N
  N4       1.0000 0.21550  0.39460  0.97280  Biso   1.000  N
  H1       1.0000 0.85820  0.60790  0.99250  Biso   1.000  H
  H2       1.0000 0.14180  0.39210  0.00750  Biso   1.000  H
  N5       1.0000 0.31510  0.88050  0.23120  Biso   1.000  N
  N6       1.0000 0.68490  0.11950  0.76880  Biso   1.000  N
  N7       1.0000 0.19360  0.09760  0.29250  Biso   1.000  N
  N8       1.0000 0.80640  0.90240  0.70750  Biso   1.000  N
  H3       1.0000 0.17130  0.14890  0.26820  Biso   1.000  H
  H4       1.0000 0.82870  0.85110  0.73180  Biso   1.000  H
  C1       1.0000 0.19350  0.67800  0.19440  Biso   1.000  C
  C2       1.0000 0.80650  0.32200  0.80560  Biso   1.000  C
  C3       1.0000 0.06950  0.71670  0.20130  Biso   1.000  C
  C4       1.0000 0.93050  0.28330  0.79870  Biso   1.000  C
  H5       1.0000 0.02040  0.72910  0.25230  Biso   1.000  H
  H6       1.0000 0.97960  0.27090  0.74770  Biso   1.000  H
  C5       1.0000 0.01630  0.73770  0.13140  Biso   1.000  C
  C6       1.0000 0.98370  0.26230  0.86860  Biso   1.000  C
  H7       1.0000 0.93300  0.76590  0.13560  Biso   1.000  H
  H8       1.0000 0.06700  0.23410  0.86440  Biso   1.000  H
  C7       1.0000 0.08580  0.71700  0.05800  Biso   1.000  C
  C8       1.0000 0.91420  0.28300  0.94200  Biso   1.000  C
  H9       1.0000 0.04800  0.72720  0.01280  Biso   1.000  H
  H10      1.0000 0.95200  0.27280  0.98720  Biso   1.000  H
  C9       1.0000 0.21190  0.68100  0.04990  Biso   1.000  C
  C10      1.0000 0.78810  0.31900  0.95010  Biso   1.000  C
  H11      1.0000 0.26160  0.67020  0.99860  Biso   1.000  H
  H12      1.0000 0.73840  0.32980  0.00140  Biso   1.000  H
  C11      1.0000 0.26320  0.66130  0.11740  Biso   1.000  C
  C12      1.0000 0.73680  0.33870  0.88260  Biso   1.000  C
  H13      1.0000 0.34810  0.63570  0.11180  Biso   1.000  H
  H14      1.0000 0.65190  0.36430  0.88820  Biso   1.000  H
  C13      1.0000 0.14260  0.67020  0.37010  Biso   1.000  C
  C14      1.0000 0.85740  0.32980  0.62990  Biso   1.000  C
  C15      1.0000 0.12560  0.74680  0.40430  Biso   1.000  C
  C16      1.0000 0.87440  0.25320  0.59570  Biso   1.000  C
  H15      1.0000 0.17990  0.79140  0.38010  Biso   1.000  H
  H16      1.0000 0.82010  0.20860  0.61990  Biso   1.000  H
  C17      1.0000 0.02910  0.75910  0.47440  Biso   1.000  C
  C18      1.0000 0.97090  0.24090  0.52560  Biso   1.000  C
  H17      1.0000 0.02000  0.81120  0.49680  Biso   1.000  H
  H18      1.0000 0.98000  0.18880  0.50320  Biso   1.000  H
  C19      1.0000 0.94810  0.69500  0.51000  Biso   1.000  C
  C20      1.0000 0.05190  0.30500  0.49000  Biso   1.000  C
  H19      1.0000 0.88400  0.70280  0.55710  Biso   1.000  H
  H20      1.0000 0.11600  0.29720  0.44290  Biso   1.000  H
  C21      1.0000 0.96130  0.61950  0.47650  Biso   1.000  C
  C22      1.0000 0.03870  0.38050  0.52350  Biso   1.000  C
  H21      1.0000 0.90500  0.57590  0.50010  Biso   1.000  H
  H22      1.0000 0.09500  0.42410  0.49990  Biso   1.000  H
  C23      1.0000 0.05780  0.60740  0.40770  Biso   1.000  C
  C24      1.0000 0.94220  0.39260  0.59230  Biso   1.000  C
  H23      1.0000 0.06600  0.55500  0.38590  Biso   1.000  H
  H24      1.0000 0.93400  0.44500  0.61410  Biso   1.000  H
  C25      1.0000 0.32580  0.54120  0.28910  Biso   1.000  C
  C26      1.0000 0.67420  0.45880  0.71090  Biso   1.000  C
  C27      1.0000 0.44100  0.51100  0.31340  Biso   1.000  C
  C28      1.0000 0.55900  0.48900  0.68660  Biso   1.000  C
  H25      1.0000 0.49220  0.55120  0.32250  Biso   1.000  H
  H26      1.0000 0.50780  0.44880  0.67750  Biso   1.000  H
  C29      1.0000 0.48000  0.42230  0.32420  Biso   1.000  C
  C30      1.0000 0.52000  0.57770  0.67580  Biso   1.000  C
  H27      1.0000 0.55700  0.40320  0.34100  Biso   1.000  H
  H28      1.0000 0.44300  0.59680  0.65900  Biso   1.000  H
  C31      1.0000 0.40790  0.36230  0.31090  Biso   1.000  C
  C32      1.0000 0.59210  0.63770  0.68910  Biso   1.000  C
  H29      1.0000 0.43500  0.30240  0.31930  Biso   1.000  H
  H30      1.0000 0.56500  0.69760  0.68070  Biso   1.000  H
  C33      1.0000 0.29230  0.39050  0.28420  Biso   1.000  C
  C34      1.0000 0.70770  0.60950  0.71580  Biso   1.000  C
  H31      1.0000 0.24290  0.34970  0.27430  Biso   1.000  H
  H32      1.0000 0.75710  0.65030  0.72570  Biso   1.000  H
  C35      1.0000 0.25310  0.47950  0.27290  Biso   1.000  C
  C36      1.0000 0.74690  0.52050  0.72710  Biso   1.000  C
  H33      1.0000 0.17760  0.49880  0.25440  Biso   1.000  H
  H34      1.0000 0.82240  0.50120  0.74560  Biso   1.000  H
  C37      1.0000 0.66930  0.84800  0.31820  Biso   1.000  C
  C38      1.0000 0.33070  0.15200  0.68180  Biso   1.000  C
  C39      1.0000 0.79210  0.83500  0.33550  Biso   1.000  C
  C40      1.0000 0.20790  0.16500  0.66450  Biso   1.000  C
  H35      1.0000 0.81830  0.78180  0.36460  Biso   1.000  H
  H36      1.0000 0.18170  0.21820  0.63540  Biso   1.000  H
  C41      1.0000 0.87440  0.90080  0.30950  Biso   1.000  C
  C42      1.0000 0.12560  0.09920  0.69050  Biso   1.000  C
  H37      1.0000 0.95640  0.89160  0.32110  Biso   1.000  H
  H38      1.0000 0.04360  0.10840  0.67890  Biso   1.000  H
  C43      1.0000 0.83790  0.98030  0.26660  Biso   1.000  C
  C44      1.0000 0.16210  0.01970  0.73340  Biso   1.000  C
  H39      1.0000 0.89480  0.02430  0.24880  Biso   1.000  H
  H40      1.0000 0.10520  0.97570  0.75120  Biso   1.000  H
  C45      1.0000 0.71740  0.99380  0.25050  Biso   1.000  C
  C46      1.0000 0.28260  0.00620  0.74950  Biso   1.000  C
  H41      1.0000 0.69100  0.04770  0.22250  Biso   1.000  H
  H42      1.0000 0.30900  0.95230  0.77750  Biso   1.000  H
  C47      1.0000 0.63460  0.92810  0.27540  Biso   1.000  C
  C48      1.0000 0.36540  0.07190  0.72460  Biso   1.000  C
  H43      1.0000 0.55310  0.93800  0.26300  Biso   1.000  H
  H44      1.0000 0.44690  0.06200  0.73700  Biso   1.000  H
  C49      1.0000 0.47130  0.78920  0.45820  Biso   1.000  C
  C50      1.0000 0.52870  0.21080  0.54180  Biso   1.000  C
  C51      1.0000 0.36560  0.74430  0.50060  Biso   1.000  C
  C52      1.0000 0.63440  0.25570  0.49940  Biso   1.000  C
  H45      1.0000 0.33670  0.70350  0.47600  Biso   1.000  H
  H46      1.0000 0.66330  0.29650  0.52400  Biso   1.000  H
  C53      1.0000 0.30200  0.75910  0.57930  Biso   1.000  C
  C54      1.0000 0.69800  0.24090  0.42070  Biso   1.000  C
  H47      1.0000 0.23160  0.72760  0.60730  Biso   1.000  H
  H48      1.0000 0.76840  0.27240  0.39270  Biso   1.000  H
  C55      1.0000 0.34140  0.81920  0.61590  Biso   1.000  C
  C56      1.0000 0.65860  0.18080  0.38410  Biso   1.000  C
  H49      1.0000 0.29900  0.82860  0.66910  Biso   1.000  H
  H50      1.0000 0.70100  0.17140  0.33090  Biso   1.000  H
  C57      1.0000 0.44520  0.86610  0.57330  Biso   1.000  C
  C58      1.0000 0.55480  0.13390  0.42670  Biso   1.000  C
  H51      1.0000 0.47140  0.90830  0.59770  Biso   1.000  H
  H52      1.0000 0.52860  0.09170  0.40230  Biso   1.000  H
  C59      1.0000 0.51110  0.85130  0.49460  Biso   1.000  C
  C60      1.0000 0.48890  0.14870  0.50540  Biso   1.000  C
  H53      1.0000 0.58140  0.88290  0.46660  Biso   1.000  H
  H54      1.0000 0.41860  0.11710  0.53340  Biso   1.000  H
  C61      1.0000 0.64850  0.66090  0.36890  Biso   1.000  C
  C62      1.0000 0.35150  0.33910  0.63110  Biso   1.000  C
  C63      1.0000 0.73560  0.63290  0.30070  Biso   1.000  C
  C64      1.0000 0.26440  0.36710  0.69930  Biso   1.000  C
  H55      1.0000 0.74920  0.67040  0.25060  Biso   1.000  H
  H56      1.0000 0.25080  0.32960  0.74940  Biso   1.000  H
  C65      1.0000 0.80200  0.55040  0.30640  Biso   1.000  C
  C66      1.0000 0.19800  0.44960  0.69360  Biso   1.000  C
  H57      1.0000 0.86060  0.53290  0.26020  Biso   1.000  H
  H58      1.0000 0.13940  0.46710  0.73980  Biso   1.000  H
  C67      1.0000 0.78290  0.49370  0.37910  Biso   1.000  C
  C68      1.0000 0.21710  0.50630  0.62090  Biso   1.000  C
  H59      1.0000 0.82830  0.43800  0.38270  Biso   1.000  H
  H60      1.0000 0.17170  0.56200  0.61730  Biso   1.000  H
  C69      1.0000 0.69750  0.51960  0.44510  Biso   1.000  C
  C70      1.0000 0.30250  0.48040  0.55490  Biso   1.000  C
  H61      1.0000 0.68290  0.48060  0.49420  Biso   1.000  H
  H62      1.0000 0.31710  0.51940  0.50580  Biso   1.000  H
  C71      1.0000 0.63020  0.60310  0.44230  Biso   1.000  C
  C72      1.0000 0.36980  0.39690  0.55770  Biso   1.000  C
  H63      1.0000 0.57340  0.62000  0.48940  Biso   1.000  H
  H64      1.0000 0.42660  0.38000  0.51060  Biso   1.000  H
  C73      1.0000 0.61600  0.68360  0.12080  Biso   1.000  C
  C74      1.0000 0.38400  0.31640  0.87920  Biso   1.000  C
  H65      1.0000 0.58380  0.63030  0.14700  Biso   1.000  H
  H66      1.0000 0.41620  0.36970  0.85300  Biso   1.000  H
  C75      1.0000 0.60270  0.83470  0.10970  Biso   1.000  C
  C76      1.0000 0.39730  0.16530  0.89030  Biso   1.000  C
  H67      1.0000 0.56340  0.88680  0.12900  Biso   1.000  H
  H68      1.0000 0.43660  0.11320  0.87100  Biso   1.000  H
  C77      1.0000 0.70340  0.83910  0.04170  Biso   1.000  C
  C78      1.0000 0.29660  0.16090  0.95830  Biso   1.000  C
  H69      1.0000 0.73060  0.89370  0.01500  Biso   1.000  H
  H70      1.0000 0.26940  0.10630  0.98500  Biso   1.000  H
  C79      1.0000 0.76370  0.76380  0.01310  Biso   1.000  C
  C80      1.0000 0.23630  0.23620  0.98690  Biso   1.000  C
  H71      1.0000 0.83230  0.76680  0.96700  Biso   1.000  H
  H72      1.0000 0.16770  0.23320  0.03300  Biso   1.000  H
  C81      1.0000 0.72240  0.68220  0.05320  Biso   1.000  C
  C82      1.0000 0.27760  0.31780  0.94680  Biso   1.000  C
  C83      1.0000 0.73340  0.52130  0.05480  Biso   1.000  C
  C84      1.0000 0.26660  0.47870  0.94520  Biso   1.000  C
  H73      1.0000 0.71510  0.51060  0.11450  Biso   1.000  H
  H74      1.0000 0.28490  0.48940  0.88550  Biso   1.000  H
  H75      1.0000 0.79950  0.47600  0.03480  Biso   1.000  H
  H76      1.0000 0.20050  0.52400  0.96520  Biso   1.000  H
  C85      1.0000 0.61020  0.51200  0.02710  Biso   1.000  C
  C86      1.0000 0.38980  0.48800  0.97290  Biso   1.000  C
  C87      1.0000 0.59260  0.55120  0.95020  Biso   1.000  C
  C88      1.0000 0.40740  0.44880  0.04980  Biso   1.000  C
  H77      1.0000 0.65450  0.58630  0.91560  Biso   1.000  H
  H78      1.0000 0.34550  0.41370  0.08440  Biso   1.000  H
  C89      1.0000 0.51680  0.46140  0.07560  Biso   1.000  C
  C90      1.0000 0.48320  0.53860  0.92440  Biso   1.000  C
  H79      1.0000 0.52670  0.43450  0.12760  Biso   1.000  H
  H80      1.0000 0.47330  0.56550  0.87240  Biso   1.000  H
  C91      1.0000 0.28100  0.94640  0.27600  Biso   1.000  C
  C92      1.0000 0.71900  0.05360  0.72400  Biso   1.000  C
  H81      1.0000 0.30020  0.93840  0.32780  Biso   1.000  H
  H82      1.0000 0.69980  0.06160  0.67220  Biso   1.000  H
  C93      1.0000 0.28050  0.88940  0.15880  Biso   1.000  C
  C94      1.0000 0.71950  0.11060  0.84120  Biso   1.000  C
  H83      1.0000 0.30340  0.84350  0.12750  Biso   1.000  H
  H84      1.0000 0.69660  0.15650  0.87250  Biso   1.000  H
  C95      1.0000 0.21120  0.96580  0.12970  Biso   1.000  C
  C96      1.0000 0.78880  0.03420  0.87030  Biso   1.000  C
  H85      1.0000 0.18580  0.97030  0.08020  Biso   1.000  H
  H86      1.0000 0.81420  0.02970  0.91980  Biso   1.000  H
  C97      1.0000 0.18110  0.03380  0.17460  Biso   1.000  C
  C98      1.0000 0.81890  0.96620  0.82540  Biso   1.000  C
  H87      1.0000 0.13550  0.08530  0.15530  Biso   1.000  H
  H88      1.0000 0.86450  0.91470  0.84470  Biso   1.000  H
  C99      1.0000 0.21770  0.02700  0.24890  Biso   1.000  C
  C100     1.0000 0.78230  0.97300  0.75110  Biso   1.000  C
  C101     1.0000 0.20440  0.08910  0.37720  Biso   1.000  C
  C102     1.0000 0.79560  0.91090  0.62280  Biso   1.000  C
  H89      1.0000 0.20300  0.14770  0.39100  Biso   1.000  H
  H90      1.0000 0.79700  0.85230  0.60900  Biso   1.000  H
  H91      1.0000 0.28790  0.05800  0.38180  Biso   1.000  H
  H92      1.0000 0.71210  0.94200  0.61820  Biso   1.000  H
  C103     1.0000 0.09890  0.04090  0.43980  Biso   1.000  C
  C104     1.0000 0.90110  0.95910  0.56020  Biso   1.000  C
  C105     1.0000 0.97260  0.04820  0.42990  Biso   1.000  C
  C106     1.0000 0.02740  0.95180  0.57010  Biso   1.000  C
  H93      1.0000 0.95270  0.08040  0.38210  Biso   1.000  H
  H94      1.0000 0.04730  0.91960  0.61790  Biso   1.000  H
  C107     1.0000 0.12490  0.99190  0.51000  Biso   1.000  C
  C108     1.0000 0.87510  0.00810  0.49000  Biso   1.000  C
  H95      1.0000 0.20920  0.98510  0.51790  Biso   1.000  H
  H96      1.0000 0.79080  0.01490  0.48210  Biso   1.000  H
  C109     1.0000 0.48200  0.18190  0.11270  Biso   1.000  C
  C110     1.0000 0.51800  0.81810  0.88730  Biso   1.000  C
  H97      1.0000 0.39960  0.17440  0.15140  Biso   1.000  H
  H98      1.0000 0.60040  0.82560  0.84860  Biso   1.000  H
  H99      1.0000 0.46710  0.22620  0.06710  Biso   1.000  H
  H100     1.0000 0.53290  0.77380  0.93290  Biso   1.000  H
  Cl3      1.0000 0.53900  0.08230  0.07530  Biso   1.000  Cl
  Cl4      1.0000 0.46100  0.91770  0.92470  Biso   1.000  Cl
  Cl5      1.0000 0.58570  0.22180  0.16160  Biso   1.000  Cl
  Cl6      1.0000 0.41430  0.77820  0.83840  Biso   1.000  Cl
  C111     1.0000 0.53700  0.19760  0.08380  Biso   1.000  C
  C112     1.0000 0.46300  0.80240  0.91620  Biso   1.000  C
  Cl7      1.0000 0.61130  0.09780  0.05460  Biso   1.000  Cl
  Cl8      1.0000 0.38870  0.90220  0.94540  Biso   1.000  Cl
  Cl9      1.0000 0.44730  0.18610  0.18540  Biso   1.000  Cl
  Cl10     1.0000 0.55270  0.81390  0.81460  Biso   1.000  Cl
  H101     1.0000 0.47920  0.22320  0.04760  Biso   1.000  H
  H102     1.0000 0.52080  0.77680  0.95240  Biso   1.000  H
  H103     1.0000 0.60220  0.23800  0.07740  Biso   1.000  H
  H104     1.0000 0.39780  0.76200  0.92260  Biso   1.000  H
