data_image0
_cell_length_a       14.0535
_cell_length_b       14.5012
_cell_length_c       3.7751
_cell_angle_alpha    90
_cell_angle_beta     90
_cell_angle_gamma    90

_symmetry_space_group_name_H-M    "P 1"
_symmetry_int_tables_number       1

loop_
  _symmetry_equiv_pos_as_xyz
  'x, y, z'

loop_
  _atom_site_label
  _atom_site_occupancy
  _atom_site_fract_x
  _atom_site_fract_y
  _atom_site_fract_z
  _atom_site_thermal_displace_type
  _atom_site_B_iso_or_equiv
  _atom_site_type_symbol
  Cu1      1.0000 0.18093  0.54483  0.15027  Biso   1.000  Cu
  Cu2      1.0000 0.31907  0.45517  0.65027  Biso   1.000  Cu
  Cu3      1.0000 0.81907  0.04483  0.84973  Biso   1.000  Cu
  Cu4      1.0000 0.68093  0.95517  0.34973  Biso   1.000  Cu
  Cu5      1.0000 0.81907  0.45517  0.84973  Biso   1.000  Cu
  Cu6      1.0000 0.68093  0.54483  0.34973  Biso   1.000  Cu
  Cu7      1.0000 0.18093  0.95517  0.15027  Biso   1.000  Cu
  Cu8      1.0000 0.31907  0.04483  0.65027  Biso   1.000  Cu
  Cl1      1.0000 0.14295  0.45141  0.62788  Biso   1.000  Cl
  Cl2      1.0000 0.35705  0.54859  0.12788  Biso   1.000  Cl
  Cl3      1.0000 0.85705  0.95141  0.37212  Biso   1.000  Cl
  Cl4      1.0000 0.64295  0.04859  0.87212  Biso   1.000  Cl
  Cl5      1.0000 0.85705  0.54859  0.37212  Biso   1.000  Cl
  Cl6      1.0000 0.64295  0.45141  0.87212  Biso   1.000  Cl
  Cl7      1.0000 0.14295  0.04859  0.62788  Biso   1.000  Cl
  Cl8      1.0000 0.35705  0.95141  0.12788  Biso   1.000  Cl
  N1       1.0000 0.12108  0.66771  0.05500  Biso   1.000  N
  N2       1.0000 0.37892  0.33229  0.55500  Biso   1.000  N
  N3       1.0000 0.87892  0.16771  0.94500  Biso   1.000  N
  N4       1.0000 0.62108  0.83229  0.44500  Biso   1.000  N
  N5       1.0000 0.87892  0.33229  0.94500  Biso   1.000  N
  N6       1.0000 0.62108  0.66771  0.44500  Biso   1.000  N
  N7       1.0000 0.12108  0.83229  0.05500  Biso   1.000  N
  N8       1.0000 0.37892  0.16771  0.55500  Biso   1.000  N
  N9       1.0000 0.24430  0.75000  0.30280  Biso   1.000  N
  N10      1.0000 0.25570  0.25000  0.80280  Biso   1.000  N
  N11      1.0000 0.75570  0.25000  0.69720  Biso   1.000  N
  N12      1.0000 0.74430  0.75000  0.19720  Biso   1.000  N
  H1       1.0000 0.27300  0.71000  0.33900  Biso   1.000  H
  H2       1.0000 0.22700  0.29000  0.83900  Biso   1.000  H
  H3       1.0000 0.72700  0.21000  0.66100  Biso   1.000  H
  H4       1.0000 0.77300  0.79000  0.16100  Biso   1.000  H
  H5       1.0000 0.72700  0.29000  0.66100  Biso   1.000  H
  H6       1.0000 0.77300  0.71000  0.16100  Biso   1.000  H
  H7       1.0000 0.27300  0.79000  0.33900  Biso   1.000  H
  H8       1.0000 0.22700  0.21000  0.83900  Biso   1.000  H
  C1       1.0000 0.16110  0.75000  0.13390  Biso   1.000  C
  C2       1.0000 0.33890  0.25000  0.63390  Biso   1.000  C
  C3       1.0000 0.83890  0.25000  0.86610  Biso   1.000  C
  C4       1.0000 0.66110  0.75000  0.36610  Biso   1.000  C
  C5       1.0000 0.99020  0.75000  0.81170  Biso   1.000  C
  C6       1.0000 0.50980  0.25000  0.31170  Biso   1.000  C
  C7       1.0000 0.00980  0.25000  0.18830  Biso   1.000  C
  C8       1.0000 0.49020  0.75000  0.68830  Biso   1.000  C
  H9       1.0000 0.93070  0.75000  0.70370  Biso   1.000  H
  H10      1.0000 0.56930  0.25000  0.20370  Biso   1.000  H
  H11      1.0000 0.06930  0.25000  0.29630  Biso   1.000  H
  H12      1.0000 0.43070  0.75000  0.79630  Biso   1.000  H
  C9       1.0000 0.03640  0.66900  0.89560  Biso   1.000  C
  C10      1.0000 0.46360  0.33100  0.39560  Biso   1.000  C
  C11      1.0000 0.96360  0.16900  0.10440  Biso   1.000  C
  C12      1.0000 0.53640  0.83100  0.60440  Biso   1.000  C
  C13      1.0000 0.96360  0.33100  0.10440  Biso   1.000  C
  C14      1.0000 0.53640  0.66900  0.60440  Biso   1.000  C
  C15      1.0000 0.03640  0.83100  0.89560  Biso   1.000  C
  C16      1.0000 0.46360  0.16900  0.39560  Biso   1.000  C
  H13      1.0000 0.00740  0.61330  0.83900  Biso   1.000  H
  H14      1.0000 0.49260  0.38670  0.33900  Biso   1.000  H
  H15      1.0000 0.99260  0.11330  0.16100  Biso   1.000  H
  H16      1.0000 0.50740  0.88670  0.66100  Biso   1.000  H
  H17      1.0000 0.99260  0.38670  0.16100  Biso   1.000  H
  H18      1.0000 0.50740  0.61330  0.66100  Biso   1.000  H
  H19      1.0000 0.00740  0.88670  0.83900  Biso   1.000  H
  H20      1.0000 0.49260  0.11330  0.33900  Biso   1.000  H
