data_image0
_cell_length_a       5.8097
_cell_length_b       11.099
_cell_length_c       18.49
_cell_angle_alpha    90
_cell_angle_beta     94.94
_cell_angle_gamma    90

_symmetry_space_group_name_H-M    "P 1"
_symmetry_int_tables_number       1

loop_
  _symmetry_equiv_pos_as_xyz
  'x, y, z'

loop_
  _atom_site_label
  _atom_site_occupancy
  _atom_site_fract_x
  _atom_site_fract_y
  _atom_site_fract_z
  _atom_site_thermal_displace_type
  _atom_site_B_iso_or_equiv
  _atom_site_type_symbol
  Cu1      1.0000 0.58471  0.45849  0.43135  Biso   1.000  Cu
  Cu2      1.0000 0.58471  0.04151  0.93135  Biso   1.000  Cu
  Cu3      1.0000 0.41529  0.54151  0.56865  Biso   1.000  Cu
  Cu4      1.0000 0.41529  0.95849  0.06865  Biso   1.000  Cu
  S1       1.0000 0.33694  0.62150  0.43753  Biso   1.000  S
  S2       1.0000 0.33694  0.87850  0.93753  Biso   1.000  S
  S3       1.0000 0.66306  0.37850  0.56247  Biso   1.000  S
  S4       1.0000 0.66306  0.12150  0.06247  Biso   1.000  S
  N1       1.0000 0.06470  0.95410  0.30080  Biso   1.000  N
  N2       1.0000 0.06470  0.54590  0.80080  Biso   1.000  N
  N3       1.0000 0.93530  0.04590  0.69920  Biso   1.000  N
  N4       1.0000 0.93530  0.45410  0.19920  Biso   1.000  N
  C1       1.0000 0.89610  0.88020  0.31420  Biso   1.000  C
  C2       1.0000 0.89610  0.61980  0.81420  Biso   1.000  C
  C3       1.0000 0.10390  0.11980  0.68580  Biso   1.000  C
  C4       1.0000 0.10390  0.38020  0.18580  Biso   1.000  C
  H1       1.0000 0.87170  0.81330  0.28430  Biso   1.000  H
  H2       1.0000 0.87170  0.68670  0.78430  Biso   1.000  H
  H3       1.0000 0.12830  0.18670  0.71570  Biso   1.000  H
  H4       1.0000 0.12830  0.31330  0.21570  Biso   1.000  H
  C5       1.0000 0.75180  0.89490  0.36990  Biso   1.000  C
  C6       1.0000 0.75180  0.60510  0.86990  Biso   1.000  C
  C7       1.0000 0.24820  0.10510  0.63010  Biso   1.000  C
  C8       1.0000 0.24820  0.39490  0.13010  Biso   1.000  C
  H5       1.0000 0.63570  0.83950  0.37680  Biso   1.000  H
  H6       1.0000 0.63570  0.66050  0.87680  Biso   1.000  H
  H7       1.0000 0.36430  0.16050  0.62320  Biso   1.000  H
  H8       1.0000 0.36430  0.33950  0.12320  Biso   1.000  H
  C9       1.0000 0.78530  0.99230  0.41380  Biso   1.000  C
  C10      1.0000 0.78530  0.50770  0.91380  Biso   1.000  C
  C11      1.0000 0.21470  0.00770  0.58620  Biso   1.000  C
  C12      1.0000 0.21470  0.49230  0.08620  Biso   1.000  C
  H9       1.0000 0.69090  0.00480  0.45120  Biso   1.000  H
  H10      1.0000 0.69090  0.49520  0.95120  Biso   1.000  H
  H11      1.0000 0.30910  0.99520  0.54880  Biso   1.000  H
  H12      1.0000 0.30910  0.50480  0.04880  Biso   1.000  H
  C13      1.0000 0.01060  0.17830  0.44660  Biso   1.000  C
  C14      1.0000 0.01060  0.32170  0.94660  Biso   1.000  C
  C15      1.0000 0.98940  0.82170  0.55340  Biso   1.000  C
  C16      1.0000 0.98940  0.67830  0.05340  Biso   1.000  C
  H13      1.0000 0.91940  0.19390  0.48440  Biso   1.000  H
  H14      1.0000 0.91940  0.30610  0.98440  Biso   1.000  H
  H15      1.0000 0.08060  0.80610  0.51560  Biso   1.000  H
  H16      1.0000 0.08060  0.69390  0.01560  Biso   1.000  H
  C17      1.0000 0.18320  0.25430  0.43490  Biso   1.000  C
  C18      1.0000 0.18320  0.24570  0.93490  Biso   1.000  C
  C19      1.0000 0.81680  0.74570  0.56510  Biso   1.000  C
  C20      1.0000 0.81680  0.75430  0.06510  Biso   1.000  C
  H17      1.0000 0.21030  0.32090  0.46500  Biso   1.000  H
  H18      1.0000 0.21030  0.17910  0.96500  Biso   1.000  H
  H19      1.0000 0.78970  0.67910  0.53500  Biso   1.000  H
  H20      1.0000 0.78970  0.82090  0.03500  Biso   1.000  H
  N5       1.0000 0.50200  0.31340  0.36730  Biso   1.000  N
  N6       1.0000 0.50200  0.18660  0.86730  Biso   1.000  N
  N7       1.0000 0.49800  0.68660  0.63270  Biso   1.000  N
  N8       1.0000 0.49800  0.81340  0.13270  Biso   1.000  N
  C21      1.0000 0.63000  0.29330  0.31220  Biso   1.000  C
  C22      1.0000 0.63000  0.20670  0.81220  Biso   1.000  C
  C23      1.0000 0.37000  0.70670  0.68780  Biso   1.000  C
  C24      1.0000 0.37000  0.79330  0.18780  Biso   1.000  C
  H21      1.0000 0.75050  0.34630  0.30570  Biso   1.000  H
  H22      1.0000 0.75050  0.15370  0.80570  Biso   1.000  H
  H23      1.0000 0.24950  0.65370  0.69430  Biso   1.000  H
  H24      1.0000 0.24950  0.84630  0.19430  Biso   1.000  H
  C25      1.0000 0.59470  0.19850  0.26400  Biso   1.000  C
  C26      1.0000 0.59470  0.30150  0.76400  Biso   1.000  C
  C27      1.0000 0.40530  0.80150  0.73600  Biso   1.000  C
  C28      1.0000 0.40530  0.69850  0.23600  Biso   1.000  C
  H25      1.0000 0.68820  0.18960  0.22600  Biso   1.000  H
  H26      1.0000 0.68820  0.31040  0.72600  Biso   1.000  H
  H27      1.0000 0.31180  0.81040  0.77400  Biso   1.000  H
  H28      1.0000 0.31180  0.68960  0.27400  Biso   1.000  H
  C29      1.0000 0.42270  0.11850  0.27260  Biso   1.000  C
  C30      1.0000 0.42270  0.38150  0.77260  Biso   1.000  C
  C31      1.0000 0.57730  0.88150  0.72740  Biso   1.000  C
  C32      1.0000 0.57730  0.61850  0.22740  Biso   1.000  C
  H29      1.0000 0.39720  0.05420  0.24060  Biso   1.000  H
  H30      1.0000 0.39720  0.44580  0.74060  Biso   1.000  H
  H31      1.0000 0.60280  0.94580  0.75940  Biso   1.000  H
  H32      1.0000 0.60280  0.55420  0.25940  Biso   1.000  H
  C33      1.0000 0.28290  0.13420  0.33060  Biso   1.000  C
  C34      1.0000 0.28290  0.36580  0.83060  Biso   1.000  C
  C35      1.0000 0.71710  0.86580  0.66940  Biso   1.000  C
  C36      1.0000 0.71710  0.63420  0.16940  Biso   1.000  C
  C37      1.0000 0.09950  0.05170  0.34480  Biso   1.000  C
  C38      1.0000 0.09950  0.44830  0.84480  Biso   1.000  C
  C39      1.0000 0.90050  0.94830  0.65520  Biso   1.000  C
  C40      1.0000 0.90050  0.55170  0.15520  Biso   1.000  C
  C41      1.0000 0.96270  0.07400  0.40260  Biso   1.000  C
  C42      1.0000 0.96270  0.42600  0.90260  Biso   1.000  C
  C43      1.0000 0.03730  0.92600  0.59740  Biso   1.000  C
  C44      1.0000 0.03730  0.57400  0.09740  Biso   1.000  C
  C45      1.0000 0.32660  0.23400  0.37650  Biso   1.000  C
  C46      1.0000 0.32660  0.26600  0.87650  Biso   1.000  C
  C47      1.0000 0.67340  0.76600  0.62350  Biso   1.000  C
  C48      1.0000 0.67340  0.73400  0.12350  Biso   1.000  C
  C49      1.0000 0.06980  0.56760  0.42210  Biso   1.000  C
  C50      1.0000 0.06980  0.93240  0.92210  Biso   1.000  C
  C51      1.0000 0.93020  0.43240  0.57790  Biso   1.000  C
  C52      1.0000 0.93020  0.06760  0.07790  Biso   1.000  C
  N9       1.0000 0.88520  0.53000  0.41233  Biso   1.000  N
  N10      1.0000 0.88520  0.97000  0.91233  Biso   1.000  N
  N11      1.0000 0.11480  0.47000  0.58767  Biso   1.000  N
  N12      1.0000 0.11480  0.03000  0.08767  Biso   1.000  N
