data_image0
_cell_length_a       8.433
_cell_length_b       10.1877
_cell_length_c       11.9411
_cell_angle_alpha    105.365
_cell_angle_beta     102.77
_cell_angle_gamma    110.087

_symmetry_space_group_name_H-M    "P 1"
_symmetry_int_tables_number       1

loop_
  _symmetry_equiv_pos_as_xyz
  'x, y, z'

loop_
  _atom_site_label
  _atom_site_occupancy
  _atom_site_fract_x
  _atom_site_fract_y
  _atom_site_fract_z
  _atom_site_thermal_displace_type
  _atom_site_B_iso_or_equiv
  _atom_site_type_symbol
  Cu1      1.0000 0.21240  0.01793  0.22044  Biso   1.000  Cu
  Cu2      1.0000 0.78760  0.98207  0.77956  Biso   1.000  Cu
  Cu3      1.0000 0.96426  0.48355  0.09204  Biso   1.000  Cu
  Cu4      1.0000 0.03574  0.51645  0.90796  Biso   1.000  Cu
  Cu5      1.0000 0.69021  0.50806  0.50480  Biso   1.000  Cu
  Cu6      1.0000 0.30979  0.49194  0.49520  Biso   1.000  Cu
  N1       1.0000 0.17750  0.47560  0.33400  Biso   1.000  N
  N2       1.0000 0.82250  0.52440  0.66600  Biso   1.000  N
  N3       1.0000 0.09940  0.47930  0.24350  Biso   1.000  N
  N4       1.0000 0.90060  0.52070  0.75650  Biso   1.000  N
  N5       1.0000 0.39570  0.20800  0.31560  Biso   1.000  N
  N6       1.0000 0.60430  0.79200  0.68440  Biso   1.000  N
  N7       1.0000 0.50190  0.32750  0.38440  Biso   1.000  N
  N8       1.0000 0.49810  0.67250  0.61560  Biso   1.000  N
  N9       1.0000 0.12800  0.81670  0.11470  Biso   1.000  N
  N10      1.0000 0.87200  0.18330  0.88530  Biso   1.000  N
  C1       1.0000 0.07340  0.69100  0.06860  Biso   1.000  C
  C2       1.0000 0.92660  0.30900  0.93140  Biso   1.000  C
  N11      1.0000 0.70090  0.43190  0.08330  Biso   1.000  N
  N12      1.0000 0.29910  0.56810  0.91670  Biso   1.000  N
  C3       1.0000 0.55590  0.39170  0.08060  Biso   1.000  C
  C4       1.0000 0.44410  0.60830  0.91940  Biso   1.000  C
  C5       1.0000 0.37020  0.33800  0.07360  Biso   1.000  C
  C6       1.0000 0.62980  0.66200  0.92640  Biso   1.000  C
  H1       1.0000 0.29410  0.30930  0.99030  Biso   1.000  H
  H2       1.0000 0.70590  0.69070  0.00970  Biso   1.000  H
  H3       1.0000 0.35390  0.41660  0.12810  Biso   1.000  H
  H4       1.0000 0.64610  0.58340  0.87190  Biso   1.000  H
  H5       1.0000 0.33920  0.25260  0.09790  Biso   1.000  H
  H6       1.0000 0.66080  0.74740  0.90210  Biso   1.000  H
  N13      1.0000 0.96840  0.01740  0.24620  Biso   1.000  N
  N14      1.0000 0.03160  0.98260  0.75380  Biso   1.000  N
  C7       1.0000 0.90460  0.08860  0.18190  Biso   1.000  C
  C8       1.0000 0.09540  0.91140  0.81810  Biso   1.000  C
  H7       1.0000 0.98460  0.15840  0.16070  Biso   1.000  H
  H8       1.0000 0.01540  0.84160  0.83930  Biso   1.000  H
  C9       1.0000 0.72650  0.06410  0.14510  Biso   1.000  C
  C10      1.0000 0.27350  0.93590  0.85490  Biso   1.000  C
  H9       1.0000 0.68920  0.11870  0.10260  Biso   1.000  H
  H10      1.0000 0.31080  0.88130  0.89740  Biso   1.000  H
  C11      1.0000 0.60610  0.95940  0.17160  Biso   1.000  C
  C12      1.0000 0.39390  0.04060  0.82840  Biso   1.000  C
  H11      1.0000 0.48460  0.93790  0.14390  Biso   1.000  H
  H12      1.0000 0.51540  0.06210  0.85610  Biso   1.000  H
  C13      1.0000 0.55110  0.77470  0.27700  Biso   1.000  C
  C14      1.0000 0.44890  0.22530  0.72300  Biso   1.000  C
  H13      1.0000 0.42900  0.75120  0.25190  Biso   1.000  H
  H14      1.0000 0.57100  0.24880  0.74810  Biso   1.000  H
  C15      1.0000 0.61330  0.70650  0.34450  Biso   1.000  C
  C16      1.0000 0.38670  0.29350  0.65550  Biso   1.000  C
  H15      1.0000 0.53320  0.63380  0.36320  Biso   1.000  H
  H16      1.0000 0.46680  0.36620  0.63680  Biso   1.000  H
  N15      1.0000 0.85700  0.67370  0.46340  Biso   1.000  N
  N16      1.0000 0.14300  0.32630  0.53660  Biso   1.000  N
  C17      1.0000 0.03150  0.70960  0.50560  Biso   1.000  C
  C18      1.0000 0.96850  0.29040  0.49440  Biso   1.000  C
  H17      1.0000 0.07010  0.66100  0.55400  Biso   1.000  H
  H18      1.0000 0.92990  0.33900  0.44600  Biso   1.000  H
  C19      1.0000 0.15990  0.81600  0.48130  Biso   1.000  C
  C20      1.0000 0.84010  0.18400  0.51870  Biso   1.000  C
  H19      1.0000 0.28120  0.83850  0.51400  Biso   1.000  H
  H20      1.0000 0.71880  0.16150  0.48600  Biso   1.000  H
  C21      1.0000 0.10570  0.88720  0.40860  Biso   1.000  C
  C22      1.0000 0.89430  0.11280  0.59140  Biso   1.000  C
  H21      1.0000 0.19040  0.96050  0.39320  Biso   1.000  H
  H22      1.0000 0.80960  0.03950  0.60680  Biso   1.000  H
  C23      1.0000 0.92190  0.84920  0.35750  Biso   1.000  C
  C24      1.0000 0.07810  0.15080  0.64250  Biso   1.000  C
  C25      1.0000 0.85320  0.91850  0.27950  Biso   1.000  C
  C26      1.0000 0.14680  0.08150  0.72050  Biso   1.000  C
  C27      1.0000 0.66800  0.88330  0.24210  Biso   1.000  C
  C28      1.0000 0.33200  0.11670  0.75790  Biso   1.000  C
  C29      1.0000 0.80060  0.74270  0.38880  Biso   1.000  C
  C30      1.0000 0.19940  0.25730  0.61120  Biso   1.000  C
