data_image0
_cell_length_a       4.245
_cell_length_b       12.009
_cell_length_c       25.575
_cell_angle_alpha    90
_cell_angle_beta     90
_cell_angle_gamma    90

_symmetry_space_group_name_H-M    "P 1"
_symmetry_int_tables_number       1

loop_
  _symmetry_equiv_pos_as_xyz
  'x, y, z'

loop_
  _atom_site_label
  _atom_site_occupancy
  _atom_site_fract_x
  _atom_site_fract_y
  _atom_site_fract_z
  _atom_site_thermal_displace_type
  _atom_site_B_iso_or_equiv
  _atom_site_type_symbol
  I1       1.0000 0.11450  0.27937  0.86246  Biso   1.000  I
  I2       1.0000 0.38550  0.72063  0.36246  Biso   1.000  I
  I3       1.0000 0.88550  0.77937  0.63754  Biso   1.000  I
  I4       1.0000 0.61450  0.22063  0.13754  Biso   1.000  I
  I5       1.0000 0.72107  0.41041  0.99706  Biso   1.000  I
  I6       1.0000 0.77893  0.58959  0.49706  Biso   1.000  I
  I7       1.0000 0.27893  0.91041  0.50294  Biso   1.000  I
  I8       1.0000 0.22107  0.08959  0.00294  Biso   1.000  I
  Cu1      1.0000 0.61490  0.39886  0.89208  Biso   1.000  Cu
  Cu2      1.0000 0.88510  0.60114  0.39208  Biso   1.000  Cu
  Cu3      1.0000 0.38510  0.89886  0.60792  Biso   1.000  Cu
  Cu4      1.0000 0.11490  0.10114  0.10792  Biso   1.000  Cu
  Cu5      1.0000 0.23020  0.29288  0.96288  Biso   1.000  Cu
  Cu6      1.0000 0.26980  0.70712  0.46288  Biso   1.000  Cu
  Cu7      1.0000 0.76980  0.79288  0.53712  Biso   1.000  Cu
  Cu8      1.0000 0.73020  0.20712  0.03712  Biso   1.000  Cu
  C1       1.0000 0.23600  0.62980  0.91640  Biso   1.000  C
  C2       1.0000 0.26400  0.37020  0.41640  Biso   1.000  C
  C3       1.0000 0.76400  0.12980  0.58360  Biso   1.000  C
  C4       1.0000 0.73600  0.87020  0.08360  Biso   1.000  C
  H1       1.0000 0.27350  0.57050  0.93900  Biso   1.000  H
  H2       1.0000 0.22650  0.42950  0.43900  Biso   1.000  H
  H3       1.0000 0.72650  0.07050  0.56100  Biso   1.000  H
  H4       1.0000 0.77350  0.92950  0.06100  Biso   1.000  H
  N1       1.0000 0.55900  0.54280  0.85180  Biso   1.000  N
  N2       1.0000 0.94100  0.45720  0.35180  Biso   1.000  N
  N3       1.0000 0.44100  0.04280  0.64820  Biso   1.000  N
  N4       1.0000 0.05900  0.95720  0.14820  Biso   1.000  N
  C5       1.0000 0.30200  0.71930  0.83000  Biso   1.000  C
  C6       1.0000 0.19800  0.28070  0.33000  Biso   1.000  C
  C7       1.0000 0.69800  0.21930  0.67000  Biso   1.000  C
  C8       1.0000 0.80200  0.78070  0.17000  Biso   1.000  C
  C9       1.0000 0.37000  0.62840  0.86470  Biso   1.000  C
  C10      1.0000 0.13000  0.37160  0.36470  Biso   1.000  C
  C11      1.0000 0.63000  0.12840  0.63530  Biso   1.000  C
  C12      1.0000 0.87000  0.87160  0.13530  Biso   1.000  C
  C13      1.0000 0.68000  0.54280  0.80320  Biso   1.000  C
  C14      1.0000 0.82000  0.45720  0.30320  Biso   1.000  C
  C15      1.0000 0.32000  0.04280  0.69680  Biso   1.000  C
  C16      1.0000 0.18000  0.95720  0.19680  Biso   1.000  C
  H5       1.0000 0.81440  0.48470  0.79400  Biso   1.000  H
  H6       1.0000 0.68560  0.51530  0.29400  Biso   1.000  H
  H7       1.0000 0.18560  0.98470  0.70600  Biso   1.000  H
  H8       1.0000 0.31440  0.01530  0.20600  Biso   1.000  H
  C17      1.0000 0.05900  0.71510  0.93250  Biso   1.000  C
  C18      1.0000 0.44100  0.28490  0.43250  Biso   1.000  C
  C19      1.0000 0.94100  0.21510  0.56750  Biso   1.000  C
  C20      1.0000 0.55900  0.78490  0.06750  Biso   1.000  C
  H9       1.0000 0.98560  0.71670  0.96680  Biso   1.000  H
  H10      1.0000 0.51440  0.28330  0.46680  Biso   1.000  H
  H11      1.0000 0.01440  0.21670  0.53320  Biso   1.000  H
  H12      1.0000 0.48560  0.78330  0.03320  Biso   1.000  H
  C21      1.0000 0.97900  0.80590  0.89680  Biso   1.000  C
  C22      1.0000 0.52100  0.19410  0.39680  Biso   1.000  C
  C23      1.0000 0.02100  0.30590  0.60320  Biso   1.000  C
  C24      1.0000 0.47900  0.69410  0.10320  Biso   1.000  C
  N5       1.0000 0.03400  0.89110  0.81170  Biso   1.000  N
  N6       1.0000 0.46600  0.10890  0.31170  Biso   1.000  N
  N7       1.0000 0.96600  0.39110  0.68830  Biso   1.000  N
  N8       1.0000 0.53400  0.60890  0.18830  Biso   1.000  N
  C25      1.0000 0.43700  0.71280  0.77930  Biso   1.000  C
  C26      1.0000 0.06300  0.28720  0.27930  Biso   1.000  C
  C27      1.0000 0.56300  0.21280  0.72070  Biso   1.000  C
  C28      1.0000 0.93700  0.78720  0.22070  Biso   1.000  C
  H13      1.0000 0.39900  0.77000  0.75560  Biso   1.000  H
  H14      1.0000 0.10100  0.23000  0.25560  Biso   1.000  H
  H15      1.0000 0.60100  0.27000  0.74440  Biso   1.000  H
  H16      1.0000 0.89900  0.73000  0.24440  Biso   1.000  H
  C29      1.0000 0.61600  0.62680  0.76460  Biso   1.000  C
  C30      1.0000 0.88400  0.37320  0.26460  Biso   1.000  C
  C31      1.0000 0.38400  0.12680  0.73540  Biso   1.000  C
  C32      1.0000 0.11600  0.87320  0.23540  Biso   1.000  C
  H17      1.0000 0.69590  0.62160  0.73080  Biso   1.000  H
  H18      1.0000 0.80410  0.37840  0.23080  Biso   1.000  H
  H19      1.0000 0.30410  0.12160  0.76920  Biso   1.000  H
  H20      1.0000 0.19590  0.87840  0.26920  Biso   1.000  H
  C33      1.0000 0.09400  0.80750  0.84620  Biso   1.000  C
  C34      1.0000 0.40600  0.19250  0.34620  Biso   1.000  C
  C35      1.0000 0.90600  0.30750  0.65380  Biso   1.000  C
  C36      1.0000 0.59400  0.69250  0.15380  Biso   1.000  C
  C37      1.0000 0.85300  0.96990  0.82860  Biso   1.000  C
  C38      1.0000 0.64700  0.03010  0.32860  Biso   1.000  C
  C39      1.0000 0.14700  0.46990  0.67140  Biso   1.000  C
  C40      1.0000 0.35300  0.53010  0.17140  Biso   1.000  C
  H21      1.0000 0.81180  0.02790  0.80550  Biso   1.000  H
  H22      1.0000 0.68820  0.97210  0.30550  Biso   1.000  H
  H23      1.0000 0.18820  0.52790  0.69450  Biso   1.000  H
  H24      1.0000 0.31180  0.47210  0.19450  Biso   1.000  H
  C41      1.0000 0.78100  0.89340  0.91260  Biso   1.000  C
  C42      1.0000 0.71900  0.10660  0.41260  Biso   1.000  C
  C43      1.0000 0.21900  0.39340  0.58740  Biso   1.000  C
  C44      1.0000 0.28100  0.60660  0.08740  Biso   1.000  C
  H25      1.0000 0.69770  0.89460  0.94620  Biso   1.000  H
  H26      1.0000 0.80230  0.10540  0.44620  Biso   1.000  H
  H27      1.0000 0.30230  0.39460  0.55380  Biso   1.000  H
  H28      1.0000 0.19770  0.60540  0.05380  Biso   1.000  H
  C45      1.0000 0.71100  0.97690  0.87800  Biso   1.000  C
  C46      1.0000 0.78900  0.02310  0.37800  Biso   1.000  C
  C47      1.0000 0.28900  0.47690  0.62200  Biso   1.000  C
  C48      1.0000 0.21100  0.52310  0.12200  Biso   1.000  C
  H29      1.0000 0.57740  0.03530  0.88680  Biso   1.000  H
  H30      1.0000 0.92260  0.96470  0.38680  Biso   1.000  H
  H31      1.0000 0.42260  0.53530  0.61320  Biso   1.000  H
  H32      1.0000 0.07740  0.46470  0.11320  Biso   1.000  H
