data_image0
_cell_length_a       3.932
_cell_length_b       10.214
_cell_length_c       13.982
_cell_angle_alpha    104.695
_cell_angle_beta     93.5
_cell_angle_gamma    95.98

_symmetry_space_group_name_H-M    "P 1"
_symmetry_int_tables_number       1

loop_
  _symmetry_equiv_pos_as_xyz
  'x, y, z'

loop_
  _atom_site_label
  _atom_site_occupancy
  _atom_site_fract_x
  _atom_site_fract_y
  _atom_site_fract_z
  _atom_site_thermal_displace_type
  _atom_site_B_iso_or_equiv
  _atom_site_type_symbol
  Br1      1.0000 0.71810  0.12108  0.42808  Biso   1.000  Br
  Br2      1.0000 0.28190  0.87892  0.57192  Biso   1.000  Br
  Cu1      1.0000 0.24940  0.12108  0.53750  Biso   1.000  Cu
  Cu2      1.0000 0.75060  0.87892  0.46250  Biso   1.000  Cu
  N1       1.0000 0.45790  0.67940  0.92040  Biso   1.000  N
  N2       1.0000 0.54210  0.32060  0.07960  Biso   1.000  N
  C1       1.0000 0.59200  0.80950  0.94320  Biso   1.000  C
  C2       1.0000 0.40800  0.19050  0.05680  Biso   1.000  C
  H1       1.0000 0.57650  0.86170  0.00740  Biso   1.000  H
  H2       1.0000 0.42350  0.13830  0.99260  Biso   1.000  H
  C3       1.0000 0.75200  0.87360  0.87900  Biso   1.000  C
  C4       1.0000 0.24800  0.12640  0.12100  Biso   1.000  C
  H3       1.0000 0.83830  0.96560  0.89980  Biso   1.000  H
  H4       1.0000 0.16170  0.03440  0.10020  Biso   1.000  H
  C5       1.0000 0.78000  0.79880  0.78420  Biso   1.000  C
  C6       1.0000 0.22000  0.20120  0.21580  Biso   1.000  C
  H5       1.0000 0.88900  0.83860  0.73940  Biso   1.000  H
  H6       1.0000 0.11100  0.16140  0.26060  Biso   1.000  H
  C7       1.0000 0.65700  0.57320  0.65840  Biso   1.000  C
  C8       1.0000 0.34300  0.42680  0.34160  Biso   1.000  C
  H7       1.0000 0.76040  0.60980  0.61120  Biso   1.000  H
  H8       1.0000 0.23960  0.39020  0.38880  Biso   1.000  H
  C9       1.0000 0.52700  0.43920  0.63290  Biso   1.000  C
  C10      1.0000 0.47300  0.56080  0.36710  Biso   1.000  C
  H9       1.0000 0.54630  0.38520  0.56950  Biso   1.000  H
  H10      1.0000 0.45370  0.61480  0.43050  Biso   1.000  H
  N3       1.0000 0.22370  0.24390  0.67390  Biso   1.000  N
  N4       1.0000 0.77630  0.75610  0.32610  Biso   1.000  N
  C11      1.0000 0.06100  0.19170  0.73930  Biso   1.000  C
  C12      1.0000 0.93900  0.80830  0.26070  Biso   1.000  C
  H11      1.0000 0.96590  0.10070  0.71930  Biso   1.000  H
  H12      1.0000 0.03410  0.89930  0.28070  Biso   1.000  H
  C13      1.0000 0.02700  0.26460  0.83460  Biso   1.000  C
  C14      1.0000 0.97300  0.73540  0.16540  Biso   1.000  C
  H13      1.0000 0.91080  0.22340  0.87740  Biso   1.000  H
  H14      1.0000 0.08920  0.77660  0.12260  Biso   1.000  H
  C15      1.0000 0.16700  0.40010  0.86610  Biso   1.000  C
  C16      1.0000 0.83300  0.59990  0.13390  Biso   1.000  C
  H15      1.0000 0.14970  0.45000  0.93080  Biso   1.000  H
  H16      1.0000 0.85030  0.55000  0.06920  Biso   1.000  H
  C17      1.0000 0.33470  0.46200  0.80010  Biso   1.000  C
  C18      1.0000 0.66530  0.53800  0.19990  Biso   1.000  C
  C19      1.0000 0.48300  0.60390  0.82670  Biso   1.000  C
  C20      1.0000 0.51700  0.39610  0.17330  Biso   1.000  C
  C21      1.0000 0.64120  0.65970  0.75570  Biso   1.000  C
  C22      1.0000 0.35880  0.34030  0.24430  Biso   1.000  C
  C23      1.0000 0.35860  0.38030  0.70350  Biso   1.000  C
  C24      1.0000 0.64140  0.61970  0.29650  Biso   1.000  C
