data_image0
_cell_length_a       8.9207
_cell_length_b       17.396
_cell_length_c       14.186
_cell_angle_alpha    90
_cell_angle_beta     90
_cell_angle_gamma    90

_symmetry_space_group_name_H-M    "P 1"
_symmetry_int_tables_number       1

loop_
  _symmetry_equiv_pos_as_xyz
  'x, y, z'

loop_
  _atom_site_label
  _atom_site_occupancy
  _atom_site_fract_x
  _atom_site_fract_y
  _atom_site_fract_z
  _atom_site_thermal_displace_type
  _atom_site_B_iso_or_equiv
  _atom_site_type_symbol
  I1       1.0000 0.25848  0.75000  0.25000  Biso   1.000  I
  I2       1.0000 0.75848  0.25000  0.25000  Biso   1.000  I
  I3       1.0000 0.75848  0.75000  0.75000  Biso   1.000  I
  I4       1.0000 0.25848  0.25000  0.75000  Biso   1.000  I
  I5       1.0000 0.24152  0.75000  0.75000  Biso   1.000  I
  I6       1.0000 0.74152  0.25000  0.75000  Biso   1.000  I
  I7       1.0000 0.24152  0.25000  0.25000  Biso   1.000  I
  I8       1.0000 0.74152  0.75000  0.25000  Biso   1.000  I
  Cu1      1.0000 0.00000  0.82547  0.25000  Biso   1.000  Cu
  Cu2      1.0000 0.50000  0.32547  0.25000  Biso   1.000  Cu
  Cu3      1.0000 0.50000  0.82547  0.75000  Biso   1.000  Cu
  Cu4      1.0000 0.00000  0.17453  0.75000  Biso   1.000  Cu
  Cu5      1.0000 0.00000  0.32547  0.75000  Biso   1.000  Cu
  Cu6      1.0000 0.50000  0.67453  0.75000  Biso   1.000  Cu
  Cu7      1.0000 0.50000  0.17453  0.25000  Biso   1.000  Cu
  Cu8      1.0000 0.00000  0.67453  0.25000  Biso   1.000  Cu
  C1       1.0000 0.01470  0.85380  0.04210  Biso   1.000  C
  C2       1.0000 0.51470  0.35380  0.04210  Biso   1.000  C
  C3       1.0000 0.51470  0.85380  0.95790  Biso   1.000  C
  C4       1.0000 0.01470  0.14620  0.54210  Biso   1.000  C
  C5       1.0000 0.48530  0.85380  0.54210  Biso   1.000  C
  C6       1.0000 0.01470  0.35380  0.95790  Biso   1.000  C
  C7       1.0000 0.51470  0.64620  0.54210  Biso   1.000  C
  C8       1.0000 0.98530  0.35380  0.54210  Biso   1.000  C
  C9       1.0000 0.98530  0.14620  0.95790  Biso   1.000  C
  C10      1.0000 0.48530  0.64620  0.95790  Biso   1.000  C
  C11      1.0000 0.48530  0.14620  0.04210  Biso   1.000  C
  C12      1.0000 0.98530  0.85380  0.45790  Biso   1.000  C
  C13      1.0000 0.51470  0.14620  0.45790  Biso   1.000  C
  C14      1.0000 0.98530  0.64620  0.04210  Biso   1.000  C
  C15      1.0000 0.48530  0.35380  0.45790  Biso   1.000  C
  C16      1.0000 0.01470  0.64620  0.45790  Biso   1.000  C
  H1       1.0000 0.08730  0.81550  0.04600  Biso   1.000  H
  H2       1.0000 0.58730  0.31550  0.04600  Biso   1.000  H
  H3       1.0000 0.58730  0.81550  0.95400  Biso   1.000  H
  H4       1.0000 0.08730  0.18450  0.54600  Biso   1.000  H
  H5       1.0000 0.41270  0.81550  0.54600  Biso   1.000  H
  H6       1.0000 0.08730  0.31550  0.95400  Biso   1.000  H
  H7       1.0000 0.58730  0.68450  0.54600  Biso   1.000  H
  H8       1.0000 0.91270  0.31550  0.54600  Biso   1.000  H
  H9       1.0000 0.91270  0.18450  0.95400  Biso   1.000  H
  H10      1.0000 0.41270  0.68450  0.95400  Biso   1.000  H
  H11      1.0000 0.41270  0.18450  0.04600  Biso   1.000  H
  H12      1.0000 0.91270  0.81550  0.45400  Biso   1.000  H
  H13      1.0000 0.58730  0.18450  0.45400  Biso   1.000  H
  H14      1.0000 0.91270  0.68450  0.04600  Biso   1.000  H
  H15      1.0000 0.41270  0.31550  0.45400  Biso   1.000  H
  H16      1.0000 0.08730  0.68450  0.45400  Biso   1.000  H
  N1       1.0000 0.96380  0.88440  0.12120  Biso   1.000  N
  N2       1.0000 0.46380  0.38440  0.12120  Biso   1.000  N
  N3       1.0000 0.46380  0.88440  0.87880  Biso   1.000  N
  N4       1.0000 0.96380  0.11560  0.62120  Biso   1.000  N
  N5       1.0000 0.53620  0.88440  0.62120  Biso   1.000  N
  N6       1.0000 0.96380  0.38440  0.87880  Biso   1.000  N
  N7       1.0000 0.46380  0.61560  0.62120  Biso   1.000  N
  N8       1.0000 0.03620  0.38440  0.62120  Biso   1.000  N
  N9       1.0000 0.03620  0.11560  0.87880  Biso   1.000  N
  N10      1.0000 0.53620  0.61560  0.87880  Biso   1.000  N
  N11      1.0000 0.53620  0.11560  0.12120  Biso   1.000  N
  N12      1.0000 0.03620  0.88440  0.37880  Biso   1.000  N
  N13      1.0000 0.46380  0.11560  0.37880  Biso   1.000  N
  N14      1.0000 0.03620  0.61560  0.12120  Biso   1.000  N
  N15      1.0000 0.53620  0.38440  0.37880  Biso   1.000  N
  N16      1.0000 0.96380  0.61560  0.37880  Biso   1.000  N
  C17      1.0000 0.96480  0.87610  0.95340  Biso   1.000  C
  C18      1.0000 0.46480  0.37610  0.95340  Biso   1.000  C
  C19      1.0000 0.46480  0.87610  0.04660  Biso   1.000  C
  C20      1.0000 0.96480  0.12390  0.45340  Biso   1.000  C
  C21      1.0000 0.53520  0.87610  0.45340  Biso   1.000  C
  C22      1.0000 0.96480  0.37610  0.04660  Biso   1.000  C
  C23      1.0000 0.46480  0.62390  0.45340  Biso   1.000  C
  C24      1.0000 0.03520  0.37610  0.45340  Biso   1.000  C
  C25      1.0000 0.03520  0.12390  0.04660  Biso   1.000  C
  C26      1.0000 0.53520  0.62390  0.04660  Biso   1.000  C
  C27      1.0000 0.53520  0.12390  0.95340  Biso   1.000  C
  C28      1.0000 0.03520  0.87610  0.54660  Biso   1.000  C
  C29      1.0000 0.46480  0.12390  0.54660  Biso   1.000  C
  C30      1.0000 0.03520  0.62390  0.95340  Biso   1.000  C
  C31      1.0000 0.53520  0.37610  0.54660  Biso   1.000  C
  C32      1.0000 0.96480  0.62390  0.54660  Biso   1.000  C
  H17      1.0000 0.00180  0.85240  0.89940  Biso   1.000  H
  H18      1.0000 0.50180  0.35240  0.89940  Biso   1.000  H
  H19      1.0000 0.50180  0.85240  0.10060  Biso   1.000  H
  H20      1.0000 0.00180  0.14760  0.39940  Biso   1.000  H
  H21      1.0000 0.49820  0.85240  0.39940  Biso   1.000  H
  H22      1.0000 0.00180  0.35240  0.10060  Biso   1.000  H
  H23      1.0000 0.50180  0.64760  0.39940  Biso   1.000  H
  H24      1.0000 0.99820  0.35240  0.39940  Biso   1.000  H
  H25      1.0000 0.99820  0.14760  0.10060  Biso   1.000  H
  H26      1.0000 0.49820  0.64760  0.10060  Biso   1.000  H
  H27      1.0000 0.49820  0.14760  0.89940  Biso   1.000  H
  H28      1.0000 0.99820  0.85240  0.60060  Biso   1.000  H
  H29      1.0000 0.50180  0.14760  0.60060  Biso   1.000  H
  H30      1.0000 0.99820  0.64760  0.89940  Biso   1.000  H
  H31      1.0000 0.49820  0.35240  0.60060  Biso   1.000  H
  H32      1.0000 0.00180  0.64760  0.60060  Biso   1.000  H
  C33      1.0000 0.80550  0.96890  0.02890  Biso   1.000  C
  C34      1.0000 0.30550  0.46890  0.02890  Biso   1.000  C
  C35      1.0000 0.30550  0.96890  0.97110  Biso   1.000  C
  C36      1.0000 0.80550  0.03110  0.52890  Biso   1.000  C
  C37      1.0000 0.69450  0.96890  0.52890  Biso   1.000  C
  C38      1.0000 0.80550  0.46890  0.97110  Biso   1.000  C
  C39      1.0000 0.30550  0.53110  0.52890  Biso   1.000  C
  C40      1.0000 0.19450  0.46890  0.52890  Biso   1.000  C
  C41      1.0000 0.19450  0.03110  0.97110  Biso   1.000  C
  C42      1.0000 0.69450  0.53110  0.97110  Biso   1.000  C
  C43      1.0000 0.69450  0.03110  0.02890  Biso   1.000  C
  C44      1.0000 0.19450  0.96890  0.47110  Biso   1.000  C
  C45      1.0000 0.30550  0.03110  0.47110  Biso   1.000  C
  C46      1.0000 0.19450  0.53110  0.02890  Biso   1.000  C
  C47      1.0000 0.69450  0.46890  0.47110  Biso   1.000  C
  C48      1.0000 0.80550  0.53110  0.47110  Biso   1.000  C
  C49      1.0000 0.64200  0.05930  0.11560  Biso   1.000  C
  C50      1.0000 0.14200  0.55930  0.11560  Biso   1.000  C
  C51      1.0000 0.14200  0.05930  0.88440  Biso   1.000  C
  C52      1.0000 0.64200  0.94070  0.61560  Biso   1.000  C
  C53      1.0000 0.85800  0.05930  0.61560  Biso   1.000  C
  C54      1.0000 0.64200  0.55930  0.88440  Biso   1.000  C
  C55      1.0000 0.14200  0.44070  0.61560  Biso   1.000  C
  C56      1.0000 0.35800  0.55930  0.61560  Biso   1.000  C
  C57      1.0000 0.35800  0.94070  0.88440  Biso   1.000  C
  C58      1.0000 0.85800  0.44070  0.88440  Biso   1.000  C
  C59      1.0000 0.85800  0.94070  0.11560  Biso   1.000  C
  C60      1.0000 0.35800  0.05930  0.38440  Biso   1.000  C
  C61      1.0000 0.14200  0.94070  0.38440  Biso   1.000  C
  C62      1.0000 0.35800  0.44070  0.11560  Biso   1.000  C
  C63      1.0000 0.85800  0.55930  0.38440  Biso   1.000  C
  C64      1.0000 0.64200  0.44070  0.38440  Biso   1.000  C
  C65      1.0000 0.86030  0.93360  0.94670  Biso   1.000  C
  C66      1.0000 0.36030  0.43360  0.94670  Biso   1.000  C
  C67      1.0000 0.36030  0.93360  0.05330  Biso   1.000  C
  C68      1.0000 0.86030  0.06640  0.44670  Biso   1.000  C
  C69      1.0000 0.63970  0.93360  0.44670  Biso   1.000  C
  C70      1.0000 0.86030  0.43360  0.05330  Biso   1.000  C
  C71      1.0000 0.36030  0.56640  0.44670  Biso   1.000  C
  C72      1.0000 0.13970  0.43360  0.44670  Biso   1.000  C
  C73      1.0000 0.13970  0.06640  0.05330  Biso   1.000  C
  C74      1.0000 0.63970  0.56640  0.05330  Biso   1.000  C
  C75      1.0000 0.63970  0.06640  0.94670  Biso   1.000  C
  C76      1.0000 0.13970  0.93360  0.55330  Biso   1.000  C
  C77      1.0000 0.36030  0.06640  0.55330  Biso   1.000  C
  C78      1.0000 0.13970  0.56640  0.94670  Biso   1.000  C
  C79      1.0000 0.63970  0.43360  0.55330  Biso   1.000  C
  C80      1.0000 0.86030  0.56640  0.55330  Biso   1.000  C
  H33      1.0000 0.67430  0.05080  0.88790  Biso   1.000  H
  H34      1.0000 0.17430  0.55080  0.88790  Biso   1.000  H
  H35      1.0000 0.17430  0.05080  0.11210  Biso   1.000  H
  H36      1.0000 0.67430  0.94920  0.38790  Biso   1.000  H
  H37      1.0000 0.82570  0.05080  0.38790  Biso   1.000  H
  H38      1.0000 0.67430  0.55080  0.11210  Biso   1.000  H
  H39      1.0000 0.17430  0.44920  0.38790  Biso   1.000  H
  H40      1.0000 0.32570  0.55080  0.38790  Biso   1.000  H
  H41      1.0000 0.32570  0.94920  0.11210  Biso   1.000  H
  H42      1.0000 0.82570  0.44920  0.11210  Biso   1.000  H
  H43      1.0000 0.82570  0.94920  0.88790  Biso   1.000  H
  H44      1.0000 0.32570  0.05080  0.61210  Biso   1.000  H
  H45      1.0000 0.17430  0.94920  0.61210  Biso   1.000  H
  H46      1.0000 0.32570  0.44920  0.88790  Biso   1.000  H
  H47      1.0000 0.82570  0.55080  0.61210  Biso   1.000  H
  H48      1.0000 0.67430  0.44920  0.61210  Biso   1.000  H
  C81      1.0000 0.69850  0.02760  0.20090  Biso   1.000  C
  C82      1.0000 0.19850  0.52760  0.20090  Biso   1.000  C
  C83      1.0000 0.19850  0.02760  0.79910  Biso   1.000  C
  C84      1.0000 0.69850  0.97240  0.70090  Biso   1.000  C
  C85      1.0000 0.80150  0.02760  0.70090  Biso   1.000  C
  C86      1.0000 0.69850  0.52760  0.79910  Biso   1.000  C
  C87      1.0000 0.19850  0.47240  0.70090  Biso   1.000  C
  C88      1.0000 0.30150  0.52760  0.70090  Biso   1.000  C
  C89      1.0000 0.30150  0.97240  0.79910  Biso   1.000  C
  C90      1.0000 0.80150  0.47240  0.79910  Biso   1.000  C
  C91      1.0000 0.80150  0.97240  0.20090  Biso   1.000  C
  C92      1.0000 0.30150  0.02760  0.29910  Biso   1.000  C
  C93      1.0000 0.19850  0.97240  0.29910  Biso   1.000  C
  C94      1.0000 0.30150  0.47240  0.20090  Biso   1.000  C
  C95      1.0000 0.80150  0.52760  0.29910  Biso   1.000  C
  C96      1.0000 0.69850  0.47240  0.29910  Biso   1.000  C
  H49      1.0000 0.83760  0.95400  0.25810  Biso   1.000  H
  H50      1.0000 0.33760  0.45400  0.25810  Biso   1.000  H
  H51      1.0000 0.33760  0.95400  0.74190  Biso   1.000  H
  H52      1.0000 0.83760  0.04600  0.75810  Biso   1.000  H
  H53      1.0000 0.66240  0.95400  0.75810  Biso   1.000  H
  H54      1.0000 0.83760  0.45400  0.74190  Biso   1.000  H
  H55      1.0000 0.33760  0.54600  0.75810  Biso   1.000  H
  H56      1.0000 0.16240  0.45400  0.75810  Biso   1.000  H
  H57      1.0000 0.16240  0.04600  0.74190  Biso   1.000  H
  H58      1.0000 0.66240  0.54600  0.74190  Biso   1.000  H
  H59      1.0000 0.66240  0.04600  0.25810  Biso   1.000  H
  H60      1.0000 0.16240  0.95400  0.24190  Biso   1.000  H
  H61      1.0000 0.33760  0.04600  0.24190  Biso   1.000  H
  H62      1.0000 0.16240  0.54600  0.25810  Biso   1.000  H
  H63      1.0000 0.66240  0.45400  0.24190  Biso   1.000  H
  H64      1.0000 0.83760  0.54600  0.24190  Biso   1.000  H
