data_image0
_cell_length_a       15.034
_cell_length_b       9.25
_cell_length_c       15.988
_cell_angle_alpha    90
_cell_angle_beta     90
_cell_angle_gamma    90

_symmetry_space_group_name_H-M    "P 1"
_symmetry_int_tables_number       1

loop_
  _symmetry_equiv_pos_as_xyz
  'x, y, z'

loop_
  _atom_site_label
  _atom_site_occupancy
  _atom_site_fract_x
  _atom_site_fract_y
  _atom_site_fract_z
  _atom_site_thermal_displace_type
  _atom_site_B_iso_or_equiv
  _atom_site_type_symbol
  Cu1      1.0000 0.69374  0.64064  0.83675  Biso   1.000  Cu
  Cu2      1.0000 0.19374  0.64064  0.66325  Biso   1.000  Cu
  Cu3      1.0000 0.69374  0.85936  0.33675  Biso   1.000  Cu
  Cu4      1.0000 0.80626  0.14064  0.83675  Biso   1.000  Cu
  Cu5      1.0000 0.30626  0.35936  0.16325  Biso   1.000  Cu
  Cu6      1.0000 0.80626  0.35936  0.33675  Biso   1.000  Cu
  Cu7      1.0000 0.30626  0.14064  0.66325  Biso   1.000  Cu
  Cu8      1.0000 0.19374  0.85936  0.16325  Biso   1.000  Cu
  N1       1.0000 0.75970  0.81820  0.84520  Biso   1.000  N
  N2       1.0000 0.25970  0.81820  0.65480  Biso   1.000  N
  N3       1.0000 0.75970  0.68180  0.34520  Biso   1.000  N
  N4       1.0000 0.74030  0.31820  0.84520  Biso   1.000  N
  N5       1.0000 0.24030  0.18180  0.15480  Biso   1.000  N
  N6       1.0000 0.74030  0.18180  0.34520  Biso   1.000  N
  N7       1.0000 0.24030  0.31820  0.65480  Biso   1.000  N
  N8       1.0000 0.25970  0.68180  0.15480  Biso   1.000  N
  N9       1.0000 0.21640  0.43730  0.65130  Biso   1.000  N
  N10      1.0000 0.71640  0.43730  0.84870  Biso   1.000  N
  N11      1.0000 0.21640  0.06270  0.15130  Biso   1.000  N
  N12      1.0000 0.28360  0.93730  0.65130  Biso   1.000  N
  N13      1.0000 0.78360  0.56270  0.34870  Biso   1.000  N
  N14      1.0000 0.28360  0.56270  0.15130  Biso   1.000  N
  N15      1.0000 0.78360  0.93730  0.84870  Biso   1.000  N
  N16      1.0000 0.71640  0.06270  0.34870  Biso   1.000  N
  C1       1.0000 0.55430  0.29710  0.47630  Biso   1.000  C
  C2       1.0000 0.05430  0.29710  0.02370  Biso   1.000  C
  C3       1.0000 0.55430  0.20290  0.97630  Biso   1.000  C
  C4       1.0000 0.94570  0.79710  0.47630  Biso   1.000  C
  C5       1.0000 0.44570  0.70290  0.52370  Biso   1.000  C
  C6       1.0000 0.94570  0.70290  0.97630  Biso   1.000  C
  C7       1.0000 0.44570  0.79710  0.02370  Biso   1.000  C
  C8       1.0000 0.05430  0.20290  0.52370  Biso   1.000  C
  H1       1.0000 0.59690  0.32710  0.43780  Biso   1.000  H
  H2       1.0000 0.09690  0.32710  0.06220  Biso   1.000  H
  H3       1.0000 0.59690  0.17290  0.93780  Biso   1.000  H
  H4       1.0000 0.90310  0.82710  0.43780  Biso   1.000  H
  H5       1.0000 0.40310  0.67290  0.56220  Biso   1.000  H
  H6       1.0000 0.90310  0.67290  0.93780  Biso   1.000  H
  H7       1.0000 0.40310  0.82710  0.06220  Biso   1.000  H
  H8       1.0000 0.09690  0.17290  0.56220  Biso   1.000  H
  C9       1.0000 0.49420  0.19270  0.45600  Biso   1.000  C
  C10      1.0000 0.99420  0.19270  0.04400  Biso   1.000  C
  C11      1.0000 0.49420  0.30730  0.95600  Biso   1.000  C
  C12      1.0000 0.00580  0.69270  0.45600  Biso   1.000  C
  C13      1.0000 0.50580  0.80730  0.54400  Biso   1.000  C
  C14      1.0000 0.00580  0.80730  0.95600  Biso   1.000  C
  C15      1.0000 0.50580  0.69270  0.04400  Biso   1.000  C
  C16      1.0000 0.99420  0.30730  0.54400  Biso   1.000  C
  H9       1.0000 0.49500  0.15150  0.40300  Biso   1.000  H
  H10      1.0000 0.99500  0.15150  0.09700  Biso   1.000  H
  H11      1.0000 0.49500  0.34850  0.90300  Biso   1.000  H
  H12      1.0000 0.00500  0.65150  0.40300  Biso   1.000  H
  H13      1.0000 0.50500  0.84850  0.59700  Biso   1.000  H
  H14      1.0000 0.00500  0.84850  0.90300  Biso   1.000  H
  H15      1.0000 0.50500  0.65150  0.09700  Biso   1.000  H
  H16      1.0000 0.99500  0.34850  0.59700  Biso   1.000  H
  C17      1.0000 0.43120  0.14750  0.51460  Biso   1.000  C
  C18      1.0000 0.93120  0.14750  0.98540  Biso   1.000  C
  C19      1.0000 0.43120  0.35250  0.01460  Biso   1.000  C
  C20      1.0000 0.06880  0.64750  0.51460  Biso   1.000  C
  C21      1.0000 0.56880  0.85250  0.48540  Biso   1.000  C
  C22      1.0000 0.06880  0.85250  0.01460  Biso   1.000  C
  C23      1.0000 0.56880  0.64750  0.98540  Biso   1.000  C
  C24      1.0000 0.93120  0.35250  0.48540  Biso   1.000  C
  H17      1.0000 0.39170  0.07480  0.49950  Biso   1.000  H
  H18      1.0000 0.89170  0.07480  0.00050  Biso   1.000  H
  H19      1.0000 0.39170  0.42520  0.99950  Biso   1.000  H
  H20      1.0000 0.10830  0.57480  0.49950  Biso   1.000  H
  H21      1.0000 0.60830  0.92520  0.50050  Biso   1.000  H
  H22      1.0000 0.10830  0.92520  0.99950  Biso   1.000  H
  H23      1.0000 0.60830  0.57480  0.00050  Biso   1.000  H
  H24      1.0000 0.89170  0.42520  0.50050  Biso   1.000  H
  N17      1.0000 0.42520  0.20350  0.59120  Biso   1.000  N
  N18      1.0000 0.92520  0.20350  0.90880  Biso   1.000  N
  N19      1.0000 0.42520  0.29650  0.09120  Biso   1.000  N
  N20      1.0000 0.07480  0.70350  0.59120  Biso   1.000  N
  N21      1.0000 0.57480  0.79650  0.40880  Biso   1.000  N
  N22      1.0000 0.07480  0.79650  0.09120  Biso   1.000  N
  N23      1.0000 0.57480  0.70350  0.90880  Biso   1.000  N
  N24      1.0000 0.92520  0.29650  0.40880  Biso   1.000  N
  C25      1.0000 0.47570  0.37390  0.69390  Biso   1.000  C
  C26      1.0000 0.97570  0.37390  0.80610  Biso   1.000  C
  C27      1.0000 0.47570  0.12610  0.19390  Biso   1.000  C
  C28      1.0000 0.02430  0.87390  0.69390  Biso   1.000  C
  C29      1.0000 0.52430  0.62610  0.30610  Biso   1.000  C
  C30      1.0000 0.02430  0.62610  0.19390  Biso   1.000  C
  C31      1.0000 0.52430  0.87390  0.80610  Biso   1.000  C
  C32      1.0000 0.97570  0.12610  0.30610  Biso   1.000  C
  H25      1.0000 0.42990  0.34410  0.72900  Biso   1.000  H
  H26      1.0000 0.92990  0.34410  0.77100  Biso   1.000  H
  H27      1.0000 0.42990  0.15590  0.22900  Biso   1.000  H
  H28      1.0000 0.07010  0.84410  0.72900  Biso   1.000  H
  H29      1.0000 0.57010  0.65590  0.27100  Biso   1.000  H
  H30      1.0000 0.07010  0.65590  0.22900  Biso   1.000  H
  H31      1.0000 0.57010  0.84410  0.77100  Biso   1.000  H
  H32      1.0000 0.92990  0.15590  0.27100  Biso   1.000  H
  C33      1.0000 0.53290  0.47630  0.72020  Biso   1.000  C
  C34      1.0000 0.03290  0.47630  0.77980  Biso   1.000  C
  C35      1.0000 0.53290  0.02370  0.22020  Biso   1.000  C
  C36      1.0000 0.96710  0.97630  0.72020  Biso   1.000  C
  C37      1.0000 0.46710  0.52370  0.27980  Biso   1.000  C
  C38      1.0000 0.96710  0.52370  0.22020  Biso   1.000  C
  C39      1.0000 0.46710  0.97630  0.77980  Biso   1.000  C
  C40      1.0000 0.03290  0.02370  0.27980  Biso   1.000  C
  H33      1.0000 0.52650  0.51500  0.77360  Biso   1.000  H
  H34      1.0000 0.02650  0.51500  0.72640  Biso   1.000  H
  H35      1.0000 0.52650  0.98500  0.27360  Biso   1.000  H
  H36      1.0000 0.97350  0.01500  0.77360  Biso   1.000  H
  H37      1.0000 0.47350  0.48500  0.22640  Biso   1.000  H
  H38      1.0000 0.97350  0.48500  0.27360  Biso   1.000  H
  H39      1.0000 0.47350  0.01500  0.72640  Biso   1.000  H
  H40      1.0000 0.02650  0.98500  0.22640  Biso   1.000  H
  N25      1.0000 0.65980  0.62910  0.69900  Biso   1.000  N
  N26      1.0000 0.15980  0.62910  0.80100  Biso   1.000  N
  N27      1.0000 0.65980  0.87090  0.19900  Biso   1.000  N
  N28      1.0000 0.84020  0.12910  0.69900  Biso   1.000  N
  N29      1.0000 0.34020  0.37090  0.30100  Biso   1.000  N
  N30      1.0000 0.84020  0.37090  0.19900  Biso   1.000  N
  N31      1.0000 0.34020  0.12910  0.80100  Biso   1.000  N
  N32      1.0000 0.15980  0.87090  0.30100  Biso   1.000  N
  C41      1.0000 0.72290  0.68040  0.64820  Biso   1.000  C
  C42      1.0000 0.22290  0.68040  0.85180  Biso   1.000  C
  C43      1.0000 0.72290  0.81960  0.14820  Biso   1.000  C
  C44      1.0000 0.77710  0.18040  0.64820  Biso   1.000  C
  C45      1.0000 0.27710  0.31960  0.35180  Biso   1.000  C
  C46      1.0000 0.77710  0.31960  0.14820  Biso   1.000  C
  C47      1.0000 0.27710  0.18040  0.85180  Biso   1.000  C
  C48      1.0000 0.22290  0.81960  0.35180  Biso   1.000  C
  H41      1.0000 0.76030  0.75280  0.66810  Biso   1.000  H
  H42      1.0000 0.26030  0.75280  0.83190  Biso   1.000  H
  H43      1.0000 0.76030  0.74720  0.16810  Biso   1.000  H
  H44      1.0000 0.73970  0.25280  0.66810  Biso   1.000  H
  H45      1.0000 0.23970  0.24720  0.33190  Biso   1.000  H
  H46      1.0000 0.73970  0.24720  0.16810  Biso   1.000  H
  H47      1.0000 0.23970  0.25280  0.83190  Biso   1.000  H
  H48      1.0000 0.26030  0.74720  0.33190  Biso   1.000  H
  C49      1.0000 0.73540  0.63050  0.56680  Biso   1.000  C
  C50      1.0000 0.23540  0.63050  0.93320  Biso   1.000  C
  C51      1.0000 0.73540  0.86950  0.06680  Biso   1.000  C
  C52      1.0000 0.76460  0.13050  0.56680  Biso   1.000  C
  C53      1.0000 0.26460  0.36950  0.43320  Biso   1.000  C
  C54      1.0000 0.76460  0.36950  0.06680  Biso   1.000  C
  C55      1.0000 0.26460  0.13050  0.93320  Biso   1.000  C
  C56      1.0000 0.23540  0.86950  0.43320  Biso   1.000  C
  H49      1.0000 0.78060  0.66880  0.53380  Biso   1.000  H
  H50      1.0000 0.28060  0.66880  0.96620  Biso   1.000  H
  H51      1.0000 0.78060  0.83120  0.03380  Biso   1.000  H
  H52      1.0000 0.71940  0.16880  0.53380  Biso   1.000  H
  H53      1.0000 0.21940  0.33120  0.46620  Biso   1.000  H
  H54      1.0000 0.71940  0.33120  0.03380  Biso   1.000  H
  H55      1.0000 0.21940  0.16880  0.96620  Biso   1.000  H
  H56      1.0000 0.28060  0.83120  0.46620  Biso   1.000  H
  C57      1.0000 0.68110  0.52530  0.53560  Biso   1.000  C
  C58      1.0000 0.18110  0.52530  0.96440  Biso   1.000  C
  C59      1.0000 0.68110  0.97470  0.03560  Biso   1.000  C
  C60      1.0000 0.81890  0.02530  0.53560  Biso   1.000  C
  C61      1.0000 0.31890  0.47470  0.46440  Biso   1.000  C
  C62      1.0000 0.81890  0.47470  0.03560  Biso   1.000  C
  C63      1.0000 0.31890  0.02530  0.96440  Biso   1.000  C
  C64      1.0000 0.18110  0.97470  0.46440  Biso   1.000  C
  H57      1.0000 0.68930  0.49070  0.48150  Biso   1.000  H
  H58      1.0000 0.18930  0.49070  0.01850  Biso   1.000  H
  H59      1.0000 0.68930  0.00930  0.98150  Biso   1.000  H
  H60      1.0000 0.81070  0.99070  0.48150  Biso   1.000  H
  H61      1.0000 0.31070  0.50930  0.51850  Biso   1.000  H
  H62      1.0000 0.81070  0.50930  0.98150  Biso   1.000  H
  H63      1.0000 0.31070  0.99070  0.01850  Biso   1.000  H
  H64      1.0000 0.18930  0.00930  0.51850  Biso   1.000  H
  C65      1.0000 0.61260  0.46990  0.58590  Biso   1.000  C
  C66      1.0000 0.11260  0.46990  0.91410  Biso   1.000  C
  C67      1.0000 0.61260  0.03010  0.08590  Biso   1.000  C
  C68      1.0000 0.88740  0.96990  0.58590  Biso   1.000  C
  C69      1.0000 0.38740  0.53010  0.41410  Biso   1.000  C
  C70      1.0000 0.88740  0.53010  0.08590  Biso   1.000  C
  C71      1.0000 0.38740  0.96990  0.91410  Biso   1.000  C
  C72      1.0000 0.11260  0.03010  0.41410  Biso   1.000  C
  C73      1.0000 0.55070  0.35910  0.55710  Biso   1.000  C
  C74      1.0000 0.05070  0.35910  0.94290  Biso   1.000  C
  C75      1.0000 0.55070  0.14090  0.05710  Biso   1.000  C
  C76      1.0000 0.94930  0.85910  0.55710  Biso   1.000  C
  C77      1.0000 0.44930  0.64090  0.44290  Biso   1.000  C
  C78      1.0000 0.94930  0.64090  0.05710  Biso   1.000  C
  C79      1.0000 0.44930  0.85910  0.94290  Biso   1.000  C
  C80      1.0000 0.05070  0.14090  0.44290  Biso   1.000  C
  C81      1.0000 0.48440  0.31020  0.61260  Biso   1.000  C
  C82      1.0000 0.98440  0.31020  0.88740  Biso   1.000  C
  C83      1.0000 0.48440  0.18980  0.11260  Biso   1.000  C
  C84      1.0000 0.01560  0.81020  0.61260  Biso   1.000  C
  C85      1.0000 0.51560  0.68980  0.38740  Biso   1.000  C
  C86      1.0000 0.01560  0.68980  0.11260  Biso   1.000  C
  C87      1.0000 0.51560  0.81020  0.88740  Biso   1.000  C
  C88      1.0000 0.98440  0.18980  0.38740  Biso   1.000  C
  C89      1.0000 0.60390  0.52700  0.66700  Biso   1.000  C
  C90      1.0000 0.10390  0.52700  0.83300  Biso   1.000  C
  C91      1.0000 0.60390  0.97300  0.16700  Biso   1.000  C
  C92      1.0000 0.89610  0.02700  0.66700  Biso   1.000  C
  C93      1.0000 0.39610  0.47300  0.33300  Biso   1.000  C
  C94      1.0000 0.89610  0.47300  0.16700  Biso   1.000  C
  C95      1.0000 0.39610  0.02700  0.83300  Biso   1.000  C
  C96      1.0000 0.10390  0.97300  0.33300  Biso   1.000  C
