data_image0
_cell_length_a       4.0111
_cell_length_b       19.694
_cell_length_c       12.916
_cell_angle_alpha    90
_cell_angle_beta     91
_cell_angle_gamma    90

_symmetry_space_group_name_H-M    "P 1"
_symmetry_int_tables_number       1

loop_
  _symmetry_equiv_pos_as_xyz
  'x, y, z'

loop_
  _atom_site_label
  _atom_site_occupancy
  _atom_site_fract_x
  _atom_site_fract_y
  _atom_site_fract_z
  _atom_site_thermal_displace_type
  _atom_site_B_iso_or_equiv
  _atom_site_type_symbol
  Br1      1.0000 0.75780  0.87167  0.07820  Biso   1.000  Br
  Br2      1.0000 0.75780  0.12833  0.57820  Biso   1.000  Br
  Br3      1.0000 0.25780  0.37167  0.07820  Biso   1.000  Br
  Br4      1.0000 0.25780  0.62833  0.57820  Biso   1.000  Br
  Cu1      1.0000 0.28610  0.82930  0.18180  Biso   1.000  Cu
  Cu2      1.0000 0.28610  0.17070  0.68180  Biso   1.000  Cu
  Cu3      1.0000 0.78610  0.32930  0.18180  Biso   1.000  Cu
  Cu4      1.0000 0.78610  0.67070  0.68180  Biso   1.000  Cu
  C1       1.0000 0.17100  0.96420  0.49500  Biso   1.000  C
  C2       1.0000 0.17100  0.03580  0.99500  Biso   1.000  C
  C3       1.0000 0.67100  0.46420  0.49500  Biso   1.000  C
  C4       1.0000 0.67100  0.53580  0.99500  Biso   1.000  C
  H1       1.0000 0.14520  0.99020  0.55460  Biso   1.000  H
  H2       1.0000 0.14520  0.00980  0.05460  Biso   1.000  H
  H3       1.0000 0.64520  0.49020  0.55460  Biso   1.000  H
  H4       1.0000 0.64520  0.50980  0.05460  Biso   1.000  H
  C5       1.0000 0.04100  0.98720  0.39800  Biso   1.000  C
  C6       1.0000 0.04100  0.01280  0.89800  Biso   1.000  C
  C7       1.0000 0.54100  0.48720  0.39800  Biso   1.000  C
  C8       1.0000 0.54100  0.51280  0.89800  Biso   1.000  C
  H5       1.0000 0.92960  0.02840  0.39130  Biso   1.000  H
  H6       1.0000 0.92960  0.97160  0.89130  Biso   1.000  H
  H7       1.0000 0.42960  0.52840  0.39130  Biso   1.000  H
  H8       1.0000 0.42960  0.47160  0.89130  Biso   1.000  H
  C9       1.0000 0.08900  0.94520  0.31260  Biso   1.000  C
  C10      1.0000 0.08900  0.05480  0.81260  Biso   1.000  C
  C11      1.0000 0.58900  0.44520  0.31260  Biso   1.000  C
  C12      1.0000 0.58900  0.55480  0.81260  Biso   1.000  C
  H9       1.0000 0.99100  0.95800  0.24980  Biso   1.000  H
  H10      1.0000 0.99100  0.04200  0.74980  Biso   1.000  H
  H11      1.0000 0.49100  0.45800  0.24980  Biso   1.000  H
  H12      1.0000 0.49100  0.54200  0.74980  Biso   1.000  H
  N1       1.0000 0.26700  0.88700  0.31510  Biso   1.000  N
  N2       1.0000 0.26700  0.11300  0.81510  Biso   1.000  N
  N3       1.0000 0.76700  0.38700  0.31510  Biso   1.000  N
  N4       1.0000 0.76700  0.61300  0.81510  Biso   1.000  N
  C13      1.0000 0.59500  0.80680  0.41170  Biso   1.000  C
  C14      1.0000 0.59500  0.19320  0.91170  Biso   1.000  C
  C15      1.0000 0.09500  0.30680  0.41170  Biso   1.000  C
  C16      1.0000 0.09500  0.69320  0.91170  Biso   1.000  C
  H13      1.0000 0.66160  0.78720  0.34990  Biso   1.000  H
  H14      1.0000 0.66160  0.21280  0.84990  Biso   1.000  H
  H15      1.0000 0.16160  0.28720  0.34990  Biso   1.000  H
  H16      1.0000 0.16160  0.71280  0.84990  Biso   1.000  H
  C17      1.0000 0.68200  0.77760  0.49860  Biso   1.000  C
  C18      1.0000 0.68200  0.22240  0.99860  Biso   1.000  C
  C19      1.0000 0.18200  0.27760  0.49860  Biso   1.000  C
  C20      1.0000 0.18200  0.72240  0.99860  Biso   1.000  C
  H17      1.0000 0.79930  0.73690  0.49770  Biso   1.000  H
  H18      1.0000 0.79930  0.26310  0.99770  Biso   1.000  H
  H19      1.0000 0.29930  0.23690  0.49770  Biso   1.000  H
  H20      1.0000 0.29930  0.76310  0.99770  Biso   1.000  H
  N5       1.0000 0.68700  0.77470  0.68480  Biso   1.000  N
  N6       1.0000 0.68700  0.22530  0.18480  Biso   1.000  N
  N7       1.0000 0.18700  0.27470  0.68480  Biso   1.000  N
  N8       1.0000 0.18700  0.72530  0.18480  Biso   1.000  N
  C21      1.0000 0.62100  0.80550  0.77490  Biso   1.000  C
  C22      1.0000 0.62100  0.19450  0.27490  Biso   1.000  C
  C23      1.0000 0.12100  0.30550  0.77490  Biso   1.000  C
  C24      1.0000 0.12100  0.69450  0.27490  Biso   1.000  C
  H21      1.0000 0.68040  0.78330  0.83600  Biso   1.000  H
  H22      1.0000 0.68040  0.21670  0.33600  Biso   1.000  H
  H23      1.0000 0.18040  0.28330  0.83600  Biso   1.000  H
  H24      1.0000 0.18040  0.71670  0.33600  Biso   1.000  H
  C25      1.0000 0.46800  0.86980  0.78200  Biso   1.000  C
  C26      1.0000 0.46800  0.13020  0.28200  Biso   1.000  C
  C27      1.0000 0.96800  0.36980  0.78200  Biso   1.000  C
  C28      1.0000 0.96800  0.63020  0.28200  Biso   1.000  C
  H25      1.0000 0.42650  0.88900  0.84630  Biso   1.000  H
  H26      1.0000 0.42650  0.11100  0.34630  Biso   1.000  H
  H27      1.0000 0.92650  0.38900  0.84630  Biso   1.000  H
  H28      1.0000 0.92650  0.61100  0.34630  Biso   1.000  H
  C29      1.0000 0.38300  0.90320  0.69300  Biso   1.000  C
  C30      1.0000 0.38300  0.09680  0.19300  Biso   1.000  C
  C31      1.0000 0.88300  0.40320  0.69300  Biso   1.000  C
  C32      1.0000 0.88300  0.59680  0.19300  Biso   1.000  C
  H29      1.0000 0.28400  0.94590  0.69630  Biso   1.000  H
  H30      1.0000 0.28400  0.05410  0.19630  Biso   1.000  H
  H31      1.0000 0.78400  0.44590  0.69630  Biso   1.000  H
  H32      1.0000 0.78400  0.55410  0.19630  Biso   1.000  H
  C33      1.0000 0.44200  0.87420  0.60090  Biso   1.000  C
  C34      1.0000 0.44200  0.12580  0.10090  Biso   1.000  C
  C35      1.0000 0.94200  0.37420  0.60090  Biso   1.000  C
  C36      1.0000 0.94200  0.62580  0.10090  Biso   1.000  C
  C37      1.0000 0.33300  0.90350  0.49900  Biso   1.000  C
  C38      1.0000 0.33300  0.09650  0.99900  Biso   1.000  C
  C39      1.0000 0.83300  0.40350  0.49900  Biso   1.000  C
  C40      1.0000 0.83300  0.59650  0.99900  Biso   1.000  C
  C41      1.0000 0.39900  0.86900  0.40750  Biso   1.000  C
  C42      1.0000 0.39900  0.13100  0.90750  Biso   1.000  C
  C43      1.0000 0.89900  0.36900  0.40750  Biso   1.000  C
  C44      1.0000 0.89900  0.63100  0.90750  Biso   1.000  C
  C45      1.0000 0.59500  0.80820  0.59760  Biso   1.000  C
  C46      1.0000 0.59500  0.19180  0.09760  Biso   1.000  C
  C47      1.0000 0.09500  0.30820  0.59760  Biso   1.000  C
  C48      1.0000 0.09500  0.69180  0.09760  Biso   1.000  C
