data_image0
_cell_length_a       21.653
_cell_length_b       9.7015
_cell_length_c       20.231
_cell_angle_alpha    90
_cell_angle_beta     112.74
_cell_angle_gamma    90

_symmetry_space_group_name_H-M    "P 1"
_symmetry_int_tables_number       1

loop_
  _symmetry_equiv_pos_as_xyz
  'x, y, z'

loop_
  _atom_site_label
  _atom_site_occupancy
  _atom_site_fract_x
  _atom_site_fract_y
  _atom_site_fract_z
  _atom_site_thermal_displace_type
  _atom_site_B_iso_or_equiv
  _atom_site_type_symbol
  N1       1.0000 0.96093  0.06750  0.16127  Biso   1.000  N
  N2       1.0000 0.03907  0.06750  0.33873  Biso   1.000  N
  N3       1.0000 0.46093  0.56750  0.16127  Biso   1.000  N
  N4       1.0000 0.53907  0.56750  0.33873  Biso   1.000  N
  N5       1.0000 0.03907  0.93250  0.83873  Biso   1.000  N
  N6       1.0000 0.96093  0.93250  0.66127  Biso   1.000  N
  N7       1.0000 0.53907  0.43250  0.83873  Biso   1.000  N
  N8       1.0000 0.46093  0.43250  0.66127  Biso   1.000  N
  N9       1.0000 0.92223  0.94960  0.93369  Biso   1.000  N
  N10      1.0000 0.07777  0.94960  0.56631  Biso   1.000  N
  N11      1.0000 0.42223  0.44960  0.93369  Biso   1.000  N
  N12      1.0000 0.57777  0.44960  0.56631  Biso   1.000  N
  N13      1.0000 0.07777  0.05040  0.06631  Biso   1.000  N
  N14      1.0000 0.92223  0.05040  0.43369  Biso   1.000  N
  N15      1.0000 0.57777  0.55040  0.06631  Biso   1.000  N
  N16      1.0000 0.42223  0.55040  0.43369  Biso   1.000  N
  C1       1.0000 0.12024  0.40210  0.30719  Biso   1.000  C
  C2       1.0000 0.87976  0.40210  0.19281  Biso   1.000  C
  C3       1.0000 0.62024  0.90210  0.30719  Biso   1.000  C
  C4       1.0000 0.37976  0.90210  0.19281  Biso   1.000  C
  C5       1.0000 0.87976  0.59790  0.69281  Biso   1.000  C
  C6       1.0000 0.12024  0.59790  0.80719  Biso   1.000  C
  C7       1.0000 0.37976  0.09790  0.69281  Biso   1.000  C
  C8       1.0000 0.62024  0.09790  0.80719  Biso   1.000  C
  H1       1.0000 0.13340  0.31300  0.32340  Biso   1.000  H
  H2       1.0000 0.86660  0.31300  0.17660  Biso   1.000  H
  H3       1.0000 0.63340  0.81300  0.32340  Biso   1.000  H
  H4       1.0000 0.36660  0.81300  0.17660  Biso   1.000  H
  H5       1.0000 0.86660  0.68700  0.67660  Biso   1.000  H
  H6       1.0000 0.13340  0.68700  0.82340  Biso   1.000  H
  H7       1.0000 0.36660  0.18700  0.67660  Biso   1.000  H
  H8       1.0000 0.63340  0.18700  0.82340  Biso   1.000  H
  C9       1.0000 0.90107  0.17750  0.05872  Biso   1.000  C
  C10      1.0000 0.09893  0.17750  0.44128  Biso   1.000  C
  C11      1.0000 0.40107  0.67750  0.05872  Biso   1.000  C
  C12      1.0000 0.59893  0.67750  0.44128  Biso   1.000  C
  C13      1.0000 0.09893  0.82250  0.94128  Biso   1.000  C
  C14      1.0000 0.90107  0.82250  0.55872  Biso   1.000  C
  C15      1.0000 0.59893  0.32250  0.94128  Biso   1.000  C
  C16      1.0000 0.40107  0.32250  0.55872  Biso   1.000  C
  C17      1.0000 0.10994  0.43470  0.23808  Biso   1.000  C
  C18      1.0000 0.89006  0.43470  0.26192  Biso   1.000  C
  C19      1.0000 0.60994  0.93470  0.23808  Biso   1.000  C
  C20      1.0000 0.39006  0.93470  0.26192  Biso   1.000  C
  C21      1.0000 0.89006  0.56530  0.76192  Biso   1.000  C
  C22      1.0000 0.10994  0.56530  0.73808  Biso   1.000  C
  C23      1.0000 0.39006  0.06530  0.76192  Biso   1.000  C
  C24      1.0000 0.60994  0.06530  0.73808  Biso   1.000  C
  H9       1.0000 0.11550  0.37080  0.20660  Biso   1.000  H
  H10      1.0000 0.88450  0.37080  0.29340  Biso   1.000  H
  H11      1.0000 0.61550  0.87080  0.20660  Biso   1.000  H
  H12      1.0000 0.38450  0.87080  0.29340  Biso   1.000  H
  H13      1.0000 0.88450  0.62920  0.79340  Biso   1.000  H
  H14      1.0000 0.11550  0.62920  0.70660  Biso   1.000  H
  H15      1.0000 0.38450  0.12920  0.79340  Biso   1.000  H
  H16      1.0000 0.61550  0.12920  0.70660  Biso   1.000  H
  C25      1.0000 0.07972  0.66810  0.26307  Biso   1.000  C
  C26      1.0000 0.92028  0.66810  0.23693  Biso   1.000  C
  C27      1.0000 0.57972  0.16810  0.26307  Biso   1.000  C
  C28      1.0000 0.42028  0.16810  0.23693  Biso   1.000  C
  C29      1.0000 0.92028  0.33190  0.73693  Biso   1.000  C
  C30      1.0000 0.07972  0.33190  0.76307  Biso   1.000  C
  C31      1.0000 0.42028  0.83190  0.73693  Biso   1.000  C
  C32      1.0000 0.57972  0.83190  0.76307  Biso   1.000  C
  C33      1.0000 0.09061  0.63140  0.33419  Biso   1.000  C
  C34      1.0000 0.90939  0.63140  0.16581  Biso   1.000  C
  C35      1.0000 0.59061  0.13140  0.33419  Biso   1.000  C
  C36      1.0000 0.40939  0.13140  0.16581  Biso   1.000  C
  C37      1.0000 0.90939  0.36860  0.66581  Biso   1.000  C
  C38      1.0000 0.09061  0.36860  0.83419  Biso   1.000  C
  C39      1.0000 0.40939  0.86860  0.66581  Biso   1.000  C
  C40      1.0000 0.59061  0.86860  0.83419  Biso   1.000  C
  H17      1.0000 0.08390  0.69400  0.36560  Biso   1.000  H
  H18      1.0000 0.91610  0.69400  0.13440  Biso   1.000  H
  H19      1.0000 0.58390  0.19400  0.36560  Biso   1.000  H
  H20      1.0000 0.41610  0.19400  0.13440  Biso   1.000  H
  H21      1.0000 0.91610  0.30600  0.63440  Biso   1.000  H
  H22      1.0000 0.08390  0.30600  0.86560  Biso   1.000  H
  H23      1.0000 0.41610  0.80600  0.63440  Biso   1.000  H
  H24      1.0000 0.58390  0.80600  0.86560  Biso   1.000  H
  C41      1.0000 0.11152  0.49930  0.35493  Biso   1.000  C
  C42      1.0000 0.88848  0.49930  0.14507  Biso   1.000  C
  C43      1.0000 0.61152  0.99930  0.35493  Biso   1.000  C
  C44      1.0000 0.38848  0.99930  0.14507  Biso   1.000  C
  C45      1.0000 0.88848  0.50070  0.64507  Biso   1.000  C
  C46      1.0000 0.11152  0.50070  0.85493  Biso   1.000  C
  C47      1.0000 0.38848  0.00070  0.64507  Biso   1.000  C
  C48      1.0000 0.61152  0.00070  0.85493  Biso   1.000  C
  H25      1.0000 0.12020  0.47270  0.40190  Biso   1.000  H
  H26      1.0000 0.87980  0.47270  0.09810  Biso   1.000  H
  H27      1.0000 0.62020  0.97270  0.40190  Biso   1.000  H
  H28      1.0000 0.37980  0.97270  0.09810  Biso   1.000  H
  H29      1.0000 0.87980  0.52730  0.59810  Biso   1.000  H
  H30      1.0000 0.12020  0.52730  0.90190  Biso   1.000  H
  H31      1.0000 0.37980  0.02730  0.59810  Biso   1.000  H
  H32      1.0000 0.62020  0.02730  0.90190  Biso   1.000  H
  C49      1.0000 0.79610  0.68740  0.87360  Biso   1.000  C
  C50      1.0000 0.20390  0.68740  0.62640  Biso   1.000  C
  C51      1.0000 0.29610  0.18740  0.87360  Biso   1.000  C
  C52      1.0000 0.70390  0.18740  0.62640  Biso   1.000  C
  C53      1.0000 0.20390  0.31260  0.12640  Biso   1.000  C
  C54      1.0000 0.79610  0.31260  0.37360  Biso   1.000  C
  C55      1.0000 0.70390  0.81260  0.12640  Biso   1.000  C
  C56      1.0000 0.29610  0.81260  0.37360  Biso   1.000  C
  H33      1.0000 0.78900  0.60230  0.89070  Biso   1.000  H
  H34      1.0000 0.21100  0.60230  0.60930  Biso   1.000  H
  H35      1.0000 0.28900  0.10230  0.89070  Biso   1.000  H
  H36      1.0000 0.71100  0.10230  0.60930  Biso   1.000  H
  H37      1.0000 0.21100  0.39770  0.10930  Biso   1.000  H
  H38      1.0000 0.78900  0.39770  0.39070  Biso   1.000  H
  H39      1.0000 0.71100  0.89770  0.10930  Biso   1.000  H
  H40      1.0000 0.28900  0.89770  0.39070  Biso   1.000  H
  C57      1.0000 0.09044  0.57110  0.21789  Biso   1.000  C
  C58      1.0000 0.90956  0.57110  0.28211  Biso   1.000  C
  C59      1.0000 0.59044  0.07110  0.21789  Biso   1.000  C
  C60      1.0000 0.40956  0.07110  0.28211  Biso   1.000  C
  C61      1.0000 0.90956  0.42890  0.78211  Biso   1.000  C
  C62      1.0000 0.09044  0.42890  0.71789  Biso   1.000  C
  C63      1.0000 0.40956  0.92890  0.78211  Biso   1.000  C
  C64      1.0000 0.59044  0.92890  0.71789  Biso   1.000  C
  C65      1.0000 0.85255  0.76830  0.91052  Biso   1.000  C
  C66      1.0000 0.14745  0.76830  0.58948  Biso   1.000  C
  C67      1.0000 0.35255  0.26830  0.91052  Biso   1.000  C
  C68      1.0000 0.64745  0.26830  0.58948  Biso   1.000  C
  C69      1.0000 0.14745  0.23170  0.08948  Biso   1.000  C
  C70      1.0000 0.85255  0.23170  0.41052  Biso   1.000  C
  C71      1.0000 0.64745  0.73170  0.08948  Biso   1.000  C
  C72      1.0000 0.35255  0.73170  0.41052  Biso   1.000  C
  C73      1.0000 0.84800  0.20560  0.99423  Biso   1.000  C
  C74      1.0000 0.15200  0.20560  0.50577  Biso   1.000  C
  C75      1.0000 0.34800  0.70560  0.99423  Biso   1.000  C
  C76      1.0000 0.65200  0.70560  0.50577  Biso   1.000  C
  C77      1.0000 0.15200  0.79440  0.00577  Biso   1.000  C
  C78      1.0000 0.84800  0.79440  0.49423  Biso   1.000  C
  C79      1.0000 0.65200  0.29440  0.00577  Biso   1.000  C
  C80      1.0000 0.34800  0.29440  0.49423  Biso   1.000  C
  H41      1.0000 0.84860  0.28000  0.96550  Biso   1.000  H
  H42      1.0000 0.15140  0.28000  0.53450  Biso   1.000  H
  H43      1.0000 0.34860  0.78000  0.96550  Biso   1.000  H
  H44      1.0000 0.65140  0.78000  0.53450  Biso   1.000  H
  H45      1.0000 0.15140  0.72000  0.03450  Biso   1.000  H
  H46      1.0000 0.84860  0.72000  0.46550  Biso   1.000  H
  H47      1.0000 0.65140  0.22000  0.03450  Biso   1.000  H
  H48      1.0000 0.34860  0.22000  0.46550  Biso   1.000  H
  C81      1.0000 0.75208  0.74250  0.81070  Biso   1.000  C
  C82      1.0000 0.24792  0.74250  0.68930  Biso   1.000  C
  C83      1.0000 0.25208  0.24250  0.81070  Biso   1.000  C
  C84      1.0000 0.74792  0.24250  0.68930  Biso   1.000  C
  C85      1.0000 0.24792  0.25750  0.18930  Biso   1.000  C
  C86      1.0000 0.75208  0.25750  0.31070  Biso   1.000  C
  C87      1.0000 0.74792  0.75750  0.18930  Biso   1.000  C
  C88      1.0000 0.25208  0.75750  0.31070  Biso   1.000  C
  H49      1.0000 0.71280  0.69500  0.78500  Biso   1.000  H
  H50      1.0000 0.28720  0.69500  0.71500  Biso   1.000  H
  H51      1.0000 0.21280  0.19500  0.78500  Biso   1.000  H
  H52      1.0000 0.78720  0.19500  0.71500  Biso   1.000  H
  H53      1.0000 0.28720  0.30500  0.21500  Biso   1.000  H
  H54      1.0000 0.71280  0.30500  0.28500  Biso   1.000  H
  H55      1.0000 0.78720  0.80500  0.21500  Biso   1.000  H
  H56      1.0000 0.21280  0.80500  0.28500  Biso   1.000  H
  C89      1.0000 0.79503  0.11710  0.97580  Biso   1.000  C
  C90      1.0000 0.20497  0.11710  0.52420  Biso   1.000  C
  C91      1.0000 0.29503  0.61710  0.97580  Biso   1.000  C
  C92      1.0000 0.70497  0.61710  0.52420  Biso   1.000  C
  C93      1.0000 0.20497  0.88290  0.02420  Biso   1.000  C
  C94      1.0000 0.79503  0.88290  0.47580  Biso   1.000  C
  C95      1.0000 0.70497  0.38290  0.02420  Biso   1.000  C
  C96      1.0000 0.29503  0.38290  0.47580  Biso   1.000  C
  H57      1.0000 0.75850  0.13130  0.93300  Biso   1.000  H
  H58      1.0000 0.24150  0.13130  0.56700  Biso   1.000  H
  H59      1.0000 0.25850  0.63130  0.93300  Biso   1.000  H
  H60      1.0000 0.74150  0.63130  0.56700  Biso   1.000  H
  H61      1.0000 0.24150  0.86870  0.06700  Biso   1.000  H
  H62      1.0000 0.75850  0.86870  0.43300  Biso   1.000  H
  H63      1.0000 0.74150  0.36870  0.06700  Biso   1.000  H
  H64      1.0000 0.25850  0.36870  0.43300  Biso   1.000  H
  C97      1.0000 0.79402  0.00450  0.01960  Biso   1.000  C
  C98      1.0000 0.20598  0.00450  0.48040  Biso   1.000  C
  C99      1.0000 0.29402  0.50450  0.01960  Biso   1.000  C
  C100     1.0000 0.70598  0.50450  0.48040  Biso   1.000  C
  C101     1.0000 0.20598  0.99550  0.98040  Biso   1.000  C
  C102     1.0000 0.79402  0.99550  0.51960  Biso   1.000  C
  C103     1.0000 0.70598  0.49550  0.98040  Biso   1.000  C
  C104     1.0000 0.29402  0.49550  0.51960  Biso   1.000  C
  H65      1.0000 0.75690  0.94660  0.00480  Biso   1.000  H
  H66      1.0000 0.24310  0.94660  0.49520  Biso   1.000  H
  H67      1.0000 0.25690  0.44660  0.00480  Biso   1.000  H
  H68      1.0000 0.74310  0.44660  0.49520  Biso   1.000  H
  H69      1.0000 0.24310  0.05340  0.99520  Biso   1.000  H
  H70      1.0000 0.75690  0.05340  0.50480  Biso   1.000  H
  H71      1.0000 0.74310  0.55340  0.99520  Biso   1.000  H
  H72      1.0000 0.25690  0.55340  0.50480  Biso   1.000  H
  C105     1.0000 0.76453  0.86910  0.78370  Biso   1.000  C
  C106     1.0000 0.23547  0.86910  0.71630  Biso   1.000  C
  C107     1.0000 0.26453  0.36910  0.78370  Biso   1.000  C
  C108     1.0000 0.73547  0.36910  0.71630  Biso   1.000  C
  C109     1.0000 0.23547  0.13090  0.21630  Biso   1.000  C
  C110     1.0000 0.76453  0.13090  0.28370  Biso   1.000  C
  C111     1.0000 0.73547  0.63090  0.21630  Biso   1.000  C
  C112     1.0000 0.26453  0.63090  0.28370  Biso   1.000  C
  H73      1.0000 0.73420  0.90010  0.73960  Biso   1.000  H
  H74      1.0000 0.26580  0.90010  0.76040  Biso   1.000  H
  H75      1.0000 0.23420  0.40010  0.73960  Biso   1.000  H
  H76      1.0000 0.76580  0.40010  0.76040  Biso   1.000  H
  H77      1.0000 0.26580  0.09990  0.26040  Biso   1.000  H
  H78      1.0000 0.73420  0.09990  0.23960  Biso   1.000  H
  H79      1.0000 0.76580  0.59990  0.26040  Biso   1.000  H
  H80      1.0000 0.23420  0.59990  0.23960  Biso   1.000  H
  C113     1.0000 0.90144  0.06710  0.10318  Biso   1.000  C
  C114     1.0000 0.09856  0.06710  0.39682  Biso   1.000  C
  C115     1.0000 0.40144  0.56710  0.10318  Biso   1.000  C
  C116     1.0000 0.59856  0.56710  0.39682  Biso   1.000  C
  C117     1.0000 0.09856  0.93290  0.89682  Biso   1.000  C
  C118     1.0000 0.90144  0.93290  0.60318  Biso   1.000  C
  C119     1.0000 0.59856  0.43290  0.89682  Biso   1.000  C
  C120     1.0000 0.40144  0.43290  0.60318  Biso   1.000  C
  C121     1.0000 0.86390  0.89580  0.88545  Biso   1.000  C
  C122     1.0000 0.13610  0.89580  0.61455  Biso   1.000  C
  C123     1.0000 0.36390  0.39580  0.88545  Biso   1.000  C
  C124     1.0000 0.63610  0.39580  0.61455  Biso   1.000  C
  C125     1.0000 0.13610  0.10420  0.11455  Biso   1.000  C
  C126     1.0000 0.86390  0.10420  0.38545  Biso   1.000  C
  C127     1.0000 0.63610  0.60420  0.11455  Biso   1.000  C
  C128     1.0000 0.36390  0.60420  0.38545  Biso   1.000  C
  C129     1.0000 0.84607  0.97810  0.08330  Biso   1.000  C
  C130     1.0000 0.15393  0.97810  0.41670  Biso   1.000  C
  C131     1.0000 0.34607  0.47810  0.08330  Biso   1.000  C
  C132     1.0000 0.65393  0.47810  0.41670  Biso   1.000  C
  C133     1.0000 0.15393  0.02190  0.91670  Biso   1.000  C
  C134     1.0000 0.84607  0.02190  0.58330  Biso   1.000  C
  C135     1.0000 0.65393  0.52190  0.91670  Biso   1.000  C
  C136     1.0000 0.34607  0.52190  0.58330  Biso   1.000  C
  H81      1.0000 0.84480  0.90430  0.11220  Biso   1.000  H
  H82      1.0000 0.15520  0.90430  0.38780  Biso   1.000  H
  H83      1.0000 0.34480  0.40430  0.11220  Biso   1.000  H
  H84      1.0000 0.65520  0.40430  0.38780  Biso   1.000  H
  H85      1.0000 0.15520  0.09570  0.88780  Biso   1.000  H
  H86      1.0000 0.84480  0.09570  0.61220  Biso   1.000  H
  H87      1.0000 0.65520  0.59570  0.88780  Biso   1.000  H
  H88      1.0000 0.34480  0.59570  0.61220  Biso   1.000  H
  C137     1.0000 0.81876  0.94630  0.81950  Biso   1.000  C
  C138     1.0000 0.18124  0.94630  0.68050  Biso   1.000  C
  C139     1.0000 0.31876  0.44630  0.81950  Biso   1.000  C
  C140     1.0000 0.68124  0.44630  0.68050  Biso   1.000  C
  C141     1.0000 0.18124  0.05370  0.18050  Biso   1.000  C
  C142     1.0000 0.81876  0.05370  0.31950  Biso   1.000  C
  C143     1.0000 0.68124  0.55370  0.18050  Biso   1.000  C
  C144     1.0000 0.31876  0.55370  0.31950  Biso   1.000  C
  H89      1.0000 0.82610  0.02990  0.80120  Biso   1.000  H
  H90      1.0000 0.17390  0.02990  0.69880  Biso   1.000  H
  H91      1.0000 0.32610  0.52990  0.80120  Biso   1.000  H
  H92      1.0000 0.67390  0.52990  0.69880  Biso   1.000  H
  H93      1.0000 0.17390  0.97010  0.19880  Biso   1.000  H
  H94      1.0000 0.82610  0.97010  0.30120  Biso   1.000  H
  H95      1.0000 0.67390  0.47010  0.19880  Biso   1.000  H
  H96      1.0000 0.32610  0.47010  0.30120  Biso   1.000  H
  Cu1      1.0000 0.00000  0.94482  0.25000  Biso   1.000  Cu
  Cu2      1.0000 0.50000  0.44482  0.25000  Biso   1.000  Cu
  Cu3      1.0000 0.00000  0.05518  0.75000  Biso   1.000  Cu
  Cu4      1.0000 0.50000  0.55518  0.75000  Biso   1.000  Cu
  Cu5      1.0000 0.02819  0.88729  0.07604  Biso   1.000  Cu
  Cu6      1.0000 0.97181  0.88729  0.42396  Biso   1.000  Cu
  Cu7      1.0000 0.52819  0.38729  0.07604  Biso   1.000  Cu
  Cu8      1.0000 0.47181  0.38729  0.42396  Biso   1.000  Cu
  Cu9      1.0000 0.97181  0.11271  0.92396  Biso   1.000  Cu
  Cu10     1.0000 0.02819  0.11271  0.57604  Biso   1.000  Cu
  Cu11     1.0000 0.47181  0.61271  0.92396  Biso   1.000  Cu
  Cu12     1.0000 0.52819  0.61271  0.57604  Biso   1.000  Cu
  Dy1      1.0000 0.00000  0.50000  0.00000  Biso   1.000  Dy
  Dy2      1.0000 0.00000  0.50000  0.50000  Biso   1.000  Dy
  Dy3      1.0000 0.50000  0.00000  0.00000  Biso   1.000  Dy
  Dy4      1.0000 0.50000  0.00000  0.50000  Biso   1.000  Dy
  N17      1.0000 0.05950  0.79030  0.22715  Biso   1.000  N
  N18      1.0000 0.94050  0.79030  0.27285  Biso   1.000  N
  N19      1.0000 0.55950  0.29030  0.22715  Biso   1.000  N
  N20      1.0000 0.44050  0.29030  0.27285  Biso   1.000  N
  N21      1.0000 0.94050  0.20970  0.77285  Biso   1.000  N
  N22      1.0000 0.05950  0.20970  0.72715  Biso   1.000  N
  N23      1.0000 0.44050  0.70970  0.77285  Biso   1.000  N
  N24      1.0000 0.55950  0.70970  0.72715  Biso   1.000  N
  N25      1.0000 0.05800  0.77040  0.16093  Biso   1.000  N
  N26      1.0000 0.94200  0.77040  0.33907  Biso   1.000  N
  N27      1.0000 0.55800  0.27040  0.16093  Biso   1.000  N
  N28      1.0000 0.44200  0.27040  0.33907  Biso   1.000  N
  N29      1.0000 0.94200  0.22960  0.83907  Biso   1.000  N
  N30      1.0000 0.05800  0.22960  0.66093  Biso   1.000  N
  N31      1.0000 0.44200  0.72960  0.83907  Biso   1.000  N
  N32      1.0000 0.55800  0.72960  0.66093  Biso   1.000  N
  N33      1.0000 0.07617  0.64080  0.15542  Biso   1.000  N
  N34      1.0000 0.92383  0.64080  0.34458  Biso   1.000  N
  N35      1.0000 0.57617  0.14080  0.15542  Biso   1.000  N
  N36      1.0000 0.42383  0.14080  0.34458  Biso   1.000  N
  N37      1.0000 0.92383  0.35920  0.84458  Biso   1.000  N
  N38      1.0000 0.07617  0.35920  0.65542  Biso   1.000  N
  N39      1.0000 0.42383  0.85920  0.84458  Biso   1.000  N
  N40      1.0000 0.57617  0.85920  0.65542  Biso   1.000  N
  N41      1.0000 0.96143  0.23910  0.09410  Biso   1.000  N
  N42      1.0000 0.03857  0.23910  0.40590  Biso   1.000  N
  N43      1.0000 0.46143  0.73910  0.09410  Biso   1.000  N
  N44      1.0000 0.53857  0.73910  0.40590  Biso   1.000  N
  N45      1.0000 0.03857  0.76090  0.90590  Biso   1.000  N
  N46      1.0000 0.96143  0.76090  0.59410  Biso   1.000  N
  N47      1.0000 0.53857  0.26090  0.90590  Biso   1.000  N
  N48      1.0000 0.46143  0.26090  0.59410  Biso   1.000  N
  N49      1.0000 0.99740  0.17490  0.15522  Biso   1.000  N
  N50      1.0000 0.00260  0.17490  0.34478  Biso   1.000  N
  N51      1.0000 0.49740  0.67490  0.15522  Biso   1.000  N
  N52      1.0000 0.50260  0.67490  0.34478  Biso   1.000  N
  N53      1.0000 0.00260  0.82510  0.84478  Biso   1.000  N
  N54      1.0000 0.99740  0.82510  0.65522  Biso   1.000  N
  N55      1.0000 0.50260  0.32510  0.84478  Biso   1.000  N
  N56      1.0000 0.49740  0.32510  0.65522  Biso   1.000  N
  N57      1.0000 0.90568  0.75090  0.97315  Biso   1.000  N
  N58      1.0000 0.09432  0.75090  0.52685  Biso   1.000  N
  N59      1.0000 0.40568  0.25090  0.97315  Biso   1.000  N
  N60      1.0000 0.59432  0.25090  0.52685  Biso   1.000  N
  N61      1.0000 0.09432  0.24910  0.02685  Biso   1.000  N
  N62      1.0000 0.90568  0.24910  0.47315  Biso   1.000  N
  N63      1.0000 0.59432  0.74910  0.02685  Biso   1.000  N
  N64      1.0000 0.40568  0.74910  0.47315  Biso   1.000  N
  N65      1.0000 0.94699  0.85920  0.98749  Biso   1.000  N
  N66      1.0000 0.05301  0.85920  0.51251  Biso   1.000  N
  N67      1.0000 0.44699  0.35920  0.98749  Biso   1.000  N
  N68      1.0000 0.55301  0.35920  0.51251  Biso   1.000  N
  N69      1.0000 0.05301  0.14080  0.01251  Biso   1.000  N
  N70      1.0000 0.94699  0.14080  0.48749  Biso   1.000  N
  N71      1.0000 0.55301  0.64080  0.01251  Biso   1.000  N
  N72      1.0000 0.44699  0.64080  0.48749  Biso   1.000  N
  O1       1.0000 0.08222  0.59800  0.09577  Biso   1.000  O
  O2       1.0000 0.91778  0.59800  0.40423  Biso   1.000  O
  O3       1.0000 0.58222  0.09800  0.09577  Biso   1.000  O
  O4       1.0000 0.41778  0.09800  0.40423  Biso   1.000  O
  O5       1.0000 0.91778  0.40200  0.90423  Biso   1.000  O
  O6       1.0000 0.08222  0.40200  0.59577  Biso   1.000  O
  O7       1.0000 0.41778  0.90200  0.90423  Biso   1.000  O
  O8       1.0000 0.58222  0.90200  0.59577  Biso   1.000  O
  O9       1.0000 0.92067  0.64040  0.01544  Biso   1.000  O
  O10      1.0000 0.07933  0.64040  0.48456  Biso   1.000  O
  O11      1.0000 0.42067  0.14040  0.01544  Biso   1.000  O
  O12      1.0000 0.57933  0.14040  0.48456  Biso   1.000  O
  O13      1.0000 0.07933  0.35960  0.98456  Biso   1.000  O
  O14      1.0000 0.92067  0.35960  0.51544  Biso   1.000  O
  O15      1.0000 0.57933  0.85960  0.98456  Biso   1.000  O
  O16      1.0000 0.42067  0.85960  0.51544  Biso   1.000  O
  O17      1.0000 0.98523  0.35040  0.07343  Biso   1.000  O
  O18      1.0000 0.01477  0.35040  0.42657  Biso   1.000  O
  O19      1.0000 0.48523  0.85040  0.07343  Biso   1.000  O
  O20      1.0000 0.51477  0.85040  0.42657  Biso   1.000  O
  O21      1.0000 0.01477  0.64960  0.92657  Biso   1.000  O
  O22      1.0000 0.98523  0.64960  0.57343  Biso   1.000  O
  O23      1.0000 0.51477  0.14960  0.92657  Biso   1.000  O
  O24      1.0000 0.48523  0.14960  0.57343  Biso   1.000  O
