data_image0
_cell_length_a       12.456
_cell_length_b       14.493
_cell_length_c       14.789
_cell_angle_alpha    72.78
_cell_angle_beta     86.06
_cell_angle_gamma    73.19

_symmetry_space_group_name_H-M    "P 1"
_symmetry_int_tables_number       1

loop_
  _symmetry_equiv_pos_as_xyz
  'x, y, z'

loop_
  _atom_site_label
  _atom_site_occupancy
  _atom_site_fract_x
  _atom_site_fract_y
  _atom_site_fract_z
  _atom_site_thermal_displace_type
  _atom_site_B_iso_or_equiv
  _atom_site_type_symbol
  Br1      1.0000 0.79191  0.32637  0.23635  Biso   1.000  Br
  Br2      1.0000 0.20809  0.67363  0.76365  Biso   1.000  Br
  C1       1.0000 0.14780  0.10660  0.20360  Biso   1.000  C
  C2       1.0000 0.85220  0.89340  0.79640  Biso   1.000  C
  C3       1.0000 0.22610  0.10390  0.12970  Biso   1.000  C
  C4       1.0000 0.77390  0.89610  0.87030  Biso   1.000  C
  H1       1.0000 0.29500  0.11620  0.13170  Biso   1.000  H
  H2       1.0000 0.70500  0.88380  0.86830  Biso   1.000  H
  C5       1.0000 0.19210  0.08210  0.05660  Biso   1.000  C
  C6       1.0000 0.80790  0.91790  0.94340  Biso   1.000  C
  H3       1.0000 0.24130  0.07590  0.00710  Biso   1.000  H
  H4       1.0000 0.75870  0.92410  0.99290  Biso   1.000  H
  C7       1.0000 0.08770  0.06820  0.05050  Biso   1.000  C
  C8       1.0000 0.91230  0.93180  0.94950  Biso   1.000  C
  H5       1.0000 0.06880  0.05500  0.99680  Biso   1.000  H
  H6       1.0000 0.93120  0.94500  0.00320  Biso   1.000  H
  C9       1.0000 0.01250  0.07340  0.12080  Biso   1.000  C
  C10      1.0000 0.98750  0.92660  0.87920  Biso   1.000  C
  H7       1.0000 0.94160  0.06610  0.11600  Biso   1.000  H
  H8       1.0000 0.05840  0.93390  0.88400  Biso   1.000  H
  C11      1.0000 0.04630  0.09000  0.19910  Biso   1.000  C
  C12      1.0000 0.95370  0.91000  0.80090  Biso   1.000  C
  C13      1.0000 0.69760  0.01860  0.22700  Biso   1.000  C
  C14      1.0000 0.30240  0.98140  0.77300  Biso   1.000  C
  C15      1.0000 0.76690  0.92680  0.22360  Biso   1.000  C
  C16      1.0000 0.23310  0.07320  0.77640  Biso   1.000  C
  H9       1.0000 0.84210  0.90690  0.24180  Biso   1.000  H
  H10      1.0000 0.15790  0.09310  0.75820  Biso   1.000  H
  C17      1.0000 0.72210  0.86510  0.19260  Biso   1.000  C
  C18      1.0000 0.27790  0.13490  0.80740  Biso   1.000  C
  H11      1.0000 0.76710  0.80140  0.19290  Biso   1.000  H
  H12      1.0000 0.23290  0.19860  0.80710  Biso   1.000  H
  C19      1.0000 0.61140  0.89540  0.16090  Biso   1.000  C
  C20      1.0000 0.38860  0.10460  0.83910  Biso   1.000  C
  H13      1.0000 0.58420  0.85380  0.13700  Biso   1.000  H
  H14      1.0000 0.41580  0.14620  0.86300  Biso   1.000  H
  C21      1.0000 0.54230  0.98700  0.16500  Biso   1.000  C
  C22      1.0000 0.45770  0.01300  0.83500  Biso   1.000  C
  H15      1.0000 0.46720  0.00730  0.14650  Biso   1.000  H
  H16      1.0000 0.53280  0.99270  0.85350  Biso   1.000  H
  C23      1.0000 0.58690  0.04770  0.19710  Biso   1.000  C
  C24      1.0000 0.41310  0.95230  0.80290  Biso   1.000  C
  C25      1.0000 0.82510  0.13520  0.58390  Biso   1.000  C
  C26      1.0000 0.17490  0.86480  0.41610  Biso   1.000  C
  C27      1.0000 0.85810  0.16210  0.65800  Biso   1.000  C
  C28      1.0000 0.14190  0.83790  0.34200  Biso   1.000  C
  H17      1.0000 0.92590  0.17690  0.65810  Biso   1.000  H
  H18      1.0000 0.07410  0.82310  0.34190  Biso   1.000  H
  C29      1.0000 0.78550  0.16540  0.72980  Biso   1.000  C
  C30      1.0000 0.21450  0.83460  0.27020  Biso   1.000  C
  H19      1.0000 0.80290  0.18480  0.78030  Biso   1.000  H
  H20      1.0000 0.19710  0.81520  0.21970  Biso   1.000  H
  C31      1.0000 0.68390  0.14030  0.73090  Biso   1.000  C
  C32      1.0000 0.31610  0.85970  0.26910  Biso   1.000  C
  H21      1.0000 0.63500  0.14630  0.78060  Biso   1.000  H
  H22      1.0000 0.36500  0.85370  0.21940  Biso   1.000  H
  C33      1.0000 0.65590  0.10810  0.66200  Biso   1.000  C
  C34      1.0000 0.34410  0.89190  0.33800  Biso   1.000  C
  H23      1.0000 0.59170  0.08700  0.66450  Biso   1.000  H
  H24      1.0000 0.40830  0.91300  0.33550  Biso   1.000  H
  C35      1.0000 0.72930  0.10840  0.58660  Biso   1.000  C
  C36      1.0000 0.27070  0.89160  0.41340  Biso   1.000  C
  C37      1.0000 0.08610  0.47410  0.11590  Biso   1.000  C
  C38      1.0000 0.91390  0.52590  0.88410  Biso   1.000  C
  C39      1.0000 0.98950  0.49110  0.16310  Biso   1.000  C
  C40      1.0000 0.01050  0.50890  0.83690  Biso   1.000  C
  H25      1.0000 0.97450  0.44340  0.21640  Biso   1.000  H
  H26      1.0000 0.02550  0.55660  0.78360  Biso   1.000  H
  C41      1.0000 0.91650  0.58180  0.12760  Biso   1.000  C
  C42      1.0000 0.08350  0.41820  0.87240  Biso   1.000  C
  H27      1.0000 0.84950  0.59800  0.15900  Biso   1.000  H
  H28      1.0000 0.15050  0.40200  0.84100  Biso   1.000  H
  C43      1.0000 0.93520  0.65180  0.04790  Biso   1.000  C
  C44      1.0000 0.06480  0.34820  0.95210  Biso   1.000  C
  H29      1.0000 0.88090  0.71320  0.02640  Biso   1.000  H
  H30      1.0000 0.11910  0.28680  0.97360  Biso   1.000  H
  C45      1.0000 0.03210  0.63310  0.99950  Biso   1.000  C
  C46      1.0000 0.96790  0.36690  0.00050  Biso   1.000  C
  H31      1.0000 0.04600  0.68090  0.94580  Biso   1.000  H
  H32      1.0000 0.95400  0.31910  0.05420  Biso   1.000  H
  C47      1.0000 0.11130  0.53700  0.03450  Biso   1.000  C
  C48      1.0000 0.88870  0.46300  0.96550  Biso   1.000  C
  C49      1.0000 0.36140  0.54940  0.14640  Biso   1.000  C
  C50      1.0000 0.63860  0.45060  0.85360  Biso   1.000  C
  C51      1.0000 0.45270  0.56470  0.09620  Biso   1.000  C
  C52      1.0000 0.54730  0.43530  0.90380  Biso   1.000  C
  C53      1.0000 0.44240  0.65930  0.02620  Biso   1.000  C
  C54      1.0000 0.55760  0.34070  0.97380  Biso   1.000  C
  H33      1.0000 0.50310  0.67330  0.99020  Biso   1.000  H
  H34      1.0000 0.49690  0.32670  0.00980  Biso   1.000  H
  C55      1.0000 0.34110  0.72690  0.01500  Biso   1.000  C
  C56      1.0000 0.65890  0.27310  0.98500  Biso   1.000  C
  H35      1.0000 0.33190  0.78760  0.96770  Biso   1.000  H
  H36      1.0000 0.66810  0.21240  0.03230  Biso   1.000  H
  C57      1.0000 0.25050  0.71220  0.06860  Biso   1.000  C
  C58      1.0000 0.74950  0.28780  0.93140  Biso   1.000  C
  H37      1.0000 0.18340  0.76340  0.05990  Biso   1.000  H
  H38      1.0000 0.81660  0.23660  0.94010  Biso   1.000  H
  C59      1.0000 0.25910  0.62170  0.13510  Biso   1.000  C
  C60      1.0000 0.74090  0.37830  0.86490  Biso   1.000  C
  H39      1.0000 0.19810  0.60930  0.17150  Biso   1.000  H
  H40      1.0000 0.80190  0.39070  0.82850  Biso   1.000  H
  C61      1.0000 0.58190  0.36140  0.52290  Biso   1.000  C
  C62      1.0000 0.41810  0.63860  0.47710  Biso   1.000  C
  C63      1.0000 0.59760  0.40330  0.59180  Biso   1.000  C
  C64      1.0000 0.40240  0.59670  0.40820  Biso   1.000  C
  H41      1.0000 0.65770  0.42960  0.59060  Biso   1.000  H
  H42      1.0000 0.34230  0.57040  0.40940  Biso   1.000  H
  C65      1.0000 0.52350  0.40400  0.65860  Biso   1.000  C
  C66      1.0000 0.47650  0.59600  0.34140  Biso   1.000  C
  H43      1.0000 0.53150  0.43410  0.70430  Biso   1.000  H
  H44      1.0000 0.46850  0.56590  0.29570  Biso   1.000  H
  C67      1.0000 0.43180  0.36270  0.66730  Biso   1.000  C
  C68      1.0000 0.56820  0.63730  0.33270  Biso   1.000  C
  H45      1.0000 0.38360  0.36400  0.71800  Biso   1.000  H
  H46      1.0000 0.61640  0.63600  0.28200  Biso   1.000  H
  C69      1.0000 0.41620  0.32210  0.60120  Biso   1.000  C
  C70      1.0000 0.58380  0.67790  0.39880  Biso   1.000  C
  H47      1.0000 0.35720  0.29400  0.60420  Biso   1.000  H
  H48      1.0000 0.64280  0.70600  0.39580  Biso   1.000  H
  C71      1.0000 0.49020  0.32340  0.52920  Biso   1.000  C
  C72      1.0000 0.50980  0.67660  0.47080  Biso   1.000  C
  C73      1.0000 0.95120  0.47160  0.39340  Biso   1.000  C
  C74      1.0000 0.04880  0.52840  0.60660  Biso   1.000  C
  C75      1.0000 0.89050  0.57250  0.37890  Biso   1.000  C
  C76      1.0000 0.10950  0.42750  0.62110  Biso   1.000  C
  H49      1.0000 0.81250  0.59180  0.38000  Biso   1.000  H
  H50      1.0000 0.18750  0.40820  0.62000  Biso   1.000  H
  C77      1.0000 0.94820  0.63980  0.36330  Biso   1.000  C
  C78      1.0000 0.05180  0.36020  0.63670  Biso   1.000  C
  H51      1.0000 0.90970  0.70730  0.35420  Biso   1.000  H
  H52      1.0000 0.09030  0.29270  0.64580  Biso   1.000  H
  C79      1.0000 0.06290  0.61180  0.36060  Biso   1.000  C
  C80      1.0000 0.93710  0.38820  0.63940  Biso   1.000  C
  H53      1.0000 0.09920  0.66200  0.34650  Biso   1.000  H
  H54      1.0000 0.90080  0.33800  0.65350  Biso   1.000  H
  C81      1.0000 0.12540  0.51660  0.37690  Biso   1.000  C
  C82      1.0000 0.87460  0.48340  0.62310  Biso   1.000  C
  H55      1.0000 0.20340  0.49870  0.37810  Biso   1.000  H
  H56      1.0000 0.79660  0.50130  0.62190  Biso   1.000  H
  C83      1.0000 0.06710  0.44740  0.39160  Biso   1.000  C
  C84      1.0000 0.93290  0.55260  0.60840  Biso   1.000  C
  Cu1      1.0000 0.60746  0.29011  0.27192  Biso   1.000  Cu
  Cu2      1.0000 0.39254  0.70989  0.72808  Biso   1.000  Cu
  Cu3      1.0000 0.77997  0.36468  0.40349  Biso   1.000  Cu
  Cu4      1.0000 0.22003  0.63532  0.59651  Biso   1.000  Cu
  Cu5      1.0000 0.84210  0.10084  0.31888  Biso   1.000  Cu
  Cu6      1.0000 0.15790  0.89916  0.68112  Biso   1.000  Cu
  Cu7      1.0000 0.69390  0.45961  0.09113  Biso   1.000  Cu
  Cu8      1.0000 0.30610  0.54039  0.90887  Biso   1.000  Cu
  Cu9      1.0000 0.01409  0.16472  0.44594  Biso   1.000  Cu
  Cu10     1.0000 0.98591  0.83528  0.55406  Biso   1.000  Cu
  Dy1      1.0000 0.33049  0.24248  0.31181  Biso   1.000  Dy
  Dy2      1.0000 0.66951  0.75752  0.68819  Biso   1.000  Dy
  N1       1.0000 0.15440  0.11780  0.28800  Biso   1.000  N
  N2       1.0000 0.84560  0.88220  0.71200  Biso   1.000  N
  N3       1.0000 0.06200  0.11520  0.33530  Biso   1.000  N
  N4       1.0000 0.93800  0.88480  0.66470  Biso   1.000  N
  N5       1.0000 0.99370  0.09760  0.28040  Biso   1.000  N
  N6       1.0000 0.00630  0.90240  0.71960  Biso   1.000  N
  N7       1.0000 0.71900  0.09010  0.25520  Biso   1.000  N
  N8       1.0000 0.28100  0.90990  0.74480  Biso   1.000  N
  N9       1.0000 0.62430  0.16490  0.24360  Biso   1.000  N
  N10      1.0000 0.37570  0.83510  0.75640  Biso   1.000  N
  N11      1.0000 0.54690  0.13930  0.21030  Biso   1.000  N
  N12      1.0000 0.45310  0.86070  0.78970  Biso   1.000  N
  N13      1.0000 0.87780  0.12790  0.50210  Biso   1.000  N
  N14      1.0000 0.12220  0.87210  0.49790  Biso   1.000  N
  N15      1.0000 0.81920  0.09290  0.45510  Biso   1.000  N
  N16      1.0000 0.18080  0.90710  0.54490  Biso   1.000  N
  N17      1.0000 0.73010  0.08250  0.50800  Biso   1.000  N
  N18      1.0000 0.26990  0.91750  0.49200  Biso   1.000  N
  N19      1.0000 0.17790  0.39240  0.13240  Biso   1.000  N
  N20      1.0000 0.82210  0.60760  0.86760  Biso   1.000  N
  N21      1.0000 0.25430  0.40520  0.06780  Biso   1.000  N
  N22      1.0000 0.74570  0.59480  0.93220  Biso   1.000  N
  N23      1.0000 0.21280  0.49400  0.00730  Biso   1.000  N
  N24      1.0000 0.78720  0.50600  0.99270  Biso   1.000  N
  N25      1.0000 0.39750  0.45520  0.20470  Biso   1.000  N
  N26      1.0000 0.60250  0.54480  0.79530  Biso   1.000  N
  N27      1.0000 0.50530  0.41790  0.19080  Biso   1.000  N
  N28      1.0000 0.49470  0.58210  0.80920  Biso   1.000  N
  N29      1.0000 0.53980  0.48580  0.12520  Biso   1.000  N
  N30      1.0000 0.46020  0.51420  0.87480  Biso   1.000  N
  N31      1.0000 0.50000  0.28920  0.45290  Biso   1.000  N
  N32      1.0000 0.50000  0.71080  0.54710  Biso   1.000  N
  N33      1.0000 0.58760  0.30330  0.40260  Biso   1.000  N
  N34      1.0000 0.41240  0.69670  0.59740  Biso   1.000  N
  N35      1.0000 0.63800  0.34920  0.44420  Biso   1.000  N
  N36      1.0000 0.36200  0.65080  0.55580  Biso   1.000  N
  N37      1.0000 0.92050  0.38700  0.40800  Biso   1.000  N
  N38      1.0000 0.07950  0.61300  0.59200  Biso   1.000  N
  N39      1.0000 0.01210  0.31110  0.41910  Biso   1.000  N
  N40      1.0000 0.98790  0.68890  0.58090  Biso   1.000  N
  N41      1.0000 0.09910  0.34720  0.40860  Biso   1.000  N
  N42      1.0000 0.90090  0.65280  0.59140  Biso   1.000  N
  O1       1.0000 0.24160  0.12480  0.32810  Biso   1.000  O
  O2       1.0000 0.75840  0.87520  0.67190  Biso   1.000  O
  O3       1.0000 0.44590  0.19850  0.19280  Biso   1.000  O
  O4       1.0000 0.55410  0.80150  0.80720  Biso   1.000  O
  O5       1.0000 0.65950  0.04530  0.47900  Biso   1.000  O
  O6       1.0000 0.34050  0.95470  0.52100  Biso   1.000  O
  O7       1.0000 0.19330  0.30930  0.20230  Biso   1.000  O
  O8       1.0000 0.80670  0.69070  0.79770  Biso   1.000  O
  O9       1.0000 0.34200  0.40540  0.26700  Biso   1.000  O
  O10      1.0000 0.65800  0.59460  0.73300  Biso   1.000  O
  O11      1.0000 0.43810  0.24070  0.43120  Biso   1.000  O
  O12      1.0000 0.56190  0.75930  0.56880  Biso   1.000  O
  O13      1.0000 0.20250  0.28850  0.42180  Biso   1.000  O
  O14      1.0000 0.79750  0.71150  0.57820  Biso   1.000  O
  O15      1.0000 0.15900  0.12000  0.55150  Biso   1.000  O
  O16      1.0000 0.84100  0.88000  0.44850  Biso   1.000  O
  O17      1.0000 0.44570  0.07760  0.39430  Biso   1.000  O
  O18      1.0000 0.55430  0.92240  0.60570  Biso   1.000  O
