data_image0
_cell_length_a       14.321
_cell_length_b       11.23
_cell_length_c       33.452
_cell_angle_alpha    90
_cell_angle_beta     90
_cell_angle_gamma    90

_symmetry_space_group_name_H-M    "P 1"
_symmetry_int_tables_number       1

loop_
  _symmetry_equiv_pos_as_xyz
  'x, y, z'

loop_
  _atom_site_label
  _atom_site_occupancy
  _atom_site_fract_x
  _atom_site_fract_y
  _atom_site_fract_z
  _atom_site_thermal_displace_type
  _atom_site_B_iso_or_equiv
  _atom_site_type_symbol
  Cu1      1.0000 0.49293  0.37053  0.16850  Biso   1.000  Cu
  Cu2      1.0000 0.00707  0.62947  0.66850  Biso   1.000  Cu
  Cu3      1.0000 0.99293  0.12947  0.83150  Biso   1.000  Cu
  Cu4      1.0000 0.50707  0.87053  0.33150  Biso   1.000  Cu
  Cu5      1.0000 0.50707  0.62947  0.83150  Biso   1.000  Cu
  Cu6      1.0000 0.99293  0.37053  0.33150  Biso   1.000  Cu
  Cu7      1.0000 0.00707  0.87053  0.16850  Biso   1.000  Cu
  Cu8      1.0000 0.49293  0.12947  0.66850  Biso   1.000  Cu
  I1       1.0000 0.35635  0.22899  0.18926  Biso   1.000  I
  I2       1.0000 0.14365  0.77101  0.68926  Biso   1.000  I
  I3       1.0000 0.85635  0.27101  0.81074  Biso   1.000  I
  I4       1.0000 0.64365  0.72899  0.31074  Biso   1.000  I
  I5       1.0000 0.64365  0.77101  0.81074  Biso   1.000  I
  I6       1.0000 0.85635  0.22899  0.31074  Biso   1.000  I
  I7       1.0000 0.14365  0.72899  0.18926  Biso   1.000  I
  I8       1.0000 0.35635  0.27101  0.68926  Biso   1.000  I
  S1       1.0000 0.50827  0.54145  0.20774  Biso   1.000  S
  S2       1.0000 0.99173  0.45855  0.70774  Biso   1.000  S
  S3       1.0000 0.00827  0.95855  0.79226  Biso   1.000  S
  S4       1.0000 0.49173  0.04145  0.29226  Biso   1.000  S
  S5       1.0000 0.49173  0.45855  0.79226  Biso   1.000  S
  S6       1.0000 0.00827  0.54145  0.29226  Biso   1.000  S
  S7       1.0000 0.99173  0.04145  0.20774  Biso   1.000  S
  S8       1.0000 0.50827  0.95855  0.70774  Biso   1.000  S
  S9       1.0000 0.35915  0.78593  0.32605  Biso   1.000  S
  S10      1.0000 0.14085  0.21407  0.82605  Biso   1.000  S
  S11      1.0000 0.85915  0.71407  0.67395  Biso   1.000  S
  S12      1.0000 0.64085  0.28593  0.17395  Biso   1.000  S
  S13      1.0000 0.64085  0.21407  0.67395  Biso   1.000  S
  S14      1.0000 0.85915  0.78593  0.17395  Biso   1.000  S
  S15      1.0000 0.14085  0.28593  0.32605  Biso   1.000  S
  S16      1.0000 0.35915  0.71407  0.82605  Biso   1.000  S
  P1       1.0000 0.49099  0.42028  0.10297  Biso   1.000  P
  P2       1.0000 0.00901  0.57972  0.60297  Biso   1.000  P
  P3       1.0000 0.99099  0.07972  0.89703  Biso   1.000  P
  P4       1.0000 0.50901  0.92028  0.39703  Biso   1.000  P
  P5       1.0000 0.50901  0.57972  0.89703  Biso   1.000  P
  P6       1.0000 0.99099  0.42028  0.39703  Biso   1.000  P
  P7       1.0000 0.00901  0.92028  0.10297  Biso   1.000  P
  P8       1.0000 0.49099  0.07972  0.60297  Biso   1.000  P
  N1       1.0000 0.42100  0.64400  0.26849  Biso   1.000  N
  N2       1.0000 0.07900  0.35600  0.76849  Biso   1.000  N
  N3       1.0000 0.92100  0.85600  0.73151  Biso   1.000  N
  N4       1.0000 0.57900  0.14400  0.23151  Biso   1.000  N
  N5       1.0000 0.57900  0.35600  0.73151  Biso   1.000  N
  N6       1.0000 0.92100  0.64400  0.23151  Biso   1.000  N
  N7       1.0000 0.07900  0.14400  0.26849  Biso   1.000  N
  N8       1.0000 0.42100  0.85600  0.76849  Biso   1.000  N
  H1       1.0000 0.47480  0.68000  0.27240  Biso   1.000  H
  H2       1.0000 0.02520  0.32000  0.77240  Biso   1.000  H
  H3       1.0000 0.97480  0.82000  0.72760  Biso   1.000  H
  H4       1.0000 0.52520  0.18000  0.22760  Biso   1.000  H
  H5       1.0000 0.52520  0.32000  0.72760  Biso   1.000  H
  H6       1.0000 0.97480  0.68000  0.22760  Biso   1.000  H
  H7       1.0000 0.02520  0.18000  0.27240  Biso   1.000  H
  H8       1.0000 0.47480  0.82000  0.77240  Biso   1.000  H
  N9       1.0000 0.33760  0.49980  0.23657  Biso   1.000  N
  N10      1.0000 0.16240  0.50020  0.73657  Biso   1.000  N
  N11      1.0000 0.83760  0.00020  0.76343  Biso   1.000  N
  N12      1.0000 0.66240  0.99980  0.26343  Biso   1.000  N
  N13      1.0000 0.66240  0.50020  0.76343  Biso   1.000  N
  N14      1.0000 0.83760  0.49980  0.26343  Biso   1.000  N
  N15      1.0000 0.16240  0.99980  0.23657  Biso   1.000  N
  N16      1.0000 0.33760  0.00020  0.73657  Biso   1.000  N
  H9       1.0000 0.33290  0.44270  0.21870  Biso   1.000  H
  H10      1.0000 0.16710  0.55730  0.71870  Biso   1.000  H
  H11      1.0000 0.83290  0.05730  0.78130  Biso   1.000  H
  H12      1.0000 0.66710  0.94270  0.28130  Biso   1.000  H
  H13      1.0000 0.66710  0.55730  0.78130  Biso   1.000  H
  H14      1.0000 0.83290  0.44270  0.28130  Biso   1.000  H
  H15      1.0000 0.16710  0.94270  0.21870  Biso   1.000  H
  H16      1.0000 0.33290  0.05730  0.71870  Biso   1.000  H
  C1       1.0000 0.41810  0.56170  0.23863  Biso   1.000  C
  C2       1.0000 0.08190  0.43830  0.73863  Biso   1.000  C
  C3       1.0000 0.91810  0.93830  0.76137  Biso   1.000  C
  C4       1.0000 0.58190  0.06170  0.26137  Biso   1.000  C
  C5       1.0000 0.58190  0.43830  0.76137  Biso   1.000  C
  C6       1.0000 0.91810  0.56170  0.26137  Biso   1.000  C
  C7       1.0000 0.08190  0.06170  0.23863  Biso   1.000  C
  C8       1.0000 0.41810  0.93830  0.73863  Biso   1.000  C
  C9       1.0000 0.34930  0.67640  0.29310  Biso   1.000  C
  C10      1.0000 0.15070  0.32360  0.79310  Biso   1.000  C
  C11      1.0000 0.84930  0.82360  0.70690  Biso   1.000  C
  C12      1.0000 0.65070  0.17640  0.20690  Biso   1.000  C
  C13      1.0000 0.65070  0.32360  0.70690  Biso   1.000  C
  C14      1.0000 0.84930  0.67640  0.20690  Biso   1.000  C
  C15      1.0000 0.15070  0.17640  0.29310  Biso   1.000  C
  C16      1.0000 0.34930  0.82360  0.79310  Biso   1.000  C
  C17      1.0000 0.26600  0.60730  0.28873  Biso   1.000  C
  C18      1.0000 0.23400  0.39270  0.78873  Biso   1.000  C
  C19      1.0000 0.76600  0.89270  0.71127  Biso   1.000  C
  C20      1.0000 0.73400  0.10730  0.21127  Biso   1.000  C
  C21      1.0000 0.73400  0.39270  0.71127  Biso   1.000  C
  C22      1.0000 0.76600  0.60730  0.21127  Biso   1.000  C
  C23      1.0000 0.23400  0.10730  0.28873  Biso   1.000  C
  C24      1.0000 0.26600  0.89270  0.78873  Biso   1.000  C
  H17      1.0000 0.21350  0.62200  0.30540  Biso   1.000  H
  H18      1.0000 0.28650  0.37800  0.80540  Biso   1.000  H
  H19      1.0000 0.71350  0.87800  0.69460  Biso   1.000  H
  H20      1.0000 0.78650  0.12200  0.19460  Biso   1.000  H
  H21      1.0000 0.78650  0.37800  0.69460  Biso   1.000  H
  H22      1.0000 0.71350  0.62200  0.19460  Biso   1.000  H
  H23      1.0000 0.28650  0.12200  0.30540  Biso   1.000  H
  H24      1.0000 0.21350  0.87800  0.80540  Biso   1.000  H
  C25      1.0000 0.26300  0.52160  0.26100  Biso   1.000  C
  C26      1.0000 0.23700  0.47840  0.76100  Biso   1.000  C
  C27      1.0000 0.76300  0.97840  0.73900  Biso   1.000  C
  C28      1.0000 0.73700  0.02160  0.23900  Biso   1.000  C
  C29      1.0000 0.73700  0.47840  0.73900  Biso   1.000  C
  C30      1.0000 0.76300  0.52160  0.23900  Biso   1.000  C
  C31      1.0000 0.23700  0.02160  0.26100  Biso   1.000  C
  C32      1.0000 0.26300  0.97840  0.76100  Biso   1.000  C
  H25      1.0000 0.20800  0.47500  0.25820  Biso   1.000  H
  H26      1.0000 0.29200  0.52500  0.75820  Biso   1.000  H
  H27      1.0000 0.70800  0.02500  0.74180  Biso   1.000  H
  H28      1.0000 0.79200  0.97500  0.24180  Biso   1.000  H
  H29      1.0000 0.79200  0.52500  0.74180  Biso   1.000  H
  H30      1.0000 0.70800  0.47500  0.24180  Biso   1.000  H
  H31      1.0000 0.29200  0.97500  0.25820  Biso   1.000  H
  H32      1.0000 0.20800  0.02500  0.75820  Biso   1.000  H
  C33      1.0000 0.38190  0.47260  0.08125  Biso   1.000  C
  C34      1.0000 0.11810  0.52740  0.58125  Biso   1.000  C
  C35      1.0000 0.88190  0.02740  0.91875  Biso   1.000  C
  C36      1.0000 0.61810  0.97260  0.41875  Biso   1.000  C
  C37      1.0000 0.61810  0.52740  0.91875  Biso   1.000  C
  C38      1.0000 0.88190  0.47260  0.41875  Biso   1.000  C
  C39      1.0000 0.11810  0.97260  0.08125  Biso   1.000  C
  C40      1.0000 0.38190  0.02740  0.58125  Biso   1.000  C
  C41      1.0000 0.32900  0.55420  0.10274  Biso   1.000  C
  C42      1.0000 0.17100  0.44580  0.60274  Biso   1.000  C
  C43      1.0000 0.82900  0.94580  0.89726  Biso   1.000  C
  C44      1.0000 0.67100  0.05420  0.39726  Biso   1.000  C
  C45      1.0000 0.67100  0.44580  0.89726  Biso   1.000  C
  C46      1.0000 0.82900  0.55420  0.39726  Biso   1.000  C
  C47      1.0000 0.17100  0.05420  0.10274  Biso   1.000  C
  C48      1.0000 0.32900  0.94580  0.60274  Biso   1.000  C
  H33      1.0000 0.34590  0.57310  0.12880  Biso   1.000  H
  H34      1.0000 0.15410  0.42690  0.62880  Biso   1.000  H
  H35      1.0000 0.84590  0.92690  0.87120  Biso   1.000  H
  H36      1.0000 0.65410  0.07310  0.37120  Biso   1.000  H
  H37      1.0000 0.65410  0.42690  0.87120  Biso   1.000  H
  H38      1.0000 0.84590  0.57310  0.37120  Biso   1.000  H
  H39      1.0000 0.15410  0.07310  0.12880  Biso   1.000  H
  H40      1.0000 0.34590  0.92690  0.62880  Biso   1.000  H
  C49      1.0000 0.25180  0.60820  0.08571  Biso   1.000  C
  C50      1.0000 0.24820  0.39180  0.58571  Biso   1.000  C
  C51      1.0000 0.75180  0.89180  0.91429  Biso   1.000  C
  C52      1.0000 0.74820  0.10820  0.41429  Biso   1.000  C
  C53      1.0000 0.74820  0.39180  0.91429  Biso   1.000  C
  C54      1.0000 0.75180  0.60820  0.41429  Biso   1.000  C
  C55      1.0000 0.24820  0.10820  0.08571  Biso   1.000  C
  C56      1.0000 0.25180  0.89180  0.58571  Biso   1.000  C
  H41      1.0000 0.21680  0.66240  0.10040  Biso   1.000  H
  H42      1.0000 0.28320  0.33760  0.60040  Biso   1.000  H
  H43      1.0000 0.71680  0.83760  0.89960  Biso   1.000  H
  H44      1.0000 0.78320  0.16240  0.39960  Biso   1.000  H
  H45      1.0000 0.78320  0.33760  0.89960  Biso   1.000  H
  H46      1.0000 0.71680  0.66240  0.39960  Biso   1.000  H
  H47      1.0000 0.28320  0.16240  0.10040  Biso   1.000  H
  H48      1.0000 0.21680  0.83760  0.60040  Biso   1.000  H
  C57      1.0000 0.22630  0.58090  0.04690  Biso   1.000  C
  C58      1.0000 0.27370  0.41910  0.54690  Biso   1.000  C
  C59      1.0000 0.72630  0.91910  0.95310  Biso   1.000  C
  C60      1.0000 0.77370  0.08090  0.45310  Biso   1.000  C
  C61      1.0000 0.77370  0.41910  0.95310  Biso   1.000  C
  C62      1.0000 0.72630  0.58090  0.45310  Biso   1.000  C
  C63      1.0000 0.27370  0.08090  0.04690  Biso   1.000  C
  C64      1.0000 0.22630  0.91910  0.54690  Biso   1.000  C
  H49      1.0000 0.17540  0.61880  0.03530  Biso   1.000  H
  H50      1.0000 0.32460  0.38120  0.53530  Biso   1.000  H
  H51      1.0000 0.67540  0.88120  0.96470  Biso   1.000  H
  H52      1.0000 0.82460  0.11880  0.46470  Biso   1.000  H
  H53      1.0000 0.82460  0.38120  0.96470  Biso   1.000  H
  H54      1.0000 0.67540  0.61880  0.46470  Biso   1.000  H
  H55      1.0000 0.32460  0.11880  0.03530  Biso   1.000  H
  H56      1.0000 0.17540  0.88120  0.53530  Biso   1.000  H
  C65      1.0000 0.27660  0.49750  0.02561  Biso   1.000  C
  C66      1.0000 0.22340  0.50250  0.52561  Biso   1.000  C
  C67      1.0000 0.77660  0.00250  0.97439  Biso   1.000  C
  C68      1.0000 0.72340  0.99750  0.47439  Biso   1.000  C
  C69      1.0000 0.72340  0.50250  0.97439  Biso   1.000  C
  C70      1.0000 0.77660  0.49750  0.47439  Biso   1.000  C
  C71      1.0000 0.22340  0.99750  0.02561  Biso   1.000  C
  C72      1.0000 0.27660  0.00250  0.52561  Biso   1.000  C
  H57      1.0000 0.25850  0.47800  0.99970  Biso   1.000  H
  H58      1.0000 0.24150  0.52200  0.49970  Biso   1.000  H
  H59      1.0000 0.75850  0.02200  0.00030  Biso   1.000  H
  H60      1.0000 0.74150  0.97800  0.50030  Biso   1.000  H
  H61      1.0000 0.74150  0.52200  0.00030  Biso   1.000  H
  H62      1.0000 0.75850  0.47800  0.50030  Biso   1.000  H
  H63      1.0000 0.24150  0.97800  0.99970  Biso   1.000  H
  H64      1.0000 0.25850  0.02200  0.49970  Biso   1.000  H
  C73      1.0000 0.35420  0.44330  0.04261  Biso   1.000  C
  C74      1.0000 0.14580  0.55670  0.54261  Biso   1.000  C
  C75      1.0000 0.85420  0.05670  0.95739  Biso   1.000  C
  C76      1.0000 0.64580  0.94330  0.45739  Biso   1.000  C
  C77      1.0000 0.64580  0.55670  0.95739  Biso   1.000  C
  C78      1.0000 0.85420  0.44330  0.45739  Biso   1.000  C
  C79      1.0000 0.14580  0.94330  0.04261  Biso   1.000  C
  C80      1.0000 0.35420  0.05670  0.54261  Biso   1.000  C
  H65      1.0000 0.38760  0.38690  0.02820  Biso   1.000  H
  H66      1.0000 0.11240  0.61310  0.52820  Biso   1.000  H
  H67      1.0000 0.88760  0.11310  0.97180  Biso   1.000  H
  H68      1.0000 0.61240  0.88690  0.47180  Biso   1.000  H
  H69      1.0000 0.61240  0.61310  0.97180  Biso   1.000  H
  H70      1.0000 0.88760  0.38690  0.47180  Biso   1.000  H
  H71      1.0000 0.11240  0.88690  0.02820  Biso   1.000  H
  H72      1.0000 0.38760  0.11310  0.52820  Biso   1.000  H
  C81      1.0000 0.52690  0.29810  0.07032  Biso   1.000  C
  C82      1.0000 0.97310  0.70190  0.57032  Biso   1.000  C
  C83      1.0000 0.02690  0.20190  0.92968  Biso   1.000  C
  C84      1.0000 0.47310  0.79810  0.42968  Biso   1.000  C
  C85      1.0000 0.47310  0.70190  0.92968  Biso   1.000  C
  C86      1.0000 0.02690  0.29810  0.42968  Biso   1.000  C
  C87      1.0000 0.97310  0.79810  0.07032  Biso   1.000  C
  C88      1.0000 0.52690  0.20190  0.57032  Biso   1.000  C
  C89      1.0000 0.57100  0.31690  0.03394  Biso   1.000  C
  C90      1.0000 0.92900  0.68310  0.53394  Biso   1.000  C
  C91      1.0000 0.07100  0.18310  0.96606  Biso   1.000  C
  C92      1.0000 0.42900  0.81690  0.46606  Biso   1.000  C
  C93      1.0000 0.42900  0.68310  0.96606  Biso   1.000  C
  C94      1.0000 0.07100  0.31690  0.46606  Biso   1.000  C
  C95      1.0000 0.92900  0.81690  0.03394  Biso   1.000  C
  C96      1.0000 0.57100  0.18310  0.53394  Biso   1.000  C
  H73      1.0000 0.58450  0.39420  0.02590  Biso   1.000  H
  H74      1.0000 0.91550  0.60580  0.52590  Biso   1.000  H
  H75      1.0000 0.08450  0.10580  0.97410  Biso   1.000  H
  H76      1.0000 0.41550  0.89420  0.47410  Biso   1.000  H
  H77      1.0000 0.41550  0.60580  0.97410  Biso   1.000  H
  H78      1.0000 0.08450  0.39420  0.47410  Biso   1.000  H
  H79      1.0000 0.91550  0.89420  0.02590  Biso   1.000  H
  H80      1.0000 0.58450  0.10580  0.52590  Biso   1.000  H
  C97      1.0000 0.59510  0.22200  0.00933  Biso   1.000  C
  C98      1.0000 0.90490  0.77800  0.50933  Biso   1.000  C
  C99      1.0000 0.09510  0.27800  0.99067  Biso   1.000  C
  C100     1.0000 0.40490  0.72200  0.49067  Biso   1.000  C
  C101     1.0000 0.40490  0.77800  0.99067  Biso   1.000  C
  C102     1.0000 0.09510  0.22200  0.49067  Biso   1.000  C
  C103     1.0000 0.90490  0.72200  0.00933  Biso   1.000  C
  C104     1.0000 0.59510  0.27800  0.50933  Biso   1.000  C
  H81      1.0000 0.62580  0.23530  0.98520  Biso   1.000  H
  H82      1.0000 0.87420  0.76470  0.48520  Biso   1.000  H
  H83      1.0000 0.12580  0.26470  0.01480  Biso   1.000  H
  H84      1.0000 0.37420  0.73530  0.51480  Biso   1.000  H
  H85      1.0000 0.37420  0.76470  0.01480  Biso   1.000  H
  H86      1.0000 0.12580  0.23530  0.51480  Biso   1.000  H
  H87      1.0000 0.87420  0.73530  0.98520  Biso   1.000  H
  H88      1.0000 0.62580  0.26470  0.48520  Biso   1.000  H
  C105     1.0000 0.57260  0.10770  0.02130  Biso   1.000  C
  C106     1.0000 0.92740  0.89230  0.52130  Biso   1.000  C
  C107     1.0000 0.07260  0.39230  0.97870  Biso   1.000  C
  C108     1.0000 0.42740  0.60770  0.47870  Biso   1.000  C
  C109     1.0000 0.42740  0.89230  0.97870  Biso   1.000  C
  C110     1.0000 0.07260  0.10770  0.47870  Biso   1.000  C
  C111     1.0000 0.92740  0.60770  0.02130  Biso   1.000  C
  C112     1.0000 0.57260  0.39230  0.52130  Biso   1.000  C
  H89      1.0000 0.58770  0.04370  0.00490  Biso   1.000  H
  H90      1.0000 0.91230  0.95630  0.50490  Biso   1.000  H
  H91      1.0000 0.08770  0.45630  0.99510  Biso   1.000  H
  H92      1.0000 0.41230  0.54370  0.49510  Biso   1.000  H
  H93      1.0000 0.41230  0.95630  0.99510  Biso   1.000  H
  H94      1.0000 0.08770  0.04370  0.49510  Biso   1.000  H
  H95      1.0000 0.91230  0.54370  0.00490  Biso   1.000  H
  H96      1.0000 0.58770  0.45630  0.50490  Biso   1.000  H
  C113     1.0000 0.52780  0.08710  0.05750  Biso   1.000  C
  C114     1.0000 0.97220  0.91290  0.55750  Biso   1.000  C
  C115     1.0000 0.02780  0.41290  0.94250  Biso   1.000  C
  C116     1.0000 0.47220  0.58710  0.44250  Biso   1.000  C
  C117     1.0000 0.47220  0.91290  0.94250  Biso   1.000  C
  C118     1.0000 0.02780  0.08710  0.44250  Biso   1.000  C
  C119     1.0000 0.97220  0.58710  0.05750  Biso   1.000  C
  C120     1.0000 0.52780  0.41290  0.55750  Biso   1.000  C
  H97      1.0000 0.51260  0.01000  0.06520  Biso   1.000  H
  H98      1.0000 0.98740  0.99000  0.56520  Biso   1.000  H
  H99      1.0000 0.01260  0.49000  0.93480  Biso   1.000  H
  H100     1.0000 0.48740  0.51000  0.43480  Biso   1.000  H
  H101     1.0000 0.48740  0.99000  0.93480  Biso   1.000  H
  H102     1.0000 0.01260  0.01000  0.43480  Biso   1.000  H
  H103     1.0000 0.98740  0.51000  0.06520  Biso   1.000  H
  H104     1.0000 0.51260  0.49000  0.56520  Biso   1.000  H
  C121     1.0000 0.50650  0.18210  0.08196  Biso   1.000  C
  C122     1.0000 0.99350  0.81790  0.58196  Biso   1.000  C
  C123     1.0000 0.00650  0.31790  0.91804  Biso   1.000  C
  C124     1.0000 0.49350  0.68210  0.41804  Biso   1.000  C
  C125     1.0000 0.49350  0.81790  0.91804  Biso   1.000  C
  C126     1.0000 0.00650  0.18210  0.41804  Biso   1.000  C
  C127     1.0000 0.99350  0.68210  0.08196  Biso   1.000  C
  C128     1.0000 0.50650  0.31790  0.58196  Biso   1.000  C
  H105     1.0000 0.47810  0.16850  0.10660  Biso   1.000  H
  H106     1.0000 0.02190  0.83150  0.60660  Biso   1.000  H
  H107     1.0000 0.97810  0.33150  0.89340  Biso   1.000  H
  H108     1.0000 0.52190  0.66850  0.39340  Biso   1.000  H
  H109     1.0000 0.52190  0.83150  0.89340  Biso   1.000  H
  H110     1.0000 0.97810  0.16850  0.39340  Biso   1.000  H
  H111     1.0000 0.02190  0.66850  0.10660  Biso   1.000  H
  H112     1.0000 0.47810  0.33150  0.60660  Biso   1.000  H
  C129     1.0000 0.57130  0.54070  0.08930  Biso   1.000  C
  C130     1.0000 0.92870  0.45930  0.58930  Biso   1.000  C
  C131     1.0000 0.07130  0.95930  0.91070  Biso   1.000  C
  C132     1.0000 0.42870  0.04070  0.41070  Biso   1.000  C
  C133     1.0000 0.42870  0.45930  0.91070  Biso   1.000  C
  C134     1.0000 0.07130  0.54070  0.41070  Biso   1.000  C
  C135     1.0000 0.92870  0.04070  0.08930  Biso   1.000  C
  C136     1.0000 0.57130  0.95930  0.58930  Biso   1.000  C
  C137     1.0000 0.54650  0.63620  0.06609  Biso   1.000  C
  C138     1.0000 0.95350  0.36380  0.56609  Biso   1.000  C
  C139     1.0000 0.04650  0.86380  0.93391  Biso   1.000  C
  C140     1.0000 0.45350  0.13620  0.43391  Biso   1.000  C
  C141     1.0000 0.45350  0.36380  0.93391  Biso   1.000  C
  C142     1.0000 0.04650  0.63620  0.43391  Biso   1.000  C
  C143     1.0000 0.95350  0.13620  0.06609  Biso   1.000  C
  C144     1.0000 0.54650  0.86380  0.56609  Biso   1.000  C
  H113     1.0000 0.48600  0.64210  0.05610  Biso   1.000  H
  H114     1.0000 0.01400  0.35790  0.55610  Biso   1.000  H
  H115     1.0000 0.98600  0.85790  0.94390  Biso   1.000  H
  H116     1.0000 0.51400  0.14210  0.44390  Biso   1.000  H
  H117     1.0000 0.51400  0.35790  0.94390  Biso   1.000  H
  H118     1.0000 0.98600  0.64210  0.44390  Biso   1.000  H
  H119     1.0000 0.01400  0.14210  0.05610  Biso   1.000  H
  H120     1.0000 0.48600  0.85790  0.55610  Biso   1.000  H
  C145     1.0000 0.61280  0.72490  0.05750  Biso   1.000  C
  C146     1.0000 0.88720  0.27510  0.55750  Biso   1.000  C
  C147     1.0000 0.11280  0.77510  0.94250  Biso   1.000  C
  C148     1.0000 0.38720  0.22490  0.44250  Biso   1.000  C
  C149     1.0000 0.38720  0.27510  0.94250  Biso   1.000  C
  C150     1.0000 0.11280  0.72490  0.44250  Biso   1.000  C
  C151     1.0000 0.88720  0.22490  0.05750  Biso   1.000  C
  C152     1.0000 0.61280  0.77510  0.55750  Biso   1.000  C
  H121     1.0000 0.59510  0.79020  0.04220  Biso   1.000  H
  H122     1.0000 0.90490  0.20980  0.54220  Biso   1.000  H
  H123     1.0000 0.09510  0.70980  0.95780  Biso   1.000  H
  H124     1.0000 0.40490  0.29020  0.45780  Biso   1.000  H
  H125     1.0000 0.40490  0.20980  0.95780  Biso   1.000  H
  H126     1.0000 0.09510  0.79020  0.45780  Biso   1.000  H
  H127     1.0000 0.90490  0.29020  0.04220  Biso   1.000  H
  H128     1.0000 0.59510  0.70980  0.54220  Biso   1.000  H
  C153     1.0000 0.70160  0.71730  0.07110  Biso   1.000  C
  C154     1.0000 0.79840  0.28270  0.57110  Biso   1.000  C
  C155     1.0000 0.20160  0.78270  0.92890  Biso   1.000  C
  C156     1.0000 0.29840  0.21730  0.42890  Biso   1.000  C
  C157     1.0000 0.29840  0.28270  0.92890  Biso   1.000  C
  C158     1.0000 0.20160  0.71730  0.42890  Biso   1.000  C
  C159     1.0000 0.79840  0.21730  0.07110  Biso   1.000  C
  C160     1.0000 0.70160  0.78270  0.57110  Biso   1.000  C
  H129     1.0000 0.74480  0.77650  0.06520  Biso   1.000  H
  H130     1.0000 0.75520  0.22350  0.56520  Biso   1.000  H
  H131     1.0000 0.24480  0.72350  0.93480  Biso   1.000  H
  H132     1.0000 0.25520  0.27650  0.43480  Biso   1.000  H
  H133     1.0000 0.25520  0.22350  0.93480  Biso   1.000  H
  H134     1.0000 0.24480  0.77650  0.43480  Biso   1.000  H
  H135     1.0000 0.75520  0.27650  0.06520  Biso   1.000  H
  H136     1.0000 0.74480  0.72350  0.56520  Biso   1.000  H
  C161     1.0000 0.72740  0.62050  0.09410  Biso   1.000  C
  C162     1.0000 0.77260  0.37950  0.59410  Biso   1.000  C
  C163     1.0000 0.22740  0.87950  0.90590  Biso   1.000  C
  C164     1.0000 0.27260  0.12050  0.40590  Biso   1.000  C
  C165     1.0000 0.27260  0.37950  0.90590  Biso   1.000  C
  C166     1.0000 0.22740  0.62050  0.40590  Biso   1.000  C
  C167     1.0000 0.77260  0.12050  0.09410  Biso   1.000  C
  C168     1.0000 0.72740  0.87950  0.59410  Biso   1.000  C
  H137     1.0000 0.78850  0.61380  0.10310  Biso   1.000  H
  H138     1.0000 0.71150  0.38620  0.60310  Biso   1.000  H
  H139     1.0000 0.28850  0.88620  0.89690  Biso   1.000  H
  H140     1.0000 0.21150  0.11380  0.39690  Biso   1.000  H
  H141     1.0000 0.21150  0.38620  0.89690  Biso   1.000  H
  H142     1.0000 0.28850  0.61380  0.39690  Biso   1.000  H
  H143     1.0000 0.71150  0.11380  0.10310  Biso   1.000  H
  H144     1.0000 0.78850  0.88620  0.60310  Biso   1.000  H
  C169     1.0000 0.66440  0.53410  0.10343  Biso   1.000  C
  C170     1.0000 0.83560  0.46590  0.60343  Biso   1.000  C
  C171     1.0000 0.16440  0.96590  0.89657  Biso   1.000  C
  C172     1.0000 0.33560  0.03410  0.39657  Biso   1.000  C
  C173     1.0000 0.33560  0.46590  0.89657  Biso   1.000  C
  C174     1.0000 0.16440  0.53410  0.39657  Biso   1.000  C
  C175     1.0000 0.83560  0.03410  0.10343  Biso   1.000  C
  C176     1.0000 0.66440  0.96590  0.60343  Biso   1.000  C
  H145     1.0000 0.68240  0.47020  0.11940  Biso   1.000  H
  H146     1.0000 0.81760  0.52980  0.61940  Biso   1.000  H
  H147     1.0000 0.18240  0.02980  0.88060  Biso   1.000  H
  H148     1.0000 0.31760  0.97020  0.38060  Biso   1.000  H
  H149     1.0000 0.31760  0.52980  0.88060  Biso   1.000  H
  H150     1.0000 0.18240  0.47020  0.38060  Biso   1.000  H
  H151     1.0000 0.81760  0.97020  0.11940  Biso   1.000  H
  H152     1.0000 0.68240  0.02980  0.61940  Biso   1.000  H
  Cl1      1.0000 0.05621  0.37175  0.20747  Biso   1.000  Cl
  Cl2      1.0000 0.44379  0.62825  0.70747  Biso   1.000  Cl
  Cl3      1.0000 0.55621  0.12825  0.79253  Biso   1.000  Cl
  Cl4      1.0000 0.94379  0.87175  0.29253  Biso   1.000  Cl
  Cl5      1.0000 0.94379  0.62825  0.79253  Biso   1.000  Cl
  Cl6      1.0000 0.55621  0.37175  0.29253  Biso   1.000  Cl
  Cl7      1.0000 0.44379  0.87175  0.20747  Biso   1.000  Cl
  Cl8      1.0000 0.05621  0.12825  0.70747  Biso   1.000  Cl
  Cl9      1.0000 0.10200  0.38023  0.12347  Biso   1.000  Cl
  Cl10     1.0000 0.39800  0.61977  0.62347  Biso   1.000  Cl
  Cl11     1.0000 0.60200  0.11977  0.87653  Biso   1.000  Cl
  Cl12     1.0000 0.89800  0.88023  0.37653  Biso   1.000  Cl
  Cl13     1.0000 0.89800  0.61977  0.87653  Biso   1.000  Cl
  Cl14     1.0000 0.60200  0.38023  0.37653  Biso   1.000  Cl
  Cl15     1.0000 0.39800  0.88023  0.12347  Biso   1.000  Cl
  Cl16     1.0000 0.10200  0.11977  0.62347  Biso   1.000  Cl
  Cl17     1.0000 0.91064  0.39470  0.14975  Biso   1.000  Cl
  Cl18     1.0000 0.58936  0.60530  0.64975  Biso   1.000  Cl
  Cl19     1.0000 0.41064  0.10530  0.85025  Biso   1.000  Cl
  Cl20     1.0000 0.08936  0.89470  0.35025  Biso   1.000  Cl
  Cl21     1.0000 0.08936  0.60530  0.85025  Biso   1.000  Cl
  Cl22     1.0000 0.41064  0.39470  0.35025  Biso   1.000  Cl
  Cl23     1.0000 0.58936  0.89470  0.14975  Biso   1.000  Cl
  Cl24     1.0000 0.91064  0.10530  0.64975  Biso   1.000  Cl
  C177     1.0000 0.01990  0.33400  0.15800  Biso   1.000  C
  C178     1.0000 0.48010  0.66600  0.65800  Biso   1.000  C
  C179     1.0000 0.51990  0.16600  0.84200  Biso   1.000  C
  C180     1.0000 0.98010  0.83400  0.34200  Biso   1.000  C
  C181     1.0000 0.98010  0.66600  0.84200  Biso   1.000  C
  C182     1.0000 0.51990  0.33400  0.34200  Biso   1.000  C
  C183     1.0000 0.48010  0.83400  0.15800  Biso   1.000  C
  C184     1.0000 0.01990  0.16600  0.65800  Biso   1.000  C
  H153     1.0000 0.01460  0.24710  0.15630  Biso   1.000  H
  H154     1.0000 0.48540  0.75290  0.65630  Biso   1.000  H
  H155     1.0000 0.51460  0.25290  0.84370  Biso   1.000  H
  H156     1.0000 0.98540  0.74710  0.34370  Biso   1.000  H
  H157     1.0000 0.98540  0.75290  0.84370  Biso   1.000  H
  H158     1.0000 0.51460  0.24710  0.34370  Biso   1.000  H
  H159     1.0000 0.48540  0.74710  0.15630  Biso   1.000  H
  H160     1.0000 0.01460  0.25290  0.65630  Biso   1.000  H
