data_image0
_cell_length_a       7.314
_cell_length_b       15.332
_cell_length_c       12.758
_cell_angle_alpha    90
_cell_angle_beta     94.5
_cell_angle_gamma    90

_symmetry_space_group_name_H-M    "P 1"
_symmetry_int_tables_number       1

loop_
  _symmetry_equiv_pos_as_xyz
  'x, y, z'

loop_
  _atom_site_label
  _atom_site_occupancy
  _atom_site_fract_x
  _atom_site_fract_y
  _atom_site_fract_z
  _atom_site_thermal_displace_type
  _atom_site_B_iso_or_equiv
  _atom_site_type_symbol
  Cu1      1.0000 0.26793  0.12025  0.64229  Biso   1.000  Cu
  Cu2      1.0000 0.73207  0.62025  0.85771  Biso   1.000  Cu
  Cu3      1.0000 0.73207  0.87975  0.35771  Biso   1.000  Cu
  Cu4      1.0000 0.26793  0.37975  0.14229  Biso   1.000  Cu
  C1       1.0000 0.23150  0.38370  0.79030  Biso   1.000  C
  C2       1.0000 0.76850  0.88370  0.70970  Biso   1.000  C
  C3       1.0000 0.76850  0.61630  0.20970  Biso   1.000  C
  C4       1.0000 0.23150  0.11630  0.29030  Biso   1.000  C
  C5       1.0000 0.21710  0.46890  0.73030  Biso   1.000  C
  C6       1.0000 0.78290  0.96890  0.76970  Biso   1.000  C
  C7       1.0000 0.78290  0.53110  0.26970  Biso   1.000  C
  C8       1.0000 0.21710  0.03110  0.23030  Biso   1.000  C
  C9       1.0000 0.24050  0.30410  0.73980  Biso   1.000  C
  C10      1.0000 0.75950  0.80410  0.76020  Biso   1.000  C
  C11      1.0000 0.75950  0.69590  0.26020  Biso   1.000  C
  C12      1.0000 0.24050  0.19590  0.23980  Biso   1.000  C
  N1       1.0000 0.24910  0.23800  0.69850  Biso   1.000  N
  N2       1.0000 0.75090  0.73800  0.80150  Biso   1.000  N
  N3       1.0000 0.75090  0.76200  0.30150  Biso   1.000  N
  N4       1.0000 0.24910  0.26200  0.19850  Biso   1.000  N
  C13      1.0000 0.24370  0.38450  0.89870  Biso   1.000  C
  C14      1.0000 0.75630  0.88450  0.60130  Biso   1.000  C
  C15      1.0000 0.75630  0.61550  0.10130  Biso   1.000  C
  C16      1.0000 0.24370  0.11550  0.39870  Biso   1.000  C
  N5       1.0000 0.25070  0.38580  0.99010  Biso   1.000  N
  N6       1.0000 0.74930  0.88580  0.50990  Biso   1.000  N
  N7       1.0000 0.74930  0.61420  0.00990  Biso   1.000  N
  N8       1.0000 0.25070  0.11420  0.49010  Biso   1.000  N
  C17      1.0000 0.38080  0.52320  0.76110  Biso   1.000  C
  C18      1.0000 0.61920  0.02320  0.73890  Biso   1.000  C
  C19      1.0000 0.61920  0.47680  0.23890  Biso   1.000  C
  C20      1.0000 0.38080  0.97680  0.26110  Biso   1.000  C
  N9       1.0000 0.50140  0.56370  0.79500  Biso   1.000  N
  N10      1.0000 0.49860  0.06370  0.70500  Biso   1.000  N
  N11      1.0000 0.49860  0.43630  0.20500  Biso   1.000  N
  N12      1.0000 0.50140  0.93630  0.29500  Biso   1.000  N
  C21      1.0000 0.05760  0.51780  0.76480  Biso   1.000  C
  C22      1.0000 0.94240  0.01780  0.73520  Biso   1.000  C
  C23      1.0000 0.94240  0.48220  0.23520  Biso   1.000  C
  C24      1.0000 0.05760  0.98220  0.26480  Biso   1.000  C
  N13      1.0000 0.93490  0.55090  0.79590  Biso   1.000  N
  N14      1.0000 0.06510  0.05090  0.70410  Biso   1.000  N
  N15      1.0000 0.06510  0.44910  0.20410  Biso   1.000  N
  N16      1.0000 0.93490  0.94910  0.29590  Biso   1.000  N
  C25      1.0000 0.19000  0.45500  0.61030  Biso   1.000  C
  C26      1.0000 0.81000  0.95500  0.88970  Biso   1.000  C
  C27      1.0000 0.81000  0.54500  0.38970  Biso   1.000  C
  C28      1.0000 0.19000  0.04500  0.11030  Biso   1.000  C
  H1       1.0000 0.08580  0.41670  0.59500  Biso   1.000  H
  H2       1.0000 0.91420  0.91670  0.90500  Biso   1.000  H
  H3       1.0000 0.91420  0.58330  0.40500  Biso   1.000  H
  H4       1.0000 0.08580  0.08330  0.09500  Biso   1.000  H
  H5       1.0000 0.16100  0.51060  0.57690  Biso   1.000  H
  H6       1.0000 0.83900  0.01060  0.92310  Biso   1.000  H
  H7       1.0000 0.83900  0.48940  0.42310  Biso   1.000  H
  H8       1.0000 0.16100  0.98940  0.07690  Biso   1.000  H
  C29      1.0000 0.35490  0.41640  0.56270  Biso   1.000  C
  C30      1.0000 0.64510  0.91640  0.93730  Biso   1.000  C
  C31      1.0000 0.64510  0.58360  0.43730  Biso   1.000  C
  C32      1.0000 0.35490  0.08360  0.06270  Biso   1.000  C
  O1       1.0000 0.50420  0.41930  0.60840  Biso   1.000  O
  O2       1.0000 0.49580  0.91930  0.89160  Biso   1.000  O
  O3       1.0000 0.49580  0.58070  0.39160  Biso   1.000  O
  O4       1.0000 0.50420  0.08070  0.10840  Biso   1.000  O
  C33      1.0000 0.31860  0.37640  0.45610  Biso   1.000  C
  C34      1.0000 0.68140  0.87640  0.04390  Biso   1.000  C
  C35      1.0000 0.68140  0.62360  0.54390  Biso   1.000  C
  C36      1.0000 0.31860  0.12360  0.95610  Biso   1.000  C
  H9       1.0000 0.25450  0.41750  0.40980  Biso   1.000  H
  H10      1.0000 0.74550  0.91750  0.09020  Biso   1.000  H
  H11      1.0000 0.74550  0.58250  0.59020  Biso   1.000  H
  H12      1.0000 0.25450  0.08250  0.90980  Biso   1.000  H
  H13      1.0000 0.24510  0.32490  0.46140  Biso   1.000  H
  H14      1.0000 0.75490  0.82490  0.03860  Biso   1.000  H
  H15      1.0000 0.75490  0.67510  0.53860  Biso   1.000  H
  H16      1.0000 0.24510  0.17510  0.96140  Biso   1.000  H
  H17      1.0000 0.43290  0.36110  0.42870  Biso   1.000  H
  H18      1.0000 0.56710  0.86110  0.07130  Biso   1.000  H
  H19      1.0000 0.56710  0.63890  0.57130  Biso   1.000  H
  H20      1.0000 0.43290  0.13890  0.92870  Biso   1.000  H
  C37      1.0000 0.79600  0.26060  0.42890  Biso   1.000  C
  C38      1.0000 0.20400  0.76060  0.07110  Biso   1.000  C
  C39      1.0000 0.20400  0.73940  0.57110  Biso   1.000  C
  C40      1.0000 0.79600  0.23940  0.92890  Biso   1.000  C
  C41      1.0000 0.74590  0.21000  0.33290  Biso   1.000  C
  C42      1.0000 0.25410  0.71000  0.16710  Biso   1.000  C
  C43      1.0000 0.25410  0.79000  0.66710  Biso   1.000  C
  C44      1.0000 0.74590  0.29000  0.83290  Biso   1.000  C
  H21      1.0000 0.63100  0.18110  0.33950  Biso   1.000  H
  H22      1.0000 0.36900  0.68110  0.16050  Biso   1.000  H
  H23      1.0000 0.36900  0.81890  0.66050  Biso   1.000  H
  H24      1.0000 0.63100  0.31890  0.83950  Biso   1.000  H
  H25      1.0000 0.83930  0.16740  0.32320  Biso   1.000  H
  H26      1.0000 0.16070  0.66740  0.17680  Biso   1.000  H
  H27      1.0000 0.16070  0.83260  0.67680  Biso   1.000  H
  H28      1.0000 0.83930  0.33260  0.82320  Biso   1.000  H
  H29      1.0000 0.73480  0.24860  0.27350  Biso   1.000  H
  H30      1.0000 0.26520  0.74860  0.22650  Biso   1.000  H
  H31      1.0000 0.26520  0.75140  0.72650  Biso   1.000  H
  H32      1.0000 0.73480  0.25140  0.77350  Biso   1.000  H
  C45      1.0000 0.77070  0.21820  0.53050  Biso   1.000  C
  C46      1.0000 0.22930  0.71820  0.96950  Biso   1.000  C
  C47      1.0000 0.22930  0.78180  0.46950  Biso   1.000  C
  C48      1.0000 0.77070  0.28180  0.03050  Biso   1.000  C
  H33      1.0000 0.86240  0.17390  0.54380  Biso   1.000  H
  H34      1.0000 0.13760  0.67390  0.95620  Biso   1.000  H
  H35      1.0000 0.13760  0.82610  0.45620  Biso   1.000  H
  H36      1.0000 0.86240  0.32610  0.04380  Biso   1.000  H
  H37      1.0000 0.65110  0.19210  0.52820  Biso   1.000  H
  H38      1.0000 0.34890  0.69210  0.97180  Biso   1.000  H
  H39      1.0000 0.34890  0.80790  0.47180  Biso   1.000  H
  H40      1.0000 0.65110  0.30790  0.02820  Biso   1.000  H
  H41      1.0000 0.78210  0.26090  0.58560  Biso   1.000  H
  H42      1.0000 0.21790  0.76090  0.91440  Biso   1.000  H
  H43      1.0000 0.21790  0.73910  0.41440  Biso   1.000  H
  H44      1.0000 0.78210  0.23910  0.08560  Biso   1.000  H
  O5       1.0000 0.85090  0.33160  0.42420  Biso   1.000  O
  O6       1.0000 0.14910  0.83160  0.07580  Biso   1.000  O
  O7       1.0000 0.14910  0.66840  0.57580  Biso   1.000  O
  O8       1.0000 0.85090  0.16840  0.92420  Biso   1.000  O
