data_image0
_cell_length_a       20.506
_cell_length_b       20.506
_cell_length_c       7.0245
_cell_angle_alpha    90
_cell_angle_beta     90
_cell_angle_gamma    90

_symmetry_space_group_name_H-M    "P 1"
_symmetry_int_tables_number       1

loop_
  _symmetry_equiv_pos_as_xyz
  'x, y, z'

loop_
  _atom_site_label
  _atom_site_occupancy
  _atom_site_fract_x
  _atom_site_fract_y
  _atom_site_fract_z
  _atom_site_thermal_displace_type
  _atom_site_B_iso_or_equiv
  _atom_site_type_symbol
  Cu1      1.0000 0.91389  0.00319  0.39629  Biso   1.000  Cu
  Cu2      1.0000 0.49681  0.91389  0.39629  Biso   1.000  Cu
  Cu3      1.0000 0.00319  0.58611  0.39629  Biso   1.000  Cu
  Cu4      1.0000 0.50319  0.41389  0.10371  Biso   1.000  Cu
  Cu5      1.0000 0.41389  0.50319  0.60371  Biso   1.000  Cu
  Cu6      1.0000 0.91389  0.49681  0.89629  Biso   1.000  Cu
  Cu7      1.0000 0.58611  0.00319  0.89629  Biso   1.000  Cu
  Cu8      1.0000 0.00319  0.91389  0.89629  Biso   1.000  Cu
  Cu9      1.0000 0.08611  0.99681  0.60371  Biso   1.000  Cu
  Cu10     1.0000 0.50319  0.08611  0.60371  Biso   1.000  Cu
  Cu11     1.0000 0.99681  0.41389  0.60371  Biso   1.000  Cu
  Cu12     1.0000 0.49681  0.58611  0.89629  Biso   1.000  Cu
  Cu13     1.0000 0.58611  0.49681  0.39629  Biso   1.000  Cu
  Cu14     1.0000 0.08611  0.50319  0.10371  Biso   1.000  Cu
  Cu15     1.0000 0.41389  0.99681  0.10371  Biso   1.000  Cu
  Cu16     1.0000 0.99681  0.08611  0.10371  Biso   1.000  Cu
  Cu17     1.0000 0.04840  0.95160  0.25000  Biso   1.000  Cu
  Cu18     1.0000 0.54840  0.04840  0.25000  Biso   1.000  Cu
  Cu19     1.0000 0.95160  0.45160  0.25000  Biso   1.000  Cu
  Cu20     1.0000 0.45160  0.54840  0.25000  Biso   1.000  Cu
  Cu21     1.0000 0.54840  0.45160  0.75000  Biso   1.000  Cu
  Cu22     1.0000 0.04840  0.54840  0.75000  Biso   1.000  Cu
  Cu23     1.0000 0.45160  0.95160  0.75000  Biso   1.000  Cu
  Cu24     1.0000 0.95160  0.04840  0.75000  Biso   1.000  Cu
  N1       1.0000 0.88094  0.08557  0.31860  Biso   1.000  N
  N2       1.0000 0.41443  0.88094  0.31860  Biso   1.000  N
  N3       1.0000 0.08557  0.61906  0.31860  Biso   1.000  N
  N4       1.0000 0.58557  0.38094  0.18140  Biso   1.000  N
  N5       1.0000 0.38094  0.58557  0.68140  Biso   1.000  N
  N6       1.0000 0.88094  0.41443  0.81860  Biso   1.000  N
  N7       1.0000 0.61906  0.08557  0.81860  Biso   1.000  N
  N8       1.0000 0.08557  0.88094  0.81860  Biso   1.000  N
  N9       1.0000 0.11906  0.91443  0.68140  Biso   1.000  N
  N10      1.0000 0.58557  0.11906  0.68140  Biso   1.000  N
  N11      1.0000 0.91443  0.38094  0.68140  Biso   1.000  N
  N12      1.0000 0.41443  0.61906  0.81860  Biso   1.000  N
  N13      1.0000 0.61906  0.41443  0.31860  Biso   1.000  N
  N14      1.0000 0.11906  0.58557  0.18140  Biso   1.000  N
  N15      1.0000 0.38094  0.91443  0.18140  Biso   1.000  N
  N16      1.0000 0.91443  0.11906  0.18140  Biso   1.000  N
  C1       1.0000 0.82291  0.11096  0.38360  Biso   1.000  C
  C2       1.0000 0.38904  0.82291  0.38360  Biso   1.000  C
  C3       1.0000 0.11096  0.67709  0.38360  Biso   1.000  C
  C4       1.0000 0.61096  0.32291  0.11640  Biso   1.000  C
  C5       1.0000 0.32291  0.61096  0.61640  Biso   1.000  C
  C6       1.0000 0.82291  0.38904  0.88360  Biso   1.000  C
  C7       1.0000 0.67709  0.11096  0.88360  Biso   1.000  C
  C8       1.0000 0.11096  0.82291  0.88360  Biso   1.000  C
  C9       1.0000 0.17709  0.88904  0.61640  Biso   1.000  C
  C10      1.0000 0.61096  0.17709  0.61640  Biso   1.000  C
  C11      1.0000 0.88904  0.32291  0.61640  Biso   1.000  C
  C12      1.0000 0.38904  0.67709  0.88360  Biso   1.000  C
  C13      1.0000 0.67709  0.38904  0.38360  Biso   1.000  C
  C14      1.0000 0.17709  0.61096  0.11640  Biso   1.000  C
  C15      1.0000 0.32291  0.88904  0.11640  Biso   1.000  C
  C16      1.0000 0.88904  0.17709  0.11640  Biso   1.000  C
  H1       1.0000 0.79960  0.08760  0.47850  Biso   1.000  H
  H2       1.0000 0.41240  0.79960  0.47850  Biso   1.000  H
  H3       1.0000 0.08760  0.70040  0.47850  Biso   1.000  H
  H4       1.0000 0.58760  0.29960  0.02150  Biso   1.000  H
  H5       1.0000 0.29960  0.58760  0.52150  Biso   1.000  H
  H6       1.0000 0.79960  0.41240  0.97850  Biso   1.000  H
  H7       1.0000 0.70040  0.08760  0.97850  Biso   1.000  H
  H8       1.0000 0.08760  0.79960  0.97850  Biso   1.000  H
  H9       1.0000 0.20040  0.91240  0.52150  Biso   1.000  H
  H10      1.0000 0.58760  0.20040  0.52150  Biso   1.000  H
  H11      1.0000 0.91240  0.29960  0.52150  Biso   1.000  H
  H12      1.0000 0.41240  0.70040  0.97850  Biso   1.000  H
  H13      1.0000 0.70040  0.41240  0.47850  Biso   1.000  H
  H14      1.0000 0.20040  0.58760  0.02150  Biso   1.000  H
  H15      1.0000 0.29960  0.91240  0.02150  Biso   1.000  H
  H16      1.0000 0.91240  0.20040  0.02150  Biso   1.000  H
  C17      1.0000 0.79719  0.16849  0.31760  Biso   1.000  C
  C18      1.0000 0.33151  0.79719  0.31760  Biso   1.000  C
  C19      1.0000 0.16849  0.70281  0.31760  Biso   1.000  C
  C20      1.0000 0.66849  0.29719  0.18240  Biso   1.000  C
  C21      1.0000 0.29719  0.66849  0.68240  Biso   1.000  C
  C22      1.0000 0.79719  0.33151  0.81760  Biso   1.000  C
  C23      1.0000 0.70281  0.16849  0.81760  Biso   1.000  C
  C24      1.0000 0.16849  0.79719  0.81760  Biso   1.000  C
  C25      1.0000 0.20281  0.83151  0.68240  Biso   1.000  C
  C26      1.0000 0.66849  0.20281  0.68240  Biso   1.000  C
  C27      1.0000 0.83151  0.29719  0.68240  Biso   1.000  C
  C28      1.0000 0.33151  0.70281  0.81760  Biso   1.000  C
  C29      1.0000 0.70281  0.33151  0.31760  Biso   1.000  C
  C30      1.0000 0.20281  0.66849  0.18240  Biso   1.000  C
  C31      1.0000 0.29719  0.83151  0.18240  Biso   1.000  C
  C32      1.0000 0.83151  0.20281  0.18240  Biso   1.000  C
  H17      1.0000 0.75670  0.18420  0.36430  Biso   1.000  H
  H18      1.0000 0.31580  0.75670  0.36430  Biso   1.000  H
  H19      1.0000 0.18420  0.74330  0.36430  Biso   1.000  H
  H20      1.0000 0.68420  0.25670  0.13570  Biso   1.000  H
  H21      1.0000 0.25670  0.68420  0.63570  Biso   1.000  H
  H22      1.0000 0.75670  0.31580  0.86430  Biso   1.000  H
  H23      1.0000 0.74330  0.18420  0.86430  Biso   1.000  H
  H24      1.0000 0.18420  0.75670  0.86430  Biso   1.000  H
  H25      1.0000 0.24330  0.81580  0.63570  Biso   1.000  H
  H26      1.0000 0.68420  0.24330  0.63570  Biso   1.000  H
  H27      1.0000 0.81580  0.25670  0.63570  Biso   1.000  H
  H28      1.0000 0.31580  0.74330  0.86430  Biso   1.000  H
  H29      1.0000 0.74330  0.31580  0.36430  Biso   1.000  H
  H30      1.0000 0.24330  0.68420  0.13570  Biso   1.000  H
  H31      1.0000 0.25670  0.81580  0.13570  Biso   1.000  H
  H32      1.0000 0.81580  0.24330  0.13570  Biso   1.000  H
  N17      1.0000 0.93365  0.91376  0.43820  Biso   1.000  N
  N18      1.0000 0.58624  0.93365  0.43820  Biso   1.000  N
  N19      1.0000 0.91376  0.56635  0.43820  Biso   1.000  N
  N20      1.0000 0.41376  0.43365  0.06180  Biso   1.000  N
  N21      1.0000 0.43365  0.41376  0.56180  Biso   1.000  N
  N22      1.0000 0.93365  0.58624  0.93820  Biso   1.000  N
  N23      1.0000 0.56635  0.91376  0.93820  Biso   1.000  N
  N24      1.0000 0.91376  0.93365  0.93820  Biso   1.000  N
  N25      1.0000 0.06635  0.08624  0.56180  Biso   1.000  N
  N26      1.0000 0.41376  0.06635  0.56180  Biso   1.000  N
  N27      1.0000 0.08624  0.43365  0.56180  Biso   1.000  N
  N28      1.0000 0.58624  0.56635  0.93820  Biso   1.000  N
  N29      1.0000 0.56635  0.58624  0.43820  Biso   1.000  N
  N30      1.0000 0.06635  0.41376  0.06180  Biso   1.000  N
  N31      1.0000 0.43365  0.08624  0.06180  Biso   1.000  N
  N32      1.0000 0.08624  0.06635  0.06180  Biso   1.000  N
  C33      1.0000 0.99133  0.89062  0.36630  Biso   1.000  C
  C34      1.0000 0.60938  0.99133  0.36630  Biso   1.000  C
  C35      1.0000 0.89062  0.50867  0.36630  Biso   1.000  C
  C36      1.0000 0.39062  0.49133  0.13370  Biso   1.000  C
  C37      1.0000 0.49133  0.39062  0.63370  Biso   1.000  C
  C38      1.0000 0.99133  0.60938  0.86630  Biso   1.000  C
  C39      1.0000 0.50867  0.89062  0.86630  Biso   1.000  C
  C40      1.0000 0.89062  0.99133  0.86630  Biso   1.000  C
  C41      1.0000 0.00867  0.10938  0.63370  Biso   1.000  C
  C42      1.0000 0.39062  0.00867  0.63370  Biso   1.000  C
  C43      1.0000 0.10938  0.49133  0.63370  Biso   1.000  C
  C44      1.0000 0.60938  0.50867  0.86630  Biso   1.000  C
  C45      1.0000 0.50867  0.60938  0.36630  Biso   1.000  C
  C46      1.0000 0.00867  0.39062  0.13370  Biso   1.000  C
  C47      1.0000 0.49133  0.10938  0.13370  Biso   1.000  C
  C48      1.0000 0.10938  0.00867  0.13370  Biso   1.000  C
  C49      1.0000 0.00409  0.82489  0.37910  Biso   1.000  C
  C50      1.0000 0.67511  0.00409  0.37910  Biso   1.000  C
  C51      1.0000 0.82489  0.49591  0.37910  Biso   1.000  C
  C52      1.0000 0.32489  0.50409  0.12090  Biso   1.000  C
  C53      1.0000 0.50409  0.32489  0.62090  Biso   1.000  C
  C54      1.0000 0.00409  0.67511  0.87910  Biso   1.000  C
  C55      1.0000 0.49591  0.82489  0.87910  Biso   1.000  C
  C56      1.0000 0.82489  0.00409  0.87910  Biso   1.000  C
  C57      1.0000 0.99591  0.17511  0.62090  Biso   1.000  C
  C58      1.0000 0.32489  0.99591  0.62090  Biso   1.000  C
  C59      1.0000 0.17511  0.50409  0.62090  Biso   1.000  C
  C60      1.0000 0.67511  0.49591  0.87910  Biso   1.000  C
  C61      1.0000 0.49591  0.67511  0.37910  Biso   1.000  C
  C62      1.0000 0.99591  0.32489  0.12090  Biso   1.000  C
  C63      1.0000 0.50409  0.17511  0.12090  Biso   1.000  C
  C64      1.0000 0.17511  0.99591  0.12090  Biso   1.000  C
  H33      1.0000 0.04450  0.80890  0.33200  Biso   1.000  H
  H34      1.0000 0.69110  0.04450  0.33200  Biso   1.000  H
  H35      1.0000 0.80890  0.45550  0.33200  Biso   1.000  H
  H36      1.0000 0.30890  0.54450  0.16800  Biso   1.000  H
  H37      1.0000 0.54450  0.30890  0.66800  Biso   1.000  H
  H38      1.0000 0.04450  0.69110  0.83200  Biso   1.000  H
  H39      1.0000 0.45550  0.80890  0.83200  Biso   1.000  H
  H40      1.0000 0.80890  0.04450  0.83200  Biso   1.000  H
  H41      1.0000 0.95550  0.19110  0.66800  Biso   1.000  H
  H42      1.0000 0.30890  0.95550  0.66800  Biso   1.000  H
  H43      1.0000 0.19110  0.54450  0.66800  Biso   1.000  H
  H44      1.0000 0.69110  0.45550  0.83200  Biso   1.000  H
  H45      1.0000 0.45550  0.69110  0.33200  Biso   1.000  H
  H46      1.0000 0.95550  0.30890  0.16800  Biso   1.000  H
  H47      1.0000 0.54450  0.19110  0.16800  Biso   1.000  H
  H48      1.0000 0.19110  0.95550  0.16800  Biso   1.000  H
  C65      1.0000 0.96039  0.78123  0.45790  Biso   1.000  C
  C66      1.0000 0.71877  0.96039  0.45790  Biso   1.000  C
  C67      1.0000 0.78123  0.53961  0.45790  Biso   1.000  C
  C68      1.0000 0.28123  0.46039  0.04210  Biso   1.000  C
  C69      1.0000 0.46039  0.28123  0.54210  Biso   1.000  C
  C70      1.0000 0.96039  0.71877  0.95790  Biso   1.000  C
  C71      1.0000 0.53961  0.78123  0.95790  Biso   1.000  C
  C72      1.0000 0.78123  0.96039  0.95790  Biso   1.000  C
  C73      1.0000 0.03961  0.21877  0.54210  Biso   1.000  C
  C74      1.0000 0.28123  0.03961  0.54210  Biso   1.000  C
  C75      1.0000 0.21877  0.46039  0.54210  Biso   1.000  C
  C76      1.0000 0.71877  0.53961  0.95790  Biso   1.000  C
  C77      1.0000 0.53961  0.71877  0.45790  Biso   1.000  C
  C78      1.0000 0.03961  0.28123  0.04210  Biso   1.000  C
  C79      1.0000 0.46039  0.21877  0.04210  Biso   1.000  C
  C80      1.0000 0.21877  0.03961  0.04210  Biso   1.000  C
  H49      1.0000 0.96990  0.73590  0.46200  Biso   1.000  H
  H50      1.0000 0.76410  0.96990  0.46200  Biso   1.000  H
  H51      1.0000 0.73590  0.53010  0.46200  Biso   1.000  H
  H52      1.0000 0.23590  0.46990  0.03800  Biso   1.000  H
  H53      1.0000 0.46990  0.23590  0.53800  Biso   1.000  H
  H54      1.0000 0.96990  0.76410  0.96200  Biso   1.000  H
  H55      1.0000 0.53010  0.73590  0.96200  Biso   1.000  H
  H56      1.0000 0.73590  0.96990  0.96200  Biso   1.000  H
  H57      1.0000 0.03010  0.26410  0.53800  Biso   1.000  H
  H58      1.0000 0.23590  0.03010  0.53800  Biso   1.000  H
  H59      1.0000 0.26410  0.46990  0.53800  Biso   1.000  H
  H60      1.0000 0.76410  0.53010  0.96200  Biso   1.000  H
  H61      1.0000 0.53010  0.76410  0.46200  Biso   1.000  H
  H62      1.0000 0.03010  0.23590  0.03800  Biso   1.000  H
  H63      1.0000 0.46990  0.26410  0.03800  Biso   1.000  H
  H64      1.0000 0.26410  0.03010  0.03800  Biso   1.000  H
  C81      1.0000 0.90270  0.80514  0.53040  Biso   1.000  C
  C82      1.0000 0.69486  0.90270  0.53040  Biso   1.000  C
  C83      1.0000 0.80514  0.59730  0.53040  Biso   1.000  C
  C84      1.0000 0.30514  0.40270  0.96960  Biso   1.000  C
  C85      1.0000 0.40270  0.30514  0.46960  Biso   1.000  C
  C86      1.0000 0.90270  0.69486  0.03040  Biso   1.000  C
  C87      1.0000 0.59730  0.80514  0.03040  Biso   1.000  C
  C88      1.0000 0.80514  0.90270  0.03040  Biso   1.000  C
  C89      1.0000 0.09730  0.19486  0.46960  Biso   1.000  C
  C90      1.0000 0.30514  0.09730  0.46960  Biso   1.000  C
  C91      1.0000 0.19486  0.40270  0.46960  Biso   1.000  C
  C92      1.0000 0.69486  0.59730  0.03040  Biso   1.000  C
  C93      1.0000 0.59730  0.69486  0.53040  Biso   1.000  C
  C94      1.0000 0.09730  0.30514  0.96960  Biso   1.000  C
  C95      1.0000 0.40270  0.19486  0.96960  Biso   1.000  C
  C96      1.0000 0.19486  0.09730  0.96960  Biso   1.000  C
  H65      1.0000 0.87160  0.77650  0.58590  Biso   1.000  H
  H66      1.0000 0.72350  0.87160  0.58590  Biso   1.000  H
  H67      1.0000 0.77650  0.62840  0.58590  Biso   1.000  H
  H68      1.0000 0.27650  0.37160  0.91410  Biso   1.000  H
  H69      1.0000 0.37160  0.27650  0.41410  Biso   1.000  H
  H70      1.0000 0.87160  0.72350  0.08590  Biso   1.000  H
  H71      1.0000 0.62840  0.77650  0.08590  Biso   1.000  H
  H72      1.0000 0.77650  0.87160  0.08590  Biso   1.000  H
  H73      1.0000 0.12840  0.22350  0.41410  Biso   1.000  H
  H74      1.0000 0.27650  0.12840  0.41410  Biso   1.000  H
  H75      1.0000 0.22350  0.37160  0.41410  Biso   1.000  H
  H76      1.0000 0.72350  0.62840  0.08590  Biso   1.000  H
  H77      1.0000 0.62840  0.72350  0.58590  Biso   1.000  H
  H78      1.0000 0.12840  0.27650  0.91410  Biso   1.000  H
  H79      1.0000 0.37160  0.22350  0.91410  Biso   1.000  H
  H80      1.0000 0.22350  0.12840  0.91410  Biso   1.000  H
  C97      1.0000 0.89089  0.87076  0.52110  Biso   1.000  C
  C98      1.0000 0.62924  0.89089  0.52110  Biso   1.000  C
  C99      1.0000 0.87076  0.60911  0.52110  Biso   1.000  C
  C100     1.0000 0.37076  0.39089  0.97890  Biso   1.000  C
  C101     1.0000 0.39089  0.37076  0.47890  Biso   1.000  C
  C102     1.0000 0.89089  0.62924  0.02110  Biso   1.000  C
  C103     1.0000 0.60911  0.87076  0.02110  Biso   1.000  C
  C104     1.0000 0.87076  0.89089  0.02110  Biso   1.000  C
  C105     1.0000 0.10911  0.12924  0.47890  Biso   1.000  C
  C106     1.0000 0.37076  0.10911  0.47890  Biso   1.000  C
  C107     1.0000 0.12924  0.39089  0.47890  Biso   1.000  C
  C108     1.0000 0.62924  0.60911  0.02110  Biso   1.000  C
  C109     1.0000 0.60911  0.62924  0.52110  Biso   1.000  C
  C110     1.0000 0.10911  0.37076  0.97890  Biso   1.000  C
  C111     1.0000 0.39089  0.12924  0.97890  Biso   1.000  C
  C112     1.0000 0.12924  0.10911  0.97890  Biso   1.000  C
  H81      1.0000 0.85160  0.88720  0.57420  Biso   1.000  H
  H82      1.0000 0.61280  0.85160  0.57420  Biso   1.000  H
  H83      1.0000 0.88720  0.64840  0.57420  Biso   1.000  H
  H84      1.0000 0.38720  0.35160  0.92580  Biso   1.000  H
  H85      1.0000 0.35160  0.38720  0.42580  Biso   1.000  H
  H86      1.0000 0.85160  0.61280  0.07420  Biso   1.000  H
  H87      1.0000 0.64840  0.88720  0.07420  Biso   1.000  H
  H88      1.0000 0.88720  0.85160  0.07420  Biso   1.000  H
  H89      1.0000 0.14840  0.11280  0.42580  Biso   1.000  H
  H90      1.0000 0.38720  0.14840  0.42580  Biso   1.000  H
  H91      1.0000 0.11280  0.35160  0.42580  Biso   1.000  H
  H92      1.0000 0.61280  0.64840  0.07420  Biso   1.000  H
  H93      1.0000 0.64840  0.61280  0.57420  Biso   1.000  H
  H94      1.0000 0.14840  0.38720  0.92580  Biso   1.000  H
  H95      1.0000 0.35160  0.11280  0.92580  Biso   1.000  H
  H96      1.0000 0.11280  0.14840  0.92580  Biso   1.000  H
