data_image0
_cell_length_a       10.565
_cell_length_b       3.866
_cell_length_c       35.431
_cell_angle_alpha    90
_cell_angle_beta     94.996
_cell_angle_gamma    90

_symmetry_space_group_name_H-M    "P 1"
_symmetry_int_tables_number       1

loop_
  _symmetry_equiv_pos_as_xyz
  'x, y, z'

loop_
  _atom_site_label
  _atom_site_occupancy
  _atom_site_fract_x
  _atom_site_fract_y
  _atom_site_fract_z
  _atom_site_thermal_displace_type
  _atom_site_B_iso_or_equiv
  _atom_site_type_symbol
  Cu1      1.0000 0.20620  0.02680  0.13220  Biso   1.000  Cu
  Cu2      1.0000 0.79380  0.52680  0.36780  Biso   1.000  Cu
  Cu3      1.0000 0.79380  0.97320  0.86780  Biso   1.000  Cu
  Cu4      1.0000 0.20620  0.47320  0.63220  Biso   1.000  Cu
  Cl1      1.0000 0.33340  0.54800  0.12300  Biso   1.000  Cl
  Cl2      1.0000 0.66660  0.04800  0.37700  Biso   1.000  Cl
  Cl3      1.0000 0.66660  0.45200  0.87700  Biso   1.000  Cl
  Cl4      1.0000 0.33340  0.95200  0.62300  Biso   1.000  Cl
  S1       1.0000 0.71380  0.05820  0.08260  Biso   1.000  S
  S2       1.0000 0.28620  0.55820  0.41740  Biso   1.000  S
  S3       1.0000 0.28620  0.94180  0.91740  Biso   1.000  S
  S4       1.0000 0.71380  0.44180  0.58260  Biso   1.000  S
  S5       1.0000 0.68130  0.37470  0.00540  Biso   1.000  S
  S6       1.0000 0.31870  0.87470  0.49460  Biso   1.000  S
  S7       1.0000 0.31870  0.62530  0.99460  Biso   1.000  S
  S8       1.0000 0.68130  0.12530  0.50540  Biso   1.000  S
  S9       1.0000 0.09820  0.06000  0.28720  Biso   1.000  S
  S10      1.0000 0.90180  0.56000  0.21280  Biso   1.000  S
  S11      1.0000 0.90180  0.94000  0.71280  Biso   1.000  S
  S12      1.0000 0.09820  0.44000  0.78720  Biso   1.000  S
  S13      1.0000 0.33930  0.36760  0.32250  Biso   1.000  S
  S14      1.0000 0.66070  0.86760  0.17750  Biso   1.000  S
  S15      1.0000 0.66070  0.63240  0.67750  Biso   1.000  S
  S16      1.0000 0.33930  0.13240  0.82250  Biso   1.000  S
  N1       1.0000 0.05940  0.07580  0.09530  Biso   1.000  N
  N2       1.0000 0.94060  0.57580  0.40470  Biso   1.000  N
  N3       1.0000 0.94060  0.92420  0.90470  Biso   1.000  N
  N4       1.0000 0.05940  0.42420  0.59530  Biso   1.000  N
  N5       1.0000 0.90360  0.25830  0.04270  Biso   1.000  N
  N6       1.0000 0.09640  0.75830  0.45730  Biso   1.000  N
  N7       1.0000 0.09640  0.74170  0.95730  Biso   1.000  N
  N8       1.0000 0.90360  0.24170  0.54270  Biso   1.000  N
  N9       1.0000 0.18830  0.07680  0.18760  Biso   1.000  N
  N10      1.0000 0.81170  0.57680  0.31240  Biso   1.000  N
  N11      1.0000 0.81170  0.92320  0.81240  Biso   1.000  N
  N12      1.0000 0.18830  0.42320  0.68760  Biso   1.000  N
  N13      1.0000 0.29370  0.26280  0.24930  Biso   1.000  N
  N14      1.0000 0.70630  0.76280  0.25070  Biso   1.000  N
  N15      1.0000 0.70630  0.73720  0.75070  Biso   1.000  N
  N16      1.0000 0.29370  0.23720  0.74930  Biso   1.000  N
  C1       1.0000 0.98070  0.15370  0.07250  Biso   1.000  C
  C2       1.0000 0.01930  0.65370  0.42750  Biso   1.000  C
  C3       1.0000 0.01930  0.84630  0.92750  Biso   1.000  C
  C4       1.0000 0.98070  0.34630  0.57250  Biso   1.000  C
  C5       1.0000 0.78060  0.23140  0.04390  Biso   1.000  C
  C6       1.0000 0.21940  0.73140  0.45610  Biso   1.000  C
  C7       1.0000 0.21940  0.76860  0.95610  Biso   1.000  C
  C8       1.0000 0.78060  0.26860  0.54390  Biso   1.000  C
  C9       1.0000 0.54510  0.08330  0.07060  Biso   1.000  C
  C10      1.0000 0.45490  0.58330  0.42940  Biso   1.000  C
  C11      1.0000 0.45490  0.91670  0.92940  Biso   1.000  C
  C12      1.0000 0.54510  0.41670  0.57060  Biso   1.000  C
  C13      1.0000 0.79460  0.52460  0.97430  Biso   1.000  C
  C14      1.0000 0.20540  0.02460  0.52570  Biso   1.000  C
  C15      1.0000 0.20540  0.47540  0.02570  Biso   1.000  C
  C16      1.0000 0.79460  0.97540  0.47430  Biso   1.000  C
  C17      1.0000 0.22830  0.15730  0.21770  Biso   1.000  C
  C18      1.0000 0.77170  0.65730  0.28230  Biso   1.000  C
  C19      1.0000 0.77170  0.84270  0.78230  Biso   1.000  C
  C20      1.0000 0.22830  0.34270  0.71770  Biso   1.000  C
  C21      1.0000 0.24730  0.23310  0.28230  Biso   1.000  C
  C22      1.0000 0.75270  0.73310  0.21770  Biso   1.000  C
  C23      1.0000 0.75270  0.76690  0.71770  Biso   1.000  C
  C24      1.0000 0.24730  0.26690  0.78230  Biso   1.000  C
  C25      1.0000 0.08150  0.09360  0.33730  Biso   1.000  C
  C26      1.0000 0.91850  0.59360  0.16270  Biso   1.000  C
  C27      1.0000 0.91850  0.90640  0.66270  Biso   1.000  C
  C28      1.0000 0.08150  0.40640  0.83730  Biso   1.000  C
  C29      1.0000 0.47950  0.51980  0.30260  Biso   1.000  C
  C30      1.0000 0.52050  0.01980  0.19740  Biso   1.000  C
  C31      1.0000 0.52050  0.48020  0.69740  Biso   1.000  C
  C32      1.0000 0.47950  0.98020  0.80260  Biso   1.000  C
  H1       1.0000 0.52200  0.29600  0.06910  Biso   1.000  H
  H2       1.0000 0.47800  0.79600  0.43090  Biso   1.000  H
  H3       1.0000 0.47800  0.70400  0.93090  Biso   1.000  H
  H4       1.0000 0.52200  0.20400  0.56910  Biso   1.000  H
  H5       1.0000 0.52300  0.97600  0.04760  Biso   1.000  H
  H6       1.0000 0.47700  0.47600  0.45240  Biso   1.000  H
  H7       1.0000 0.47700  0.02400  0.95240  Biso   1.000  H
  H8       1.0000 0.52300  0.52400  0.54760  Biso   1.000  H
  H9       1.0000 0.50200  0.96400  0.09040  Biso   1.000  H
  H10      1.0000 0.49800  0.46400  0.40960  Biso   1.000  H
  H11      1.0000 0.49800  0.03600  0.90960  Biso   1.000  H
  H12      1.0000 0.50200  0.53600  0.59040  Biso   1.000  H
  H13      1.0000 0.84100  0.37300  0.96810  Biso   1.000  H
  H14      1.0000 0.15900  0.87300  0.53190  Biso   1.000  H
  H15      1.0000 0.15900  0.62700  0.03190  Biso   1.000  H
  H16      1.0000 0.84100  0.12700  0.46810  Biso   1.000  H
  H17      1.0000 0.75100  0.61600  0.95440  Biso   1.000  H
  H18      1.0000 0.24900  0.11600  0.54560  Biso   1.000  H
  H19      1.0000 0.24900  0.38400  0.04560  Biso   1.000  H
  H20      1.0000 0.75100  0.88400  0.45440  Biso   1.000  H
  H21      1.0000 0.85400  0.70200  0.98740  Biso   1.000  H
  H22      1.0000 0.14600  0.20200  0.51260  Biso   1.000  H
  H23      1.0000 0.14600  0.29800  0.01260  Biso   1.000  H
  H24      1.0000 0.85400  0.79800  0.48740  Biso   1.000  H
  H25      1.0000 0.07900  0.32700  0.34420  Biso   1.000  H
  H26      1.0000 0.92100  0.82700  0.15580  Biso   1.000  H
  H27      1.0000 0.92100  0.67300  0.65580  Biso   1.000  H
  H28      1.0000 0.07900  0.17300  0.84420  Biso   1.000  H
  H29      1.0000 0.14500  0.94500  0.35170  Biso   1.000  H
  H30      1.0000 0.85500  0.44500  0.14830  Biso   1.000  H
  H31      1.0000 0.85500  0.05500  0.64830  Biso   1.000  H
  H32      1.0000 0.14500  0.55500  0.85170  Biso   1.000  H
  H33      1.0000 0.99900  0.98900  0.34250  Biso   1.000  H
  H34      1.0000 0.00100  0.48900  0.15750  Biso   1.000  H
  H35      1.0000 0.00100  0.01100  0.65750  Biso   1.000  H
  H36      1.0000 0.99900  0.51100  0.84250  Biso   1.000  H
  H37      1.0000 0.45000  0.67900  0.28170  Biso   1.000  H
  H38      1.0000 0.55000  0.17900  0.21830  Biso   1.000  H
  H39      1.0000 0.55000  0.32100  0.71830  Biso   1.000  H
  H40      1.0000 0.45000  0.82100  0.78170  Biso   1.000  H
  H41      1.0000 0.52400  0.35000  0.29380  Biso   1.000  H
  H42      1.0000 0.47600  0.85000  0.20620  Biso   1.000  H
  H43      1.0000 0.47600  0.65000  0.70620  Biso   1.000  H
  H44      1.0000 0.52400  0.15000  0.79380  Biso   1.000  H
  H45      1.0000 0.52600  0.62300  0.31990  Biso   1.000  H
  H46      1.0000 0.47400  0.12300  0.18010  Biso   1.000  H
  H47      1.0000 0.47400  0.37700  0.68010  Biso   1.000  H
  H48      1.0000 0.52600  0.87700  0.81990  Biso   1.000  H
