data_image0
_cell_length_a       12.344
_cell_length_b       11.675
_cell_length_c       18.521
_cell_angle_alpha    90
_cell_angle_beta     101.41
_cell_angle_gamma    90

_symmetry_space_group_name_H-M    "P 1"
_symmetry_int_tables_number       1

loop_
  _symmetry_equiv_pos_as_xyz
  'x, y, z'

loop_
  _atom_site_label
  _atom_site_occupancy
  _atom_site_fract_x
  _atom_site_fract_y
  _atom_site_fract_z
  _atom_site_thermal_displace_type
  _atom_site_B_iso_or_equiv
  _atom_site_type_symbol
  I1       1.0000 0.98409  0.94810  0.11397  Biso   1.000  I
  I2       1.0000 0.01591  0.44810  0.38603  Biso   1.000  I
  I3       1.0000 0.01591  0.05190  0.88603  Biso   1.000  I
  I4       1.0000 0.98409  0.55190  0.61397  Biso   1.000  I
  Cu1      1.0000 0.11635  0.00036  0.02284  Biso   1.000  Cu
  Cu2      1.0000 0.88365  0.50036  0.47716  Biso   1.000  Cu
  Cu3      1.0000 0.88365  0.99964  0.97716  Biso   1.000  Cu
  Cu4      1.0000 0.11635  0.49964  0.52284  Biso   1.000  Cu
  P1       1.0000 0.23134  0.14551  0.06241  Biso   1.000  P
  P2       1.0000 0.76866  0.64551  0.43759  Biso   1.000  P
  P3       1.0000 0.76866  0.85449  0.93759  Biso   1.000  P
  P4       1.0000 0.23134  0.35449  0.56241  Biso   1.000  P
  N1       1.0000 0.19980  0.85030  0.01109  Biso   1.000  N
  N2       1.0000 0.80020  0.35030  0.48891  Biso   1.000  N
  N3       1.0000 0.80020  0.14970  0.98891  Biso   1.000  N
  N4       1.0000 0.19980  0.64970  0.51109  Biso   1.000  N
  N5       1.0000 0.47940  0.57790  0.94433  Biso   1.000  N
  N6       1.0000 0.52060  0.07790  0.55567  Biso   1.000  N
  N7       1.0000 0.52060  0.42210  0.05567  Biso   1.000  N
  N8       1.0000 0.47940  0.92210  0.44433  Biso   1.000  N
  N9       1.0000 0.44530  0.50260  0.05724  Biso   1.000  N
  N10      1.0000 0.55470  0.00260  0.44276  Biso   1.000  N
  N11      1.0000 0.55470  0.49740  0.94276  Biso   1.000  N
  N12      1.0000 0.44530  0.99740  0.55724  Biso   1.000  N
  N13      1.0000 0.19130  0.73190  0.25630  Biso   1.000  N
  N14      1.0000 0.80870  0.23190  0.24370  Biso   1.000  N
  N15      1.0000 0.80870  0.26810  0.74370  Biso   1.000  N
  N16      1.0000 0.19130  0.76810  0.75630  Biso   1.000  N
  C1       1.0000 0.42760  0.57820  0.00100  Biso   1.000  C
  C2       1.0000 0.57240  0.07820  0.49900  Biso   1.000  C
  C3       1.0000 0.57240  0.42180  0.99900  Biso   1.000  C
  C4       1.0000 0.42760  0.92180  0.50100  Biso   1.000  C
  C5       1.0000 0.34350  0.10930  0.13879  Biso   1.000  C
  C6       1.0000 0.65650  0.60930  0.36121  Biso   1.000  C
  C7       1.0000 0.65650  0.89070  0.86121  Biso   1.000  C
  C8       1.0000 0.34350  0.39070  0.63879  Biso   1.000  C
  C9       1.0000 0.30080  0.68650  0.06530  Biso   1.000  C
  C10      1.0000 0.69920  0.18650  0.43470  Biso   1.000  C
  C11      1.0000 0.69920  0.31350  0.93470  Biso   1.000  C
  C12      1.0000 0.30080  0.81350  0.56530  Biso   1.000  C
  H1       1.0000 0.31870  0.63770  0.10550  Biso   1.000  H
  H2       1.0000 0.68130  0.13770  0.39450  Biso   1.000  H
  H3       1.0000 0.68130  0.36230  0.89450  Biso   1.000  H
  H4       1.0000 0.31870  0.86230  0.60550  Biso   1.000  H
  C13      1.0000 0.01020  0.39830  0.07410  Biso   1.000  C
  C14      1.0000 0.98980  0.89830  0.42590  Biso   1.000  C
  C15      1.0000 0.98980  0.60170  0.92590  Biso   1.000  C
  C16      1.0000 0.01020  0.10170  0.57410  Biso   1.000  C
  H5       1.0000 0.93860  0.41530  0.04980  Biso   1.000  H
  H6       1.0000 0.06140  0.91530  0.45020  Biso   1.000  H
  H7       1.0000 0.06140  0.58470  0.95020  Biso   1.000  H
  H8       1.0000 0.93860  0.08470  0.54980  Biso   1.000  H
  C17      1.0000 0.06480  0.47060  0.12760  Biso   1.000  C
  C18      1.0000 0.93520  0.97060  0.37240  Biso   1.000  C
  C19      1.0000 0.93520  0.52940  0.87240  Biso   1.000  C
  C20      1.0000 0.06480  0.02940  0.62760  Biso   1.000  C
  H9       1.0000 0.03000  0.53670  0.13940  Biso   1.000  H
  H10      1.0000 0.97000  0.03670  0.36060  Biso   1.000  H
  H11      1.0000 0.97000  0.46330  0.86060  Biso   1.000  H
  H12      1.0000 0.03000  0.96330  0.63940  Biso   1.000  H
  C21      1.0000 0.17060  0.44590  0.16370  Biso   1.000  C
  C22      1.0000 0.82940  0.94590  0.33630  Biso   1.000  C
  C23      1.0000 0.82940  0.55410  0.83630  Biso   1.000  C
  C24      1.0000 0.17060  0.05410  0.66370  Biso   1.000  C
  H13      1.0000 0.20700  0.49450  0.20040  Biso   1.000  H
  H14      1.0000 0.79300  0.99450  0.29960  Biso   1.000  H
  H15      1.0000 0.79300  0.50550  0.79960  Biso   1.000  H
  H16      1.0000 0.20700  0.00550  0.70040  Biso   1.000  H
  C25      1.0000 0.34600  0.66970  0.00372  Biso   1.000  C
  C26      1.0000 0.65400  0.16970  0.49628  Biso   1.000  C
  C27      1.0000 0.65400  0.33030  0.99628  Biso   1.000  C
  C28      1.0000 0.34600  0.83030  0.50372  Biso   1.000  C
  C29      1.0000 0.22900  0.77650  0.06640  Biso   1.000  C
  C30      1.0000 0.77100  0.27650  0.43360  Biso   1.000  C
  C31      1.0000 0.77100  0.22350  0.93360  Biso   1.000  C
  C32      1.0000 0.22900  0.72350  0.56640  Biso   1.000  C
  H17      1.0000 0.19900  0.78630  0.10830  Biso   1.000  H
  H18      1.0000 0.80100  0.28630  0.39170  Biso   1.000  H
  H19      1.0000 0.80100  0.21370  0.89170  Biso   1.000  H
  H20      1.0000 0.19900  0.71370  0.60830  Biso   1.000  H
  C33      1.0000 0.37720  0.12190  0.96660  Biso   1.000  C
  C34      1.0000 0.62280  0.62190  0.53340  Biso   1.000  C
  C35      1.0000 0.62280  0.87810  0.03340  Biso   1.000  C
  C36      1.0000 0.37720  0.37810  0.46660  Biso   1.000  C
  H21      1.0000 0.39750  0.05420  0.99220  Biso   1.000  H
  H22      1.0000 0.60250  0.55420  0.50780  Biso   1.000  H
  H23      1.0000 0.60250  0.94580  0.00780  Biso   1.000  H
  H24      1.0000 0.39750  0.44580  0.49220  Biso   1.000  H
  C37      1.0000 0.30160  0.19470  0.98984  Biso   1.000  C
  C38      1.0000 0.69840  0.69470  0.51016  Biso   1.000  C
  C39      1.0000 0.69840  0.80530  0.01016  Biso   1.000  C
  C40      1.0000 0.30160  0.30530  0.48984  Biso   1.000  C
  C41      1.0000 0.31400  0.74360  0.94470  Biso   1.000  C
  C42      1.0000 0.68600  0.24360  0.55530  Biso   1.000  C
  C43      1.0000 0.68600  0.25640  0.05530  Biso   1.000  C
  C44      1.0000 0.31400  0.75640  0.44470  Biso   1.000  C
  H25      1.0000 0.34090  0.73400  0.90160  Biso   1.000  H
  H26      1.0000 0.65910  0.23400  0.59840  Biso   1.000  H
  H27      1.0000 0.65910  0.26600  0.09840  Biso   1.000  H
  H28      1.0000 0.34090  0.76600  0.40160  Biso   1.000  H
  C45      1.0000 0.16890  0.27570  0.09110  Biso   1.000  C
  C46      1.0000 0.83110  0.77570  0.40890  Biso   1.000  C
  C47      1.0000 0.83110  0.72430  0.90890  Biso   1.000  C
  C48      1.0000 0.16890  0.22430  0.59110  Biso   1.000  C
  C49      1.0000 0.51020  0.03550  0.25320  Biso   1.000  C
  C50      1.0000 0.48980  0.53550  0.24680  Biso   1.000  C
  C51      1.0000 0.48980  0.96450  0.74680  Biso   1.000  C
  C52      1.0000 0.51020  0.46450  0.75320  Biso   1.000  C
  H29      1.0000 0.56620  0.00990  0.29100  Biso   1.000  H
  H30      1.0000 0.43380  0.50990  0.20900  Biso   1.000  H
  H31      1.0000 0.43380  0.99010  0.70900  Biso   1.000  H
  H32      1.0000 0.56620  0.49010  0.79100  Biso   1.000  H
  C53      1.0000 0.24200  0.83130  0.95100  Biso   1.000  C
  C54      1.0000 0.75800  0.33130  0.54900  Biso   1.000  C
  C55      1.0000 0.75800  0.16870  0.04900  Biso   1.000  C
  C56      1.0000 0.24200  0.66870  0.45100  Biso   1.000  C
  H33      1.0000 0.22140  0.88030  0.91100  Biso   1.000  H
  H34      1.0000 0.77860  0.38030  0.58900  Biso   1.000  H
  H35      1.0000 0.77860  0.11970  0.08900  Biso   1.000  H
  H36      1.0000 0.22140  0.61970  0.41100  Biso   1.000  H
  C57      1.0000 0.53090  0.12360  0.20860  Biso   1.000  C
  C58      1.0000 0.46910  0.62360  0.29140  Biso   1.000  C
  C59      1.0000 0.46910  0.87640  0.79140  Biso   1.000  C
  C60      1.0000 0.53090  0.37640  0.70860  Biso   1.000  C
  H37      1.0000 0.59980  0.15870  0.21660  Biso   1.000  H
  H38      1.0000 0.40020  0.65870  0.28340  Biso   1.000  H
  H39      1.0000 0.40020  0.84130  0.78340  Biso   1.000  H
  H40      1.0000 0.59980  0.34130  0.71660  Biso   1.000  H
  C61      1.0000 0.44680  0.15970  0.15130  Biso   1.000  C
  C62      1.0000 0.55320  0.65970  0.34870  Biso   1.000  C
  C63      1.0000 0.55320  0.84030  0.84870  Biso   1.000  C
  C64      1.0000 0.44680  0.34030  0.65130  Biso   1.000  C
  H41      1.0000 0.46060  0.21900  0.12080  Biso   1.000  H
  H42      1.0000 0.53940  0.71900  0.37920  Biso   1.000  H
  H43      1.0000 0.53940  0.78100  0.87920  Biso   1.000  H
  H44      1.0000 0.46060  0.28100  0.62080  Biso   1.000  H
  C65      1.0000 0.32470  0.02090  0.18530  Biso   1.000  C
  C66      1.0000 0.67530  0.52090  0.31470  Biso   1.000  C
  C67      1.0000 0.67530  0.97910  0.81470  Biso   1.000  C
  C68      1.0000 0.32470  0.47910  0.68530  Biso   1.000  C
  H45      1.0000 0.25570  0.98590  0.17790  Biso   1.000  H
  H46      1.0000 0.74430  0.48590  0.32210  Biso   1.000  H
  H47      1.0000 0.74430  0.01410  0.82210  Biso   1.000  H
  H48      1.0000 0.25570  0.51410  0.67790  Biso   1.000  H
  C69      1.0000 0.06200  0.29990  0.05650  Biso   1.000  C
  C70      1.0000 0.93800  0.79990  0.44350  Biso   1.000  C
  C71      1.0000 0.93800  0.70010  0.94350  Biso   1.000  C
  C72      1.0000 0.06200  0.20010  0.55650  Biso   1.000  C
  H49      1.0000 0.02450  0.25000  0.02100  Biso   1.000  H
  H50      1.0000 0.97550  0.75000  0.47900  Biso   1.000  H
  H51      1.0000 0.97550  0.75000  0.97900  Biso   1.000  H
  H52      1.0000 0.02450  0.25000  0.52100  Biso   1.000  H
  C73      1.0000 0.31770  0.31870  0.88920  Biso   1.000  C
  C74      1.0000 0.68230  0.81870  0.61080  Biso   1.000  C
  C75      1.0000 0.68230  0.68130  0.11080  Biso   1.000  C
  C76      1.0000 0.31770  0.18130  0.38920  Biso   1.000  C
  H53      1.0000 0.29730  0.38570  0.86290  Biso   1.000  H
  H54      1.0000 0.70270  0.88570  0.63710  Biso   1.000  H
  H55      1.0000 0.70270  0.61430  0.13710  Biso   1.000  H
  H56      1.0000 0.29730  0.11430  0.36290  Biso   1.000  H
  C77      1.0000 0.40760  0.98450  0.24260  Biso   1.000  C
  C78      1.0000 0.59240  0.48450  0.25740  Biso   1.000  C
  C79      1.0000 0.59240  0.01550  0.75740  Biso   1.000  C
  C80      1.0000 0.40760  0.51550  0.74260  Biso   1.000  C
  H57      1.0000 0.39400  0.92600  0.27370  Biso   1.000  H
  H58      1.0000 0.60600  0.42600  0.22630  Biso   1.000  H
  H59      1.0000 0.60600  0.07400  0.72630  Biso   1.000  H
  H60      1.0000 0.39400  0.57400  0.77370  Biso   1.000  H
  C81      1.0000 0.39140  0.24620  0.86740  Biso   1.000  C
  C82      1.0000 0.60860  0.74620  0.63260  Biso   1.000  C
  C83      1.0000 0.60860  0.75380  0.13260  Biso   1.000  C
  C84      1.0000 0.39140  0.25380  0.36740  Biso   1.000  C
  H61      1.0000 0.42060  0.26320  0.82600  Biso   1.000  H
  H62      1.0000 0.57940  0.76320  0.67400  Biso   1.000  H
  H63      1.0000 0.57940  0.73680  0.17400  Biso   1.000  H
  H64      1.0000 0.42060  0.23680  0.32600  Biso   1.000  H
  C85      1.0000 0.27270  0.29360  0.95030  Biso   1.000  C
  C86      1.0000 0.72730  0.79360  0.54970  Biso   1.000  C
  C87      1.0000 0.72730  0.70640  0.04970  Biso   1.000  C
  C88      1.0000 0.27270  0.20640  0.45030  Biso   1.000  C
  H65      1.0000 0.22260  0.34400  0.96470  Biso   1.000  H
  H66      1.0000 0.77740  0.84400  0.53530  Biso   1.000  H
  H67      1.0000 0.77740  0.65600  0.03530  Biso   1.000  H
  H68      1.0000 0.22260  0.15600  0.46470  Biso   1.000  H
  C89      1.0000 0.22220  0.34910  0.14540  Biso   1.000  C
  C90      1.0000 0.77780  0.84910  0.35460  Biso   1.000  C
  C91      1.0000 0.77780  0.65090  0.85460  Biso   1.000  C
  C92      1.0000 0.22220  0.15090  0.64540  Biso   1.000  C
  H69      1.0000 0.29390  0.33260  0.16970  Biso   1.000  H
  H70      1.0000 0.70610  0.83260  0.33030  Biso   1.000  H
  H71      1.0000 0.70610  0.66740  0.83030  Biso   1.000  H
  H72      1.0000 0.29390  0.16740  0.66970  Biso   1.000  H
  C93      1.0000 0.42240  0.14830  0.90660  Biso   1.000  C
  C94      1.0000 0.57760  0.64830  0.59340  Biso   1.000  C
  C95      1.0000 0.57760  0.85170  0.09340  Biso   1.000  C
  C96      1.0000 0.42240  0.35170  0.40660  Biso   1.000  C
  H73      1.0000 0.47410  0.09940  0.89250  Biso   1.000  H
  H74      1.0000 0.52590  0.59940  0.60750  Biso   1.000  H
  H75      1.0000 0.52590  0.90060  0.10750  Biso   1.000  H
  H76      1.0000 0.47410  0.40060  0.39250  Biso   1.000  H
  C97      1.0000 0.98410  0.71610  0.25520  Biso   1.000  C
  C98      1.0000 0.01590  0.21610  0.24480  Biso   1.000  C
  C99      1.0000 0.01590  0.28390  0.74480  Biso   1.000  C
  C100     1.0000 0.98410  0.78390  0.75520  Biso   1.000  C
  H77      1.0000 0.94350  0.73850  0.20760  Biso   1.000  H
  H78      1.0000 0.05650  0.23850  0.29240  Biso   1.000  H
  H79      1.0000 0.05650  0.26150  0.79240  Biso   1.000  H
  H80      1.0000 0.94350  0.76150  0.70760  Biso   1.000  H
  H81      1.0000 0.96380  0.76460  0.29220  Biso   1.000  H
  H82      1.0000 0.03620  0.26460  0.20780  Biso   1.000  H
  H83      1.0000 0.03620  0.23540  0.70780  Biso   1.000  H
  H84      1.0000 0.96380  0.73540  0.79220  Biso   1.000  H
  H85      1.0000 0.96710  0.63800  0.26470  Biso   1.000  H
  H86      1.0000 0.03290  0.13800  0.23530  Biso   1.000  H
  H87      1.0000 0.03290  0.36200  0.73530  Biso   1.000  H
  H88      1.0000 0.96710  0.86200  0.76470  Biso   1.000  H
  C101     1.0000 0.10230  0.72710  0.25690  Biso   1.000  C
  C102     1.0000 0.89770  0.22710  0.24310  Biso   1.000  C
  C103     1.0000 0.89770  0.27290  0.74310  Biso   1.000  C
  C104     1.0000 0.10230  0.77290  0.75690  Biso   1.000  C
