data_image0
_cell_length_a       4.1664
_cell_length_b       10.4621
_cell_length_c       25.518
_cell_angle_alpha    90
_cell_angle_beta     90
_cell_angle_gamma    90

_symmetry_space_group_name_H-M    "P 1"
_symmetry_int_tables_number       1

loop_
  _symmetry_equiv_pos_as_xyz
  'x, y, z'

loop_
  _atom_site_label
  _atom_site_occupancy
  _atom_site_fract_x
  _atom_site_fract_y
  _atom_site_fract_z
  _atom_site_thermal_displace_type
  _atom_site_B_iso_or_equiv
  _atom_site_type_symbol
  I1       1.0000 0.66039  0.42090  0.11780  Biso   1.000  I
  I2       1.0000 0.83961  0.57910  0.61780  Biso   1.000  I
  I3       1.0000 0.16039  0.07910  0.88220  Biso   1.000  I
  I4       1.0000 0.33961  0.92090  0.38220  Biso   1.000  I
  Cu1      1.0000 0.16241  0.27290  0.12007  Biso   1.000  Cu
  Cu2      1.0000 0.33759  0.72710  0.62007  Biso   1.000  Cu
  Cu3      1.0000 0.66241  0.22710  0.87993  Biso   1.000  Cu
  Cu4      1.0000 0.83759  0.77290  0.37993  Biso   1.000  Cu
  N1       1.0000 0.31020  0.10920  0.07823  Biso   1.000  N
  N2       1.0000 0.18980  0.89080  0.57823  Biso   1.000  N
  N3       1.0000 0.81020  0.39080  0.92177  Biso   1.000  N
  N4       1.0000 0.68980  0.60920  0.42177  Biso   1.000  N
  N5       1.0000 0.99470  0.12830  0.17018  Biso   1.000  N
  N6       1.0000 0.50530  0.87170  0.67018  Biso   1.000  N
  N7       1.0000 0.49470  0.37170  0.82982  Biso   1.000  N
  N8       1.0000 0.00530  0.62830  0.32982  Biso   1.000  N
  C1       1.0000 0.23340  0.99920  0.10317  Biso   1.000  C
  C2       1.0000 0.26660  0.00080  0.60317  Biso   1.000  C
  C3       1.0000 0.73340  0.50080  0.89683  Biso   1.000  C
  C4       1.0000 0.76660  0.49920  0.39683  Biso   1.000  C
  C5       1.0000 0.82490  0.13780  0.21386  Biso   1.000  C
  C6       1.0000 0.67510  0.86220  0.71386  Biso   1.000  C
  C7       1.0000 0.32490  0.36220  0.78614  Biso   1.000  C
  C8       1.0000 0.17510  0.63780  0.28614  Biso   1.000  C
  H1       1.0000 0.78260  0.21910  0.22690  Biso   1.000  H
  H2       1.0000 0.71740  0.78090  0.72690  Biso   1.000  H
  H3       1.0000 0.28260  0.28090  0.77310  Biso   1.000  H
  H4       1.0000 0.21740  0.71910  0.27310  Biso   1.000  H
  C9       1.0000 0.05150  0.00840  0.15161  Biso   1.000  C
  C10      1.0000 0.44850  0.99160  0.65161  Biso   1.000  C
  C11      1.0000 0.55150  0.49160  0.84839  Biso   1.000  C
  C12      1.0000 0.94850  0.50840  0.34839  Biso   1.000  C
  C13      1.0000 0.32190  0.87750  0.08441  Biso   1.000  C
  C14      1.0000 0.17810  0.12250  0.58441  Biso   1.000  C
  C15      1.0000 0.82190  0.62250  0.91559  Biso   1.000  C
  C16      1.0000 0.67810  0.37750  0.41559  Biso   1.000  C
  C17      1.0000 0.48340  0.10050  0.03491  Biso   1.000  C
  C18      1.0000 0.01660  0.89950  0.53491  Biso   1.000  C
  C19      1.0000 0.98340  0.39950  0.96509  Biso   1.000  C
  C20      1.0000 0.51660  0.60050  0.46509  Biso   1.000  C
  H5       1.0000 0.53780  0.17520  0.01730  Biso   1.000  H
  H6       1.0000 0.96220  0.82480  0.51730  Biso   1.000  H
  H7       1.0000 0.03780  0.32480  0.98270  Biso   1.000  H
  H8       1.0000 0.46220  0.67520  0.48270  Biso   1.000  H
  C21      1.0000 0.94750  0.89730  0.17715  Biso   1.000  C
  C22      1.0000 0.55250  0.10270  0.67715  Biso   1.000  C
  C23      1.0000 0.44750  0.60270  0.82285  Biso   1.000  C
  C24      1.0000 0.05250  0.39730  0.32285  Biso   1.000  C
  C25      1.0000 0.76950  0.91350  0.22338  Biso   1.000  C
  C26      1.0000 0.73050  0.08650  0.72338  Biso   1.000  C
  C27      1.0000 0.26950  0.58650  0.77662  Biso   1.000  C
  C28      1.0000 0.23050  0.41350  0.27662  Biso   1.000  C
  H9       1.0000 0.69520  0.84250  0.24170  Biso   1.000  H
  H10      1.0000 0.80480  0.15750  0.74170  Biso   1.000  H
  H11      1.0000 0.19520  0.65750  0.75830  Biso   1.000  H
  H12      1.0000 0.30480  0.34250  0.25830  Biso   1.000  H
  C29      1.0000 0.21100  0.76600  0.11230  Biso   1.000  C
  C30      1.0000 0.28900  0.23400  0.61230  Biso   1.000  C
  C31      1.0000 0.71100  0.73400  0.88770  Biso   1.000  C
  C32      1.0000 0.78900  0.26600  0.38770  Biso   1.000  C
  H13      1.0000 0.26770  0.68540  0.10000  Biso   1.000  H
  H14      1.0000 0.23230  0.31460  0.60000  Biso   1.000  H
  H15      1.0000 0.76770  0.81460  0.90000  Biso   1.000  H
  H16      1.0000 0.73230  0.18540  0.40000  Biso   1.000  H
  C33      1.0000 0.70600  0.03320  0.24137  Biso   1.000  C
  C34      1.0000 0.79400  0.96680  0.74137  Biso   1.000  C
  C35      1.0000 0.20600  0.46680  0.75863  Biso   1.000  C
  C36      1.0000 0.29400  0.53320  0.25863  Biso   1.000  C
  H17      1.0000 0.58500  0.04500  0.27160  Biso   1.000  H
  H18      1.0000 0.91500  0.95500  0.77160  Biso   1.000  H
  H19      1.0000 0.08500  0.45500  0.72840  Biso   1.000  H
  H20      1.0000 0.41500  0.54500  0.22840  Biso   1.000  H
  C37      1.0000 0.50590  0.87320  0.03889  Biso   1.000  C
  C38      1.0000 0.99410  0.12680  0.53889  Biso   1.000  C
  C39      1.0000 0.00590  0.62680  0.96111  Biso   1.000  C
  C40      1.0000 0.49410  0.37320  0.46111  Biso   1.000  C
  H21      1.0000 0.57200  0.79500  0.02540  Biso   1.000  H
  H22      1.0000 0.92800  0.20500  0.52540  Biso   1.000  H
  H23      1.0000 0.07200  0.70500  0.97460  Biso   1.000  H
  H24      1.0000 0.42800  0.29500  0.47460  Biso   1.000  H
  C41      1.0000 0.02860  0.77500  0.15550  Biso   1.000  C
  C42      1.0000 0.47140  0.22500  0.65550  Biso   1.000  C
  C43      1.0000 0.52860  0.72500  0.84450  Biso   1.000  C
  C44      1.0000 0.97140  0.27500  0.34450  Biso   1.000  C
  H25      1.0000 0.95380  0.70100  0.17150  Biso   1.000  H
  H26      1.0000 0.54620  0.29900  0.67150  Biso   1.000  H
  H27      1.0000 0.45380  0.79900  0.82850  Biso   1.000  H
  H28      1.0000 0.04620  0.20100  0.32850  Biso   1.000  H
  C45      1.0000 0.58840  0.98320  0.01436  Biso   1.000  C
  C46      1.0000 0.91160  0.01680  0.51436  Biso   1.000  C
  C47      1.0000 0.08840  0.51680  0.98564  Biso   1.000  C
  C48      1.0000 0.41160  0.48320  0.48564  Biso   1.000  C
  H29      1.0000 0.71350  0.98110  0.98420  Biso   1.000  H
  H30      1.0000 0.78650  0.01890  0.48420  Biso   1.000  H
  H31      1.0000 0.21350  0.51890  0.01580  Biso   1.000  H
  H32      1.0000 0.28650  0.48110  0.51580  Biso   1.000  H
