data_image0
_cell_length_a       8.346
_cell_length_b       9.214
_cell_length_c       9.782
_cell_angle_alpha    63.71
_cell_angle_beta     74.209
_cell_angle_gamma    79.287

_symmetry_space_group_name_H-M    "P 1"
_symmetry_int_tables_number       1

loop_
  _symmetry_equiv_pos_as_xyz
  'x, y, z'

loop_
  _atom_site_label
  _atom_site_occupancy
  _atom_site_fract_x
  _atom_site_fract_y
  _atom_site_fract_z
  _atom_site_thermal_displace_type
  _atom_site_B_iso_or_equiv
  _atom_site_type_symbol
  Cu1      1.0000 0.20437  0.59024  0.93707  Biso   1.000  Cu
  Cu2      1.0000 0.79563  0.40976  0.06293  Biso   1.000  Cu
  Cu3      1.0000 0.07254  0.17228  0.80370  Biso   1.000  Cu
  Cu4      1.0000 0.92746  0.82772  0.19630  Biso   1.000  Cu
  C1       1.0000 0.38800  0.51330  0.18510  Biso   1.000  C
  C2       1.0000 0.61200  0.48670  0.81490  Biso   1.000  C
  H1       1.0000 0.42230  0.61680  0.11890  Biso   1.000  H
  H2       1.0000 0.57770  0.38320  0.88110  Biso   1.000  H
  C3       1.0000 0.23350  0.30560  0.24250  Biso   1.000  C
  C4       1.0000 0.76650  0.69440  0.75750  Biso   1.000  C
  H3       1.0000 0.15850  0.26320  0.21720  Biso   1.000  H
  H4       1.0000 0.84150  0.73680  0.78280  Biso   1.000  H
  C5       1.0000 0.28770  0.21270  0.37900  Biso   1.000  C
  C6       1.0000 0.71230  0.78730  0.62100  Biso   1.000  C
  H5       1.0000 0.24940  0.11030  0.44350  Biso   1.000  H
  H6       1.0000 0.75060  0.88970  0.55650  Biso   1.000  H
  C7       1.0000 0.44890  0.42960  0.32100  Biso   1.000  C
  C8       1.0000 0.55110  0.57040  0.67900  Biso   1.000  C
  H7       1.0000 0.52000  0.47710  0.34530  Biso   1.000  H
  H8       1.0000 0.48000  0.52290  0.65470  Biso   1.000  H
  C9       1.0000 0.40100  0.27260  0.42050  Biso   1.000  C
  C10      1.0000 0.59900  0.72740  0.57950  Biso   1.000  C
  C11      1.0000 0.59210  0.18440  0.60800  Biso   1.000  C
  C12      1.0000 0.40790  0.81560  0.39200  Biso   1.000  C
  C13      1.0000 0.72770  0.27480  0.51130  Biso   1.000  C
  C14      1.0000 0.27230  0.72520  0.48870  Biso   1.000  C
  H9       1.0000 0.73090  0.33630  0.40550  Biso   1.000  H
  H10      1.0000 0.26910  0.66370  0.59450  Biso   1.000  H
  C15      1.0000 0.85710  0.27120  0.57550  Biso   1.000  C
  C16      1.0000 0.14290  0.72880  0.42450  Biso   1.000  C
  H11      1.0000 0.94490  0.33500  0.50980  Biso   1.000  H
  H12      1.0000 0.05510  0.66500  0.49020  Biso   1.000  H
  C17      1.0000 0.59870  0.09230  0.76470  Biso   1.000  C
  C18      1.0000 0.40130  0.90770  0.23530  Biso   1.000  C
  H13      1.0000 0.51070  0.03040  0.83380  Biso   1.000  H
  H14      1.0000 0.48930  0.96960  0.16620  Biso   1.000  H
  C19      1.0000 0.73620  0.09360  0.81620  Biso   1.000  C
  C20      1.0000 0.26380  0.90640  0.18380  Biso   1.000  C
  H15      1.0000 0.73950  0.02880  0.92030  Biso   1.000  H
  H16      1.0000 0.26050  0.97120  0.07970  Biso   1.000  H
  C21      1.0000 0.16430  0.43080  0.87550  Biso   1.000  C
  C22      1.0000 0.83570  0.56920  0.12450  Biso   1.000  C
  C23      1.0000 0.19540  0.81860  0.85630  Biso   1.000  C
  C24      1.0000 0.80460  0.18140  0.14370  Biso   1.000  C
  H17      1.0000 0.39900  0.08200  0.62000  Biso   1.000  H
  H18      1.0000 0.60100  0.91800  0.38000  Biso   1.000  H
  N1       1.0000 0.28350  0.45480  0.14360  Biso   1.000  N
  N2       1.0000 0.71650  0.54520  0.85640  Biso   1.000  N
  N3       1.0000 0.45550  0.17270  0.55810  Biso   1.000  N
  N4       1.0000 0.54450  0.82730  0.44190  Biso   1.000  N
  N5       1.0000 0.86600  0.18340  0.72430  Biso   1.000  N
  N6       1.0000 0.13400  0.81660  0.27570  Biso   1.000  N
  N7       1.0000 0.17660  0.95690  0.81890  Biso   1.000  N
  N8       1.0000 0.82340  0.04310  0.18110  Biso   1.000  N
  N9       1.0000 0.13680  0.33510  0.84310  Biso   1.000  N
  N10      1.0000 0.86320  0.66490  0.15690  Biso   1.000  N
