data_image0
_cell_length_a       23.99
_cell_length_b       4.792
_cell_length_c       14.19
_cell_angle_alpha    90
_cell_angle_beta     107.285
_cell_angle_gamma    90

_symmetry_space_group_name_H-M    "P 1"
_symmetry_int_tables_number       1

loop_
  _symmetry_equiv_pos_as_xyz
  'x, y, z'

loop_
  _atom_site_label
  _atom_site_occupancy
  _atom_site_fract_x
  _atom_site_fract_y
  _atom_site_fract_z
  _atom_site_thermal_displace_type
  _atom_site_B_iso_or_equiv
  _atom_site_type_symbol
  Cu1      1.0000 0.47895  0.02490  0.62745  Biso   1.000  Cu
  Cu2      1.0000 0.52105  0.02490  0.87255  Biso   1.000  Cu
  Cu3      1.0000 0.97895  0.52490  0.62745  Biso   1.000  Cu
  Cu4      1.0000 0.02105  0.52490  0.87255  Biso   1.000  Cu
  Cu5      1.0000 0.52105  0.97510  0.37255  Biso   1.000  Cu
  Cu6      1.0000 0.47895  0.97510  0.12745  Biso   1.000  Cu
  Cu7      1.0000 0.02105  0.47510  0.37255  Biso   1.000  Cu
  Cu8      1.0000 0.97895  0.47510  0.12745  Biso   1.000  Cu
  C1       1.0000 0.45934  0.40310  0.61930  Biso   1.000  C
  C2       1.0000 0.54066  0.40310  0.88070  Biso   1.000  C
  C3       1.0000 0.95934  0.90310  0.61930  Biso   1.000  C
  C4       1.0000 0.04066  0.90310  0.88070  Biso   1.000  C
  C5       1.0000 0.54066  0.59690  0.38070  Biso   1.000  C
  C6       1.0000 0.45934  0.59690  0.11930  Biso   1.000  C
  C7       1.0000 0.04066  0.09690  0.38070  Biso   1.000  C
  C8       1.0000 0.95934  0.09690  0.11930  Biso   1.000  C
  C9       1.0000 0.60226  0.14330  0.61240  Biso   1.000  C
  C10      1.0000 0.39774  0.14330  0.88760  Biso   1.000  C
  C11      1.0000 0.10226  0.64330  0.61240  Biso   1.000  C
  C12      1.0000 0.89774  0.64330  0.88760  Biso   1.000  C
  C13      1.0000 0.39774  0.85670  0.38760  Biso   1.000  C
  C14      1.0000 0.60226  0.85670  0.11240  Biso   1.000  C
  C15      1.0000 0.89774  0.35670  0.38760  Biso   1.000  C
  C16      1.0000 0.10226  0.35670  0.11240  Biso   1.000  C
  H1       1.0000 0.58940  0.29810  0.57220  Biso   1.000  H
  H2       1.0000 0.41060  0.29810  0.92780  Biso   1.000  H
  H3       1.0000 0.08940  0.79810  0.57220  Biso   1.000  H
  H4       1.0000 0.91060  0.79810  0.92780  Biso   1.000  H
  H5       1.0000 0.41060  0.70190  0.42780  Biso   1.000  H
  H6       1.0000 0.58940  0.70190  0.07220  Biso   1.000  H
  H7       1.0000 0.91060  0.20190  0.42780  Biso   1.000  H
  H8       1.0000 0.08940  0.20190  0.07220  Biso   1.000  H
  C17      1.0000 0.60683  0.79570  0.70190  Biso   1.000  C
  C18      1.0000 0.39317  0.79570  0.79810  Biso   1.000  C
  C19      1.0000 0.10683  0.29570  0.70190  Biso   1.000  C
  C20      1.0000 0.89317  0.29570  0.79810  Biso   1.000  C
  C21      1.0000 0.39317  0.20430  0.29810  Biso   1.000  C
  C22      1.0000 0.60683  0.20430  0.20190  Biso   1.000  C
  C23      1.0000 0.89317  0.70430  0.29810  Biso   1.000  C
  C24      1.0000 0.10683  0.70430  0.20190  Biso   1.000  C
  H9       1.0000 0.59560  0.65530  0.73780  Biso   1.000  H
  H10      1.0000 0.40440  0.65530  0.76220  Biso   1.000  H
  H11      1.0000 0.09560  0.15530  0.73780  Biso   1.000  H
  H12      1.0000 0.90440  0.15530  0.76220  Biso   1.000  H
  H13      1.0000 0.40440  0.34470  0.26220  Biso   1.000  H
  H14      1.0000 0.59560  0.34470  0.23780  Biso   1.000  H
  H15      1.0000 0.90440  0.84470  0.26220  Biso   1.000  H
  H16      1.0000 0.09560  0.84470  0.23780  Biso   1.000  H
  C25      1.0000 0.70741  0.15310  0.61400  Biso   1.000  C
  C26      1.0000 0.29259  0.15310  0.88600  Biso   1.000  C
  C27      1.0000 0.20741  0.65310  0.61400  Biso   1.000  C
  C28      1.0000 0.79259  0.65310  0.88600  Biso   1.000  C
  C29      1.0000 0.29259  0.84690  0.38600  Biso   1.000  C
  C30      1.0000 0.70741  0.84690  0.11400  Biso   1.000  C
  C31      1.0000 0.79259  0.34690  0.38600  Biso   1.000  C
  C32      1.0000 0.20741  0.34690  0.11400  Biso   1.000  C
  H17      1.0000 0.73820  0.19570  0.67410  Biso   1.000  H
  H18      1.0000 0.26180  0.19570  0.82590  Biso   1.000  H
  H19      1.0000 0.23820  0.69570  0.67410  Biso   1.000  H
  H20      1.0000 0.76180  0.69570  0.82590  Biso   1.000  H
  H21      1.0000 0.26180  0.80430  0.32590  Biso   1.000  H
  H22      1.0000 0.73820  0.80430  0.17410  Biso   1.000  H
  H23      1.0000 0.76180  0.30430  0.32590  Biso   1.000  H
  H24      1.0000 0.23820  0.30430  0.17410  Biso   1.000  H
  H25      1.0000 0.69720  0.32430  0.57630  Biso   1.000  H
  H26      1.0000 0.30280  0.32430  0.92370  Biso   1.000  H
  H27      1.0000 0.19720  0.82430  0.57630  Biso   1.000  H
  H28      1.0000 0.80280  0.82430  0.92370  Biso   1.000  H
  H29      1.0000 0.30280  0.67570  0.42370  Biso   1.000  H
  H30      1.0000 0.69720  0.67570  0.07630  Biso   1.000  H
  H31      1.0000 0.80280  0.17570  0.42370  Biso   1.000  H
  H32      1.0000 0.19720  0.17570  0.07630  Biso   1.000  H
  C33      1.0000 0.72932  0.94320  0.55480  Biso   1.000  C
  C34      1.0000 0.27068  0.94320  0.94520  Biso   1.000  C
  C35      1.0000 0.22932  0.44320  0.55480  Biso   1.000  C
  C36      1.0000 0.77068  0.44320  0.94520  Biso   1.000  C
  C37      1.0000 0.27068  0.05680  0.44520  Biso   1.000  C
  C38      1.0000 0.72932  0.05680  0.05480  Biso   1.000  C
  C39      1.0000 0.77068  0.55680  0.44520  Biso   1.000  C
  C40      1.0000 0.22932  0.55680  0.05480  Biso   1.000  C
  C41      1.0000 0.69562  0.86540  0.46150  Biso   1.000  C
  C42      1.0000 0.30438  0.86540  0.03850  Biso   1.000  C
  C43      1.0000 0.19562  0.36540  0.46150  Biso   1.000  C
  C44      1.0000 0.80438  0.36540  0.03850  Biso   1.000  C
  C45      1.0000 0.30438  0.13460  0.53850  Biso   1.000  C
  C46      1.0000 0.69562  0.13460  0.96150  Biso   1.000  C
  C47      1.0000 0.80438  0.63460  0.53850  Biso   1.000  C
  C48      1.0000 0.19562  0.63460  0.96150  Biso   1.000  C
  H33      1.0000 0.65870  0.94230  0.43490  Biso   1.000  H
  H34      1.0000 0.34130  0.94230  0.06510  Biso   1.000  H
  H35      1.0000 0.15870  0.44230  0.43490  Biso   1.000  H
  H36      1.0000 0.84130  0.44230  0.06510  Biso   1.000  H
  H37      1.0000 0.34130  0.05770  0.56510  Biso   1.000  H
  H38      1.0000 0.65870  0.05770  0.93490  Biso   1.000  H
  H39      1.0000 0.84130  0.55770  0.56510  Biso   1.000  H
  H40      1.0000 0.15870  0.55770  0.93490  Biso   1.000  H
  C49      1.0000 0.78368  0.82460  0.59210  Biso   1.000  C
  C50      1.0000 0.21632  0.82460  0.90790  Biso   1.000  C
  C51      1.0000 0.28368  0.32460  0.59210  Biso   1.000  C
  C52      1.0000 0.71632  0.32460  0.90790  Biso   1.000  C
  C53      1.0000 0.21632  0.17540  0.40790  Biso   1.000  C
  C54      1.0000 0.78368  0.17540  0.09210  Biso   1.000  C
  C55      1.0000 0.71632  0.67540  0.40790  Biso   1.000  C
  C56      1.0000 0.28368  0.67540  0.09210  Biso   1.000  C
  H41      1.0000 0.80680  0.87430  0.65490  Biso   1.000  H
  H42      1.0000 0.19320  0.87430  0.84510  Biso   1.000  H
  H43      1.0000 0.30680  0.37430  0.65490  Biso   1.000  H
  H44      1.0000 0.69320  0.37430  0.84510  Biso   1.000  H
  H45      1.0000 0.19320  0.12570  0.34510  Biso   1.000  H
  H46      1.0000 0.80680  0.12570  0.15490  Biso   1.000  H
  H47      1.0000 0.69320  0.62570  0.34510  Biso   1.000  H
  H48      1.0000 0.30680  0.62570  0.15490  Biso   1.000  H
  N1       1.0000 0.56907  0.98880  0.65010  Biso   1.000  N
  N2       1.0000 0.43093  0.98880  0.84990  Biso   1.000  N
  N3       1.0000 0.06907  0.48880  0.65010  Biso   1.000  N
  N4       1.0000 0.93093  0.48880  0.84990  Biso   1.000  N
  N5       1.0000 0.43093  0.01120  0.34990  Biso   1.000  N
  N6       1.0000 0.56907  0.01120  0.15010  Biso   1.000  N
  N7       1.0000 0.93093  0.51120  0.34990  Biso   1.000  N
  N8       1.0000 0.06907  0.51120  0.15010  Biso   1.000  N
  N9       1.0000 0.66017  0.82090  0.69790  Biso   1.000  N
  N10      1.0000 0.33983  0.82090  0.80210  Biso   1.000  N
  N11      1.0000 0.16017  0.32090  0.69790  Biso   1.000  N
  N12      1.0000 0.83983  0.32090  0.80210  Biso   1.000  N
  N13      1.0000 0.33983  0.17910  0.30210  Biso   1.000  N
  N14      1.0000 0.66017  0.17910  0.19790  Biso   1.000  N
  N15      1.0000 0.83983  0.67910  0.30210  Biso   1.000  N
  N16      1.0000 0.16017  0.67910  0.19790  Biso   1.000  N
  N17      1.0000 0.65633  0.04880  0.63930  Biso   1.000  N
  N18      1.0000 0.34367  0.04880  0.86070  Biso   1.000  N
  N19      1.0000 0.15633  0.54880  0.63930  Biso   1.000  N
  N20      1.0000 0.84367  0.54880  0.86070  Biso   1.000  N
  N21      1.0000 0.34367  0.95120  0.36070  Biso   1.000  N
  N22      1.0000 0.65633  0.95120  0.13930  Biso   1.000  N
  N23      1.0000 0.84367  0.45120  0.36070  Biso   1.000  N
  N24      1.0000 0.15633  0.45120  0.13930  Biso   1.000  N
  N25      1.0000 0.45727  0.64150  0.61906  Biso   1.000  N
  N26      1.0000 0.54273  0.64150  0.88094  Biso   1.000  N
  N27      1.0000 0.95727  0.14150  0.61906  Biso   1.000  N
  N28      1.0000 0.04273  0.14150  0.88094  Biso   1.000  N
  N29      1.0000 0.54273  0.35850  0.38094  Biso   1.000  N
  N30      1.0000 0.45727  0.35850  0.11906  Biso   1.000  N
  N31      1.0000 0.04273  0.85850  0.38094  Biso   1.000  N
  N32      1.0000 0.95727  0.85850  0.11906  Biso   1.000  N
