data_image0
_cell_length_a       4.7764
_cell_length_b       7.746
_cell_length_c       13.95
_cell_angle_alpha    83.428
_cell_angle_beta     81.993
_cell_angle_gamma    76.088

_symmetry_space_group_name_H-M    "P 1"
_symmetry_int_tables_number       1

loop_
  _symmetry_equiv_pos_as_xyz
  'x, y, z'

loop_
  _atom_site_label
  _atom_site_occupancy
  _atom_site_fract_x
  _atom_site_fract_y
  _atom_site_fract_z
  _atom_site_thermal_displace_type
  _atom_site_B_iso_or_equiv
  _atom_site_type_symbol
  Cu1      1.0000 0.40918  0.32686  0.96342  Biso   1.000  Cu
  Cu2      1.0000 0.59082  0.67314  0.03658  Biso   1.000  Cu
  C1       1.0000 0.03450  0.34460  0.92440  Biso   1.000  C
  C2       1.0000 0.96550  0.65540  0.07560  Biso   1.000  C
  C3       1.0000 0.14750  0.21960  0.17320  Biso   1.000  C
  C4       1.0000 0.85250  0.78040  0.82680  Biso   1.000  C
  H1       1.0000 0.97550  0.30450  0.16610  Biso   1.000  H
  H2       1.0000 0.02450  0.69550  0.83390  Biso   1.000  H
  C5       1.0000 0.56000  0.05750  0.14000  Biso   1.000  C
  C6       1.0000 0.44000  0.94250  0.86000  Biso   1.000  C
  H3       1.0000 0.73850  0.00290  0.10840  Biso   1.000  H
  H4       1.0000 0.26150  0.99710  0.89160  Biso   1.000  H
  C7       1.0000 0.62250  0.89130  0.30340  Biso   1.000  C
  C8       1.0000 0.37750  0.10870  0.69660  Biso   1.000  C
  H5       1.0000 0.68970  0.95680  0.34740  Biso   1.000  H
  H6       1.0000 0.31030  0.04320  0.65260  Biso   1.000  H
  H7       1.0000 0.79150  0.81570  0.27010  Biso   1.000  H
  H8       1.0000 0.20850  0.18430  0.72990  Biso   1.000  H
  C9       1.0000 0.30050  0.81480  0.45180  Biso   1.000  C
  C10      1.0000 0.69950  0.18520  0.54820  Biso   1.000  C
  H9       1.0000 0.32420  0.91510  0.47770  Biso   1.000  H
  H10      1.0000 0.67580  0.08490  0.52230  Biso   1.000  H
  C11      1.0000 0.43440  0.77580  0.36140  Biso   1.000  C
  C12      1.0000 0.56560  0.22420  0.63860  Biso   1.000  C
  C13      1.0000 0.39580  0.62690  0.32550  Biso   1.000  C
  C14      1.0000 0.60420  0.37310  0.67450  Biso   1.000  C
  H11      1.0000 0.48520  0.59700  0.26410  Biso   1.000  H
  H12      1.0000 0.51480  0.40300  0.73590  Biso   1.000  H
  C15      1.0000 0.22650  0.52080  0.37890  Biso   1.000  C
  C16      1.0000 0.77350  0.47920  0.62110  Biso   1.000  C
  H13      1.0000 0.20270  0.42110  0.35240  Biso   1.000  H
  H14      1.0000 0.79730  0.57890  0.64760  Biso   1.000  H
  C17      1.0000 0.09110  0.55810  0.47080  Biso   1.000  C
  C18      1.0000 0.90890  0.44190  0.52920  Biso   1.000  C
  C19      1.0000 0.13060  0.70910  0.50600  Biso   1.000  C
  C20      1.0000 0.86940  0.29090  0.49400  Biso   1.000  C
  H15      1.0000 0.04120  0.74010  0.56720  Biso   1.000  H
  H16      1.0000 0.95880  0.25990  0.43280  Biso   1.000  H
  N1       1.0000 0.79680  0.34420  0.93060  Biso   1.000  N
  N2       1.0000 0.20320  0.65580  0.06940  Biso   1.000  N
  N3       1.0000 0.36320  0.18580  0.10010  Biso   1.000  N
  N4       1.0000 0.63680  0.81420  0.89990  Biso   1.000  N
  N5       1.0000 0.46480  0.01850  0.23150  Biso   1.000  N
  N6       1.0000 0.53520  0.98150  0.76850  Biso   1.000  N
  N7       1.0000 0.19870  0.12360  0.25510  Biso   1.000  N
  N8       1.0000 0.80130  0.87640  0.74490  Biso   1.000  N
