data_image0
_cell_length_a       12.4075
_cell_length_b       12.6342
_cell_length_c       12.7497
_cell_angle_alpha    114.597
_cell_angle_beta     101.217
_cell_angle_gamma    109.392

_symmetry_space_group_name_H-M    "P 1"
_symmetry_int_tables_number       1

loop_
  _symmetry_equiv_pos_as_xyz
  'x, y, z'

loop_
  _atom_site_label
  _atom_site_occupancy
  _atom_site_fract_x
  _atom_site_fract_y
  _atom_site_fract_z
  _atom_site_thermal_displace_type
  _atom_site_B_iso_or_equiv
  _atom_site_type_symbol
  Cu1      1.0000 0.64008  0.13621  0.32772  Biso   1.000  Cu
  Cu2      1.0000 0.35992  0.86379  0.67228  Biso   1.000  Cu
  N1       1.0000 0.45570  0.03910  0.19400  Biso   1.000  N
  N2       1.0000 0.54430  0.96090  0.80600  Biso   1.000  N
  C1       1.0000 0.34690  0.93690  0.16880  Biso   1.000  C
  C2       1.0000 0.65310  0.06310  0.83120  Biso   1.000  C
  C3       1.0000 0.33840  0.87480  0.23770  Biso   1.000  C
  C4       1.0000 0.66160  0.12520  0.76230  Biso   1.000  C
  H1       1.0000 0.40880  0.89950  0.30510  Biso   1.000  H
  H2       1.0000 0.59120  0.10050  0.69490  Biso   1.000  H
  C5       1.0000 0.22300  0.77540  0.20360  Biso   1.000  C
  C6       1.0000 0.77700  0.22460  0.79640  Biso   1.000  C
  H3       1.0000 0.21370  0.73150  0.24880  Biso   1.000  H
  H4       1.0000 0.78630  0.26850  0.75120  Biso   1.000  H
  C7       1.0000 0.11950  0.73880  0.10300  Biso   1.000  C
  C8       1.0000 0.88050  0.26120  0.89700  Biso   1.000  C
  H5       1.0000 0.04160  0.67040  0.08170  Biso   1.000  H
  H6       1.0000 0.95840  0.32960  0.91830  Biso   1.000  H
  C9       1.0000 0.12760  0.79840  0.03560  Biso   1.000  C
  C10      1.0000 0.87240  0.20160  0.96440  Biso   1.000  C
  H7       1.0000 0.05680  0.77220  0.96770  Biso   1.000  H
  H8       1.0000 0.94320  0.22780  0.03230  Biso   1.000  H
  C11      1.0000 0.24210  0.89870  0.06820  Biso   1.000  C
  C12      1.0000 0.75790  0.10130  0.93180  Biso   1.000  C
  S1       1.0000 0.29090  0.99620  0.00312  Biso   1.000  S
  S2       1.0000 0.70910  0.00380  0.99688  Biso   1.000  S
  C13      1.0000 0.44330  0.08110  0.11610  Biso   1.000  C
  C14      1.0000 0.55670  0.91890  0.88390  Biso   1.000  C
  C15      1.0000 0.54970  0.18500  0.12770  Biso   1.000  C
  C16      1.0000 0.45030  0.81500  0.87230  Biso   1.000  C
  C17      1.0000 0.53020  0.23000  0.04210  Biso   1.000  C
  C18      1.0000 0.46980  0.77000  0.95790  Biso   1.000  C
  H9       1.0000 0.45030  0.19530  0.98150  Biso   1.000  H
  H10      1.0000 0.54970  0.80470  0.01850  Biso   1.000  H
  C19      1.0000 0.63270  0.32530  0.05290  Biso   1.000  C
  C20      1.0000 0.36730  0.67470  0.94710  Biso   1.000  C
  H11      1.0000 0.62680  0.35870  0.99880  Biso   1.000  H
  H12      1.0000 0.37320  0.64130  0.00120  Biso   1.000  H
  C21      1.0000 0.74820  0.37290  0.14690  Biso   1.000  C
  C22      1.0000 0.25180  0.62710  0.85310  Biso   1.000  C
  C23      1.0000 0.85560  0.47200  0.16010  Biso   1.000  C
  C24      1.0000 0.14440  0.52800  0.83990  Biso   1.000  C
  H13      1.0000 0.84950  0.50790  0.10830  Biso   1.000  H
  H14      1.0000 0.15050  0.49210  0.89170  Biso   1.000  H
  C25      1.0000 0.96800  0.51590  0.24750  Biso   1.000  C
  C26      1.0000 0.03200  0.48410  0.75250  Biso   1.000  C
  H15      1.0000 0.03980  0.58230  0.25580  Biso   1.000  H
  H16      1.0000 0.96020  0.41770  0.74420  Biso   1.000  H
  C27      1.0000 0.97890  0.46460  0.32500  Biso   1.000  C
  C28      1.0000 0.02110  0.53540  0.67500  Biso   1.000  C
  H17      1.0000 0.05820  0.49590  0.38460  Biso   1.000  H
  H18      1.0000 0.94180  0.50410  0.61540  Biso   1.000  H
  C29      1.0000 0.87720  0.37010  0.31590  Biso   1.000  C
  C30      1.0000 0.12280  0.62990  0.68410  Biso   1.000  C
  H19      1.0000 0.88550  0.33640  0.36950  Biso   1.000  H
  H20      1.0000 0.11450  0.66360  0.63050  Biso   1.000  H
  C31      1.0000 0.75990  0.32280  0.22700  Biso   1.000  C
  C32      1.0000 0.24010  0.67720  0.77300  Biso   1.000  C
  N3       1.0000 0.65700  0.22710  0.21690  Biso   1.000  N
  N4       1.0000 0.34300  0.77290  0.78310  Biso   1.000  N
  Cu3      1.0000 0.80255  0.80818  0.17277  Biso   1.000  Cu
  Cu4      1.0000 0.19745  0.19182  0.82723  Biso   1.000  Cu
  N5       1.0000 0.83410  0.75380  0.30860  Biso   1.000  N
  N6       1.0000 0.16590  0.24620  0.69140  Biso   1.000  N
  C33      1.0000 0.75690  0.66860  0.33430  Biso   1.000  C
  C34      1.0000 0.24310  0.33140  0.66570  Biso   1.000  C
  C35      1.0000 0.62790  0.59420  0.26600  Biso   1.000  C
  C36      1.0000 0.37210  0.40580  0.73400  Biso   1.000  C
  H21      1.0000 0.58830  0.60200  0.19990  Biso   1.000  H
  H22      1.0000 0.41170  0.39800  0.80010  Biso   1.000  H
  C37      1.0000 0.56080  0.50970  0.29750  Biso   1.000  C
  C38      1.0000 0.43920  0.49030  0.70250  Biso   1.000  C
  H23      1.0000 0.47380  0.45760  0.25170  Biso   1.000  H
  H24      1.0000 0.52620  0.54240  0.74830  Biso   1.000  H
  C39      1.0000 0.61880  0.49910  0.39630  Biso   1.000  C
  C40      1.0000 0.38120  0.50090  0.60370  Biso   1.000  C
  H25      1.0000 0.57010  0.44010  0.41610  Biso   1.000  H
  H26      1.0000 0.42990  0.55990  0.58390  Biso   1.000  H
  C41      1.0000 0.74350  0.57170  0.46450  Biso   1.000  C
  C42      1.0000 0.25650  0.42830  0.53550  Biso   1.000  C
  H27      1.0000 0.78160  0.56390  0.53120  Biso   1.000  H
  H28      1.0000 0.21840  0.43610  0.46880  Biso   1.000  H
  C43      1.0000 0.81300  0.65700  0.43430  Biso   1.000  C
  C44      1.0000 0.18700  0.34300  0.56570  Biso   1.000  C
  S3       1.0000 0.97450  0.76920  0.49590  Biso   1.000  S
  S4       1.0000 0.02550  0.23080  0.50410  Biso   1.000  S
  C45      1.0000 0.95170  0.81460  0.38570  Biso   1.000  C
  C46      1.0000 0.04830  0.18540  0.61430  Biso   1.000  C
  C47      1.0000 0.04210  0.90970  0.37030  Biso   1.000  C
  C48      1.0000 0.95790  0.09030  0.62970  Biso   1.000  C
  C49      1.0000 0.16990  0.97330  0.45720  Biso   1.000  C
  C50      1.0000 0.83010  0.02670  0.54280  Biso   1.000  C
  H29      1.0000 0.19350  0.95360  0.51960  Biso   1.000  H
  H30      1.0000 0.80650  0.04640  0.48040  Biso   1.000  H
  C51      1.0000 0.25300  0.06270  0.44310  Biso   1.000  C
  C52      1.0000 0.74700  0.93730  0.55690  Biso   1.000  C
  H31      1.0000 0.33860  0.10710  0.49500  Biso   1.000  H
  H32      1.0000 0.66140  0.89290  0.50500  Biso   1.000  H
  C53      1.0000 0.21100  0.08820  0.35160  Biso   1.000  C
  C54      1.0000 0.78900  0.91180  0.64840  Biso   1.000  C
  C55      1.0000 0.29720  0.18380  0.33950  Biso   1.000  C
  C56      1.0000 0.70280  0.81620  0.66050  Biso   1.000  C
  H33      1.0000 0.38250  0.22800  0.39250  Biso   1.000  H
  H34      1.0000 0.61750  0.77200  0.60750  Biso   1.000  H
  C57      1.0000 0.25850  0.21320  0.25170  Biso   1.000  C
  C58      1.0000 0.74150  0.78680  0.74830  Biso   1.000  C
  H35      1.0000 0.31720  0.27850  0.24510  Biso   1.000  H
  H36      1.0000 0.68280  0.72150  0.75490  Biso   1.000  H
  C59      1.0000 0.13380  0.14850  0.17190  Biso   1.000  C
  C60      1.0000 0.86620  0.85150  0.82810  Biso   1.000  C
  H37      1.0000 0.10860  0.17010  0.11150  Biso   1.000  H
  H38      1.0000 0.89140  0.82990  0.88850  Biso   1.000  H
  C61      1.0000 0.04780  0.05440  0.18010  Biso   1.000  C
  C62      1.0000 0.95220  0.94560  0.81990  Biso   1.000  C
  H39      1.0000 0.96320  0.01060  0.12520  Biso   1.000  H
  H40      1.0000 0.03680  0.98940  0.87480  Biso   1.000  H
  C63      1.0000 0.08440  0.02210  0.27010  Biso   1.000  C
  C64      1.0000 0.91560  0.97790  0.72990  Biso   1.000  C
  N7       1.0000 0.99880  0.92890  0.28030  Biso   1.000  N
  N8       1.0000 0.00120  0.07110  0.71970  Biso   1.000  N
  Cu5      1.0000 0.71743  0.46664  0.75137  Biso   1.000  Cu
  Cu6      1.0000 0.28257  0.53336  0.24863  Biso   1.000  Cu
  N9       1.0000 0.68510  0.33990  0.59220  Biso   1.000  N
  N10      1.0000 0.31490  0.66010  0.40780  Biso   1.000  N
  C65      1.0000 0.66760  0.26140  0.49340  Biso   1.000  C
  C66      1.0000 0.33240  0.73860  0.50660  Biso   1.000  C
  N11      1.0000 0.74910  0.59370  0.90960  Biso   1.000  N
  N12      1.0000 0.25090  0.40630  0.09040  Biso   1.000  N
  C67      1.0000 0.76780  0.67500  0.00910  Biso   1.000  C
  C68      1.0000 0.23220  0.32500  0.99090  Biso   1.000  C
  N13      1.0000 0.73230  0.92780  0.23120  Biso   1.000  N
  N14      1.0000 0.26770  0.07220  0.76880  Biso   1.000  N
  C69      1.0000 0.69970  0.00660  0.27130  Biso   1.000  C
  C70      1.0000 0.30030  0.99340  0.72870  Biso   1.000  C
  S5       1.0000 0.58800  0.27150  0.05880  Biso   1.000  S
  S6       1.0000 0.41200  0.72850  0.94120  Biso   1.000  S
  C71      1.0000 0.34600  0.04400  0.01600  Biso   1.000  C
  C72      1.0000 0.65400  0.95600  0.98400  Biso   1.000  C
  H41      1.0000 0.35710  0.08460  0.96750  Biso   1.000  H
  H42      1.0000 0.64290  0.91540  0.03250  Biso   1.000  H
  C73      1.0000 0.23500  0.94600  0.99600  Biso   1.000  C
  C74      1.0000 0.76500  0.05400  0.00400  Biso   1.000  C
  H43      1.0000 0.15580  0.91250  0.93270  Biso   1.000  H
  H44      1.0000 0.84420  0.08750  0.06730  Biso   1.000  H
  S7       1.0000 0.19690  0.01500  0.44620  Biso   1.000  S
  S8       1.0000 0.80310  0.98500  0.55380  Biso   1.000  S
  C75      1.0000 0.01300  0.81300  0.49000  Biso   1.000  C
  C76      1.0000 0.98700  0.18700  0.51000  Biso   1.000  C
  H45      1.0000 0.10090  0.86500  0.53870  Biso   1.000  H
  H46      1.0000 0.89910  0.13500  0.46130  Biso   1.000  H
  C77      1.0000 0.93190  0.72400  0.51300  Biso   1.000  C
  C78      1.0000 0.06810  0.27600  0.48700  Biso   1.000  C
  H47      1.0000 0.95700  0.71170  0.58150  Biso   1.000  H
  H48      1.0000 0.04300  0.28830  0.41850  Biso   1.000  H
