data_image0
_cell_length_a       12.68
_cell_length_b       6.744
_cell_length_c       8.822
_cell_angle_alpha    90
_cell_angle_beta     90
_cell_angle_gamma    90

_symmetry_space_group_name_H-M    "P 1"
_symmetry_int_tables_number       1

loop_
  _symmetry_equiv_pos_as_xyz
  'x, y, z'

loop_
  _atom_site_label
  _atom_site_occupancy
  _atom_site_fract_x
  _atom_site_fract_y
  _atom_site_fract_z
  _atom_site_thermal_displace_type
  _atom_site_B_iso_or_equiv
  _atom_site_type_symbol
  Br1      1.0000 0.37980  0.14270  0.00000  Biso   1.000  Br
  Br2      1.0000 0.62020  0.85730  0.00000  Biso   1.000  Br
  Br3      1.0000 0.87980  0.35730  0.00000  Biso   1.000  Br
  Br4      1.0000 0.12020  0.64270  0.00000  Biso   1.000  Br
  Cu1      1.0000 0.50000  0.00000  0.18120  Biso   1.000  Cu
  Cu2      1.0000 0.00000  0.50000  0.81880  Biso   1.000  Cu
  Cu3      1.0000 0.50000  0.00000  0.81880  Biso   1.000  Cu
  Cu4      1.0000 0.00000  0.50000  0.18120  Biso   1.000  Cu
  N1       1.0000 0.61140  0.33400  0.62940  Biso   1.000  N
  N2       1.0000 0.38860  0.66600  0.62940  Biso   1.000  N
  N3       1.0000 0.11140  0.16600  0.37060  Biso   1.000  N
  N4       1.0000 0.88860  0.83400  0.37060  Biso   1.000  N
  N5       1.0000 0.38860  0.66600  0.37060  Biso   1.000  N
  N6       1.0000 0.61140  0.33400  0.37060  Biso   1.000  N
  N7       1.0000 0.88860  0.83400  0.62940  Biso   1.000  N
  N8       1.0000 0.11140  0.16600  0.62940  Biso   1.000  N
  N9       1.0000 0.55490  0.16640  0.36900  Biso   1.000  N
  N10      1.0000 0.44510  0.83360  0.36900  Biso   1.000  N
  N11      1.0000 0.05490  0.33360  0.63100  Biso   1.000  N
  N12      1.0000 0.94510  0.66640  0.63100  Biso   1.000  N
  N13      1.0000 0.44510  0.83360  0.63100  Biso   1.000  N
  N14      1.0000 0.55490  0.16640  0.63100  Biso   1.000  N
  N15      1.0000 0.94510  0.66640  0.36900  Biso   1.000  N
  N16      1.0000 0.05490  0.33360  0.36900  Biso   1.000  N
  C1       1.0000 0.46790  0.90300  0.50000  Biso   1.000  C
  C2       1.0000 0.53210  0.09700  0.50000  Biso   1.000  C
  C3       1.0000 0.96790  0.59700  0.50000  Biso   1.000  C
  C4       1.0000 0.03210  0.40300  0.50000  Biso   1.000  C
  C5       1.0000 0.64760  0.41600  0.77520  Biso   1.000  C
  C6       1.0000 0.35240  0.58400  0.77520  Biso   1.000  C
  C7       1.0000 0.14760  0.08400  0.22480  Biso   1.000  C
  C8       1.0000 0.85240  0.91600  0.22480  Biso   1.000  C
  C9       1.0000 0.35240  0.58400  0.22480  Biso   1.000  C
  C10      1.0000 0.64760  0.41600  0.22480  Biso   1.000  C
  C11      1.0000 0.85240  0.91600  0.77520  Biso   1.000  C
  C12      1.0000 0.14760  0.08400  0.77520  Biso   1.000  C
  O1       1.0000 0.30370  0.42300  0.50000  Biso   1.000  O
  O2       1.0000 0.69630  0.57700  0.50000  Biso   1.000  O
  O3       1.0000 0.80370  0.07700  0.50000  Biso   1.000  O
  O4       1.0000 0.19630  0.92300  0.50000  Biso   1.000  O
  C13      1.0000 0.64610  0.42800  0.50000  Biso   1.000  C
  C14      1.0000 0.35390  0.57200  0.50000  Biso   1.000  C
  C15      1.0000 0.14610  0.07200  0.50000  Biso   1.000  C
  C16      1.0000 0.85390  0.92800  0.50000  Biso   1.000  C
  H1       1.0000 0.61760  0.33600  0.85780  Biso   1.000  H
  H2       1.0000 0.38240  0.66400  0.85780  Biso   1.000  H
  H3       1.0000 0.11760  0.16400  0.14220  Biso   1.000  H
  H4       1.0000 0.88240  0.83600  0.14220  Biso   1.000  H
  H5       1.0000 0.38240  0.66400  0.14220  Biso   1.000  H
  H6       1.0000 0.61760  0.33600  0.14220  Biso   1.000  H
  H7       1.0000 0.88240  0.83600  0.85780  Biso   1.000  H
  H8       1.0000 0.11760  0.16400  0.85780  Biso   1.000  H
  H9       1.0000 0.72470  0.41100  0.78040  Biso   1.000  H
  H10      1.0000 0.27530  0.58900  0.78040  Biso   1.000  H
  H11      1.0000 0.22470  0.08900  0.21960  Biso   1.000  H
  H12      1.0000 0.77530  0.91100  0.21960  Biso   1.000  H
  H13      1.0000 0.27530  0.58900  0.21960  Biso   1.000  H
  H14      1.0000 0.72470  0.41100  0.21960  Biso   1.000  H
  H15      1.0000 0.77530  0.91100  0.78040  Biso   1.000  H
  H16      1.0000 0.22470  0.08900  0.78040  Biso   1.000  H
  H17      1.0000 0.62390  0.55300  0.78480  Biso   1.000  H
  H18      1.0000 0.37610  0.44700  0.78480  Biso   1.000  H
  H19      1.0000 0.12390  0.94700  0.21520  Biso   1.000  H
  H20      1.0000 0.87610  0.05300  0.21520  Biso   1.000  H
  H21      1.0000 0.37610  0.44700  0.21520  Biso   1.000  H
  H22      1.0000 0.62390  0.55300  0.21520  Biso   1.000  H
  H23      1.0000 0.87610  0.05300  0.78480  Biso   1.000  H
  H24      1.0000 0.12390  0.94700  0.78480  Biso   1.000  H
