data_image0
_cell_length_a       7.574
_cell_length_b       11.662
_cell_length_c       33.97
_cell_angle_alpha    90
_cell_angle_beta     90
_cell_angle_gamma    90

_symmetry_space_group_name_H-M    "P 1"
_symmetry_int_tables_number       1

loop_
  _symmetry_equiv_pos_as_xyz
  'x, y, z'

loop_
  _atom_site_label
  _atom_site_occupancy
  _atom_site_fract_x
  _atom_site_fract_y
  _atom_site_fract_z
  _atom_site_thermal_displace_type
  _atom_site_B_iso_or_equiv
  _atom_site_type_symbol
  Cu1      1.0000 0.39180  0.36840  0.50713  Biso   1.000  Cu
  Cu2      1.0000 0.60820  0.63160  0.00713  Biso   1.000  Cu
  Cu3      1.0000 0.10820  0.86840  0.00713  Biso   1.000  Cu
  Cu4      1.0000 0.89180  0.13160  0.50713  Biso   1.000  Cu
  Cu5      1.0000 0.64080  0.36760  0.56129  Biso   1.000  Cu
  Cu6      1.0000 0.35920  0.63240  0.06129  Biso   1.000  Cu
  Cu7      1.0000 0.85920  0.86760  0.06129  Biso   1.000  Cu
  Cu8      1.0000 0.14080  0.13240  0.56129  Biso   1.000  Cu
  I1       1.0000 0.55508  0.17075  0.53223  Biso   1.000  I
  I2       1.0000 0.44492  0.82925  0.03223  Biso   1.000  I
  I3       1.0000 0.94492  0.67075  0.03223  Biso   1.000  I
  I4       1.0000 0.05508  0.32925  0.53223  Biso   1.000  I
  I5       1.0000 0.53175  0.55843  0.53419  Biso   1.000  I
  I6       1.0000 0.46825  0.44157  0.03419  Biso   1.000  I
  I7       1.0000 0.96825  0.05843  0.03419  Biso   1.000  I
  I8       1.0000 0.03175  0.94157  0.53419  Biso   1.000  I
  N1       1.0000 0.40480  0.37010  0.44700  Biso   1.000  N
  N2       1.0000 0.59520  0.62990  0.94700  Biso   1.000  N
  N3       1.0000 0.09520  0.87010  0.94700  Biso   1.000  N
  N4       1.0000 0.90480  0.12990  0.44700  Biso   1.000  N
  C1       1.0000 0.34300  0.28170  0.42590  Biso   1.000  C
  C2       1.0000 0.65700  0.71830  0.92590  Biso   1.000  C
  C3       1.0000 0.15700  0.78170  0.92590  Biso   1.000  C
  C4       1.0000 0.84300  0.21830  0.42590  Biso   1.000  C
  H1       1.0000 0.28180  0.22370  0.43870  Biso   1.000  H
  H2       1.0000 0.71820  0.77630  0.93870  Biso   1.000  H
  H3       1.0000 0.21820  0.72370  0.93870  Biso   1.000  H
  H4       1.0000 0.78180  0.27630  0.43870  Biso   1.000  H
  C5       1.0000 0.36800  0.27380  0.38590  Biso   1.000  C
  C6       1.0000 0.63200  0.72620  0.88590  Biso   1.000  C
  C7       1.0000 0.13200  0.77380  0.88590  Biso   1.000  C
  C8       1.0000 0.86800  0.22620  0.38590  Biso   1.000  C
  H5       1.0000 0.31830  0.21300  0.37210  Biso   1.000  H
  H6       1.0000 0.68170  0.78700  0.87210  Biso   1.000  H
  H7       1.0000 0.18170  0.71300  0.87210  Biso   1.000  H
  H8       1.0000 0.81830  0.28700  0.37210  Biso   1.000  H
  C9       1.0000 0.46600  0.35420  0.36600  Biso   1.000  C
  C10      1.0000 0.53400  0.64580  0.86600  Biso   1.000  C
  C11      1.0000 0.03400  0.85420  0.86600  Biso   1.000  C
  C12      1.0000 0.96600  0.14580  0.36600  Biso   1.000  C
  C13      1.0000 0.52600  0.44730  0.38770  Biso   1.000  C
  C14      1.0000 0.47400  0.55270  0.88770  Biso   1.000  C
  C15      1.0000 0.97400  0.94730  0.88770  Biso   1.000  C
  C16      1.0000 0.02600  0.05270  0.38770  Biso   1.000  C
  H9       1.0000 0.58630  0.50630  0.37520  Biso   1.000  H
  H10      1.0000 0.41370  0.49370  0.87520  Biso   1.000  H
  H11      1.0000 0.91370  0.00630  0.87520  Biso   1.000  H
  H12      1.0000 0.08630  0.99370  0.37520  Biso   1.000  H
  C17      1.0000 0.49500  0.45320  0.42840  Biso   1.000  C
  C18      1.0000 0.50500  0.54680  0.92840  Biso   1.000  C
  C19      1.0000 0.00500  0.95320  0.92840  Biso   1.000  C
  C20      1.0000 0.99500  0.04680  0.42840  Biso   1.000  C
  H13      1.0000 0.53680  0.51550  0.44270  Biso   1.000  H
  H14      1.0000 0.46320  0.48450  0.94270  Biso   1.000  H
  H15      1.0000 0.96320  0.01550  0.94270  Biso   1.000  H
  H16      1.0000 0.03680  0.98450  0.44270  Biso   1.000  H
  C21      1.0000 0.49900  0.33860  0.32300  Biso   1.000  C
  C22      1.0000 0.50100  0.66140  0.82300  Biso   1.000  C
  C23      1.0000 0.00100  0.83860  0.82300  Biso   1.000  C
  C24      1.0000 0.99900  0.16140  0.32300  Biso   1.000  C
  H17      1.0000 0.44910  0.27430  0.31120  Biso   1.000  H
  H18      1.0000 0.55090  0.72570  0.81120  Biso   1.000  H
  H19      1.0000 0.05090  0.77430  0.81120  Biso   1.000  H
  H20      1.0000 0.94910  0.22570  0.31120  Biso   1.000  H
  C25      1.0000 0.59100  0.40680  0.30070  Biso   1.000  C
  C26      1.0000 0.40900  0.59320  0.80070  Biso   1.000  C
  C27      1.0000 0.90900  0.90680  0.80070  Biso   1.000  C
  C28      1.0000 0.09100  0.09320  0.30070  Biso   1.000  C
  H21      1.0000 0.63670  0.47220  0.31250  Biso   1.000  H
  H22      1.0000 0.36330  0.52780  0.81250  Biso   1.000  H
  H23      1.0000 0.86330  0.97220  0.81250  Biso   1.000  H
  H24      1.0000 0.13670  0.02780  0.31250  Biso   1.000  H
  C29      1.0000 0.62900  0.39090  0.25870  Biso   1.000  C
  C30      1.0000 0.37100  0.60910  0.75870  Biso   1.000  C
  C31      1.0000 0.87100  0.89090  0.75870  Biso   1.000  C
  C32      1.0000 0.12900  0.10910  0.25870  Biso   1.000  C
  C33      1.0000 0.58000  0.29750  0.23670  Biso   1.000  C
  C34      1.0000 0.42000  0.70250  0.73670  Biso   1.000  C
  C35      1.0000 0.92000  0.79750  0.73670  Biso   1.000  C
  C36      1.0000 0.08000  0.20250  0.23670  Biso   1.000  C
  H25      1.0000 0.51480  0.23930  0.24850  Biso   1.000  H
  H26      1.0000 0.48520  0.76070  0.74850  Biso   1.000  H
  H27      1.0000 0.98520  0.73930  0.74850  Biso   1.000  H
  H28      1.0000 0.01480  0.26070  0.24850  Biso   1.000  H
  C37      1.0000 0.62500  0.28760  0.19690  Biso   1.000  C
  C38      1.0000 0.37500  0.71240  0.69690  Biso   1.000  C
  C39      1.0000 0.87500  0.78760  0.69690  Biso   1.000  C
  C40      1.0000 0.12500  0.21240  0.19690  Biso   1.000  C
  H29      1.0000 0.59060  0.22370  0.18250  Biso   1.000  H
  H30      1.0000 0.40940  0.77630  0.68250  Biso   1.000  H
  H31      1.0000 0.90940  0.72370  0.68250  Biso   1.000  H
  H32      1.0000 0.09060  0.27630  0.18250  Biso   1.000  H
  C41      1.0000 0.72450  0.37600  0.17870  Biso   1.000  C
  C42      1.0000 0.27550  0.62400  0.67870  Biso   1.000  C
  C43      1.0000 0.77550  0.87600  0.67870  Biso   1.000  C
  C44      1.0000 0.22450  0.12400  0.17870  Biso   1.000  C
  C45      1.0000 0.77300  0.47000  0.20080  Biso   1.000  C
  C46      1.0000 0.22700  0.53000  0.70080  Biso   1.000  C
  C47      1.0000 0.72700  0.97000  0.70080  Biso   1.000  C
  C48      1.0000 0.27300  0.03000  0.20080  Biso   1.000  C
  H33      1.0000 0.83820  0.52880  0.18920  Biso   1.000  H
  H34      1.0000 0.16180  0.47120  0.68920  Biso   1.000  H
  H35      1.0000 0.66180  0.02880  0.68920  Biso   1.000  H
  H36      1.0000 0.33820  0.97120  0.18920  Biso   1.000  H
  C49      1.0000 0.72600  0.47690  0.23990  Biso   1.000  C
  C50      1.0000 0.27400  0.52310  0.73990  Biso   1.000  C
  C51      1.0000 0.77400  0.97690  0.73990  Biso   1.000  C
  C52      1.0000 0.22600  0.02310  0.23990  Biso   1.000  C
  H37      1.0000 0.75940  0.54110  0.25430  Biso   1.000  H
  H38      1.0000 0.24060  0.45890  0.75430  Biso   1.000  H
  H39      1.0000 0.74060  0.04110  0.75430  Biso   1.000  H
  H40      1.0000 0.25940  0.95890  0.25430  Biso   1.000  H
  N5       1.0000 0.77160  0.36190  0.13920  Biso   1.000  N
  N6       1.0000 0.22840  0.63810  0.63920  Biso   1.000  N
  N7       1.0000 0.72840  0.86190  0.63920  Biso   1.000  N
  N8       1.0000 0.27160  0.13810  0.13920  Biso   1.000  N
  C53      1.0000 0.86300  0.46020  0.11920  Biso   1.000  C
  C54      1.0000 0.13700  0.53980  0.61920  Biso   1.000  C
  C55      1.0000 0.63700  0.96020  0.61920  Biso   1.000  C
  C56      1.0000 0.36300  0.03980  0.11920  Biso   1.000  C
  H41      1.0000 0.88850  0.43970  0.09250  Biso   1.000  H
  H42      1.0000 0.11150  0.56030  0.59250  Biso   1.000  H
  H43      1.0000 0.61150  0.93970  0.59250  Biso   1.000  H
  H44      1.0000 0.38850  0.06030  0.09250  Biso   1.000  H
  H45      1.0000 0.97040  0.47750  0.13280  Biso   1.000  H
  H46      1.0000 0.02960  0.52250  0.63280  Biso   1.000  H
  H47      1.0000 0.52960  0.97750  0.63280  Biso   1.000  H
  H48      1.0000 0.47040  0.02250  0.13280  Biso   1.000  H
  H49      1.0000 0.78690  0.52620  0.11960  Biso   1.000  H
  H50      1.0000 0.21310  0.47380  0.61960  Biso   1.000  H
  H51      1.0000 0.71310  0.02620  0.61960  Biso   1.000  H
  H52      1.0000 0.28690  0.97380  0.11960  Biso   1.000  H
  C57      1.0000 0.72800  0.27050  0.11680  Biso   1.000  C
  C58      1.0000 0.27200  0.72950  0.61680  Biso   1.000  C
  C59      1.0000 0.77200  0.77050  0.61680  Biso   1.000  C
  C60      1.0000 0.22800  0.22950  0.11680  Biso   1.000  C
  H53      1.0000 0.77530  0.28060  0.09070  Biso   1.000  H
  H54      1.0000 0.22470  0.71940  0.59070  Biso   1.000  H
  H55      1.0000 0.72470  0.78060  0.59070  Biso   1.000  H
  H56      1.0000 0.27530  0.21940  0.09070  Biso   1.000  H
  H57      1.0000 0.60230  0.26370  0.11540  Biso   1.000  H
  H58      1.0000 0.39770  0.73630  0.61540  Biso   1.000  H
  H59      1.0000 0.89770  0.76370  0.61540  Biso   1.000  H
  H60      1.0000 0.10230  0.23630  0.11540  Biso   1.000  H
  H61      1.0000 0.77700  0.20210  0.12820  Biso   1.000  H
  H62      1.0000 0.22300  0.79790  0.62820  Biso   1.000  H
  H63      1.0000 0.72300  0.70210  0.62820  Biso   1.000  H
  H64      1.0000 0.27700  0.29790  0.12820  Biso   1.000  H
  N9       1.0000 0.71000  0.37100  0.61800  Biso   1.000  N
  N10      1.0000 0.29000  0.62900  0.11800  Biso   1.000  N
  N11      1.0000 0.79000  0.87100  0.11800  Biso   1.000  N
  N12      1.0000 0.21000  0.12900  0.61800  Biso   1.000  N
  C61      1.0000 0.80300  0.28900  0.63840  Biso   1.000  C
  C62      1.0000 0.19700  0.71100  0.13840  Biso   1.000  C
  C63      1.0000 0.69700  0.78900  0.13840  Biso   1.000  C
  C64      1.0000 0.30300  0.21100  0.63840  Biso   1.000  C
  C65      1.0000 0.84700  0.30000  0.67970  Biso   1.000  C
  C66      1.0000 0.15300  0.70000  0.17970  Biso   1.000  C
  C67      1.0000 0.65300  0.80000  0.17970  Biso   1.000  C
  C68      1.0000 0.34700  0.20000  0.67970  Biso   1.000  C
  C69      1.0000 0.77900  0.39700  0.69960  Biso   1.000  C
  C70      1.0000 0.22100  0.60300  0.19960  Biso   1.000  C
  C71      1.0000 0.72100  0.89700  0.19960  Biso   1.000  C
  C72      1.0000 0.27900  0.10300  0.69960  Biso   1.000  C
  C73      1.0000 0.67400  0.47500  0.67980  Biso   1.000  C
  C74      1.0000 0.32600  0.52500  0.17980  Biso   1.000  C
  C75      1.0000 0.82600  0.97500  0.17980  Biso   1.000  C
  C76      1.0000 0.17400  0.02500  0.67980  Biso   1.000  C
  C77      1.0000 0.64100  0.45300  0.63920  Biso   1.000  C
  C78      1.0000 0.35900  0.54700  0.13920  Biso   1.000  C
  C79      1.0000 0.85900  0.95300  0.13920  Biso   1.000  C
  C80      1.0000 0.14100  0.04700  0.63920  Biso   1.000  C
  C81      1.0000 0.81800  0.40940  0.74280  Biso   1.000  C
  C82      1.0000 0.18200  0.59060  0.24280  Biso   1.000  C
  C83      1.0000 0.68200  0.90940  0.24280  Biso   1.000  C
  C84      1.0000 0.31800  0.09060  0.74280  Biso   1.000  C
  C85      1.0000 0.91000  0.33730  0.76370  Biso   1.000  C
  C86      1.0000 0.09000  0.66270  0.26370  Biso   1.000  C
  C87      1.0000 0.59000  0.83730  0.26370  Biso   1.000  C
  C88      1.0000 0.41000  0.16270  0.76370  Biso   1.000  C
  C89      1.0000 0.96100  0.34800  0.80580  Biso   1.000  C
  C90      1.0000 0.03900  0.65200  0.30580  Biso   1.000  C
  C91      1.0000 0.53900  0.84800  0.30580  Biso   1.000  C
  C92      1.0000 0.46100  0.15200  0.80580  Biso   1.000  C
  C93      1.0000 0.06400  0.26300  0.82420  Biso   1.000  C
  C94      1.0000 0.93600  0.73700  0.32420  Biso   1.000  C
  C95      1.0000 0.43600  0.76300  0.32420  Biso   1.000  C
  C96      1.0000 0.56400  0.23700  0.82420  Biso   1.000  C
  C97      1.0000 0.11100  0.26600  0.86410  Biso   1.000  C
  C98      1.0000 0.88900  0.73400  0.36410  Biso   1.000  C
  C99      1.0000 0.38900  0.76600  0.36410  Biso   1.000  C
  C100     1.0000 0.61100  0.23400  0.86410  Biso   1.000  C
  C101     1.0000 0.05100  0.36000  0.88660  Biso   1.000  C
  C102     1.0000 0.94900  0.64000  0.38660  Biso   1.000  C
  C103     1.0000 0.44900  0.86000  0.38660  Biso   1.000  C
  C104     1.0000 0.55100  0.14000  0.88660  Biso   1.000  C
  C105     1.0000 0.95700  0.45000  0.86890  Biso   1.000  C
  C106     1.0000 0.04300  0.55000  0.36890  Biso   1.000  C
  C107     1.0000 0.54300  0.95000  0.36890  Biso   1.000  C
  C108     1.0000 0.45700  0.05000  0.86890  Biso   1.000  C
  C109     1.0000 0.91500  0.44300  0.82760  Biso   1.000  C
  C110     1.0000 0.08500  0.55700  0.32760  Biso   1.000  C
  C111     1.0000 0.58500  0.94300  0.32760  Biso   1.000  C
  C112     1.0000 0.41500  0.05700  0.82760  Biso   1.000  C
  N13      1.0000 0.08500  0.36370  0.92690  Biso   1.000  N
  N14      1.0000 0.91500  0.63630  0.42690  Biso   1.000  N
  N15      1.0000 0.41500  0.86370  0.42690  Biso   1.000  N
  N16      1.0000 0.58500  0.13630  0.92690  Biso   1.000  N
  C113     1.0000 0.00700  0.44700  0.95230  Biso   1.000  C
  C114     1.0000 0.99300  0.55300  0.45230  Biso   1.000  C
  C115     1.0000 0.49300  0.94700  0.45230  Biso   1.000  C
  C116     1.0000 0.50700  0.05300  0.95230  Biso   1.000  C
  C117     1.0000 0.17900  0.26800  0.94480  Biso   1.000  C
  C118     1.0000 0.82100  0.73200  0.44480  Biso   1.000  C
  C119     1.0000 0.32100  0.76800  0.44480  Biso   1.000  C
  C120     1.0000 0.67900  0.23200  0.94480  Biso   1.000  C
  N17      1.0000 0.69000  0.37000  0.61860  Biso   1.000  N
  N18      1.0000 0.31000  0.63000  0.11860  Biso   1.000  N
  N19      1.0000 0.81000  0.87000  0.11860  Biso   1.000  N
  N20      1.0000 0.19000  0.13000  0.61860  Biso   1.000  N
  C121     1.0000 0.79800  0.28100  0.63030  Biso   1.000  C
  C122     1.0000 0.20200  0.71900  0.13030  Biso   1.000  C
  C123     1.0000 0.70200  0.78100  0.13030  Biso   1.000  C
  C124     1.0000 0.29800  0.21900  0.63030  Biso   1.000  C
  C125     1.0000 0.85900  0.26700  0.67030  Biso   1.000  C
  C126     1.0000 0.14100  0.73300  0.17030  Biso   1.000  C
  C127     1.0000 0.64100  0.76700  0.17030  Biso   1.000  C
  C128     1.0000 0.35900  0.23300  0.67030  Biso   1.000  C
  C129     1.0000 0.81000  0.35200  0.69760  Biso   1.000  C
  C130     1.0000 0.19000  0.64800  0.19760  Biso   1.000  C
  C131     1.0000 0.69000  0.85200  0.19760  Biso   1.000  C
  C132     1.0000 0.31000  0.14800  0.69760  Biso   1.000  C
  C133     1.0000 0.70700  0.44500  0.68550  Biso   1.000  C
  C134     1.0000 0.29300  0.55500  0.18550  Biso   1.000  C
  C135     1.0000 0.79300  0.94500  0.18550  Biso   1.000  C
  C136     1.0000 0.20700  0.05500  0.68550  Biso   1.000  C
  C137     1.0000 0.66400  0.44900  0.64470  Biso   1.000  C
  C138     1.0000 0.33600  0.55100  0.14470  Biso   1.000  C
  C139     1.0000 0.83600  0.94900  0.14470  Biso   1.000  C
  C140     1.0000 0.16400  0.05100  0.64470  Biso   1.000  C
  C141     1.0000 0.87700  0.34000  0.73900  Biso   1.000  C
  C142     1.0000 0.12300  0.66000  0.23900  Biso   1.000  C
  C143     1.0000 0.62300  0.84000  0.23900  Biso   1.000  C
  C144     1.0000 0.37700  0.16000  0.73900  Biso   1.000  C
  C145     1.0000 0.86800  0.41800  0.76620  Biso   1.000  C
  C146     1.0000 0.13200  0.58200  0.26620  Biso   1.000  C
  C147     1.0000 0.63200  0.91800  0.26620  Biso   1.000  C
  C148     1.0000 0.36800  0.08200  0.76620  Biso   1.000  C
  C149     1.0000 0.93500  0.40900  0.80720  Biso   1.000  C
  C150     1.0000 0.06500  0.59100  0.30720  Biso   1.000  C
  C151     1.0000 0.56500  0.90900  0.30720  Biso   1.000  C
  C152     1.0000 0.43500  0.09100  0.80720  Biso   1.000  C
  C153     1.0000 0.03400  0.31400  0.82030  Biso   1.000  C
  C154     1.0000 0.96600  0.68600  0.32030  Biso   1.000  C
  C155     1.0000 0.46600  0.81400  0.32030  Biso   1.000  C
  C156     1.0000 0.53400  0.18600  0.82030  Biso   1.000  C
  C157     1.0000 0.09700  0.30300  0.85900  Biso   1.000  C
  C158     1.0000 0.90300  0.69700  0.35900  Biso   1.000  C
  C159     1.0000 0.40300  0.80300  0.35900  Biso   1.000  C
  C160     1.0000 0.59700  0.19700  0.85900  Biso   1.000  C
  C161     1.0000 0.05400  0.39000  0.88590  Biso   1.000  C
  C162     1.0000 0.94600  0.61000  0.38590  Biso   1.000  C
  C163     1.0000 0.44600  0.89000  0.38590  Biso   1.000  C
  C164     1.0000 0.55400  0.11000  0.88590  Biso   1.000  C
  C165     1.0000 0.95300  0.48600  0.87420  Biso   1.000  C
  C166     1.0000 0.04700  0.51400  0.37420  Biso   1.000  C
  C167     1.0000 0.54700  0.98600  0.37420  Biso   1.000  C
  C168     1.0000 0.45300  0.01400  0.87420  Biso   1.000  C
  C169     1.0000 0.89400  0.49300  0.83400  Biso   1.000  C
  C170     1.0000 0.10600  0.50700  0.33400  Biso   1.000  C
  C171     1.0000 0.60600  0.99300  0.33400  Biso   1.000  C
  C172     1.0000 0.39400  0.00700  0.83400  Biso   1.000  C
  N21      1.0000 0.11800  0.38800  0.92440  Biso   1.000  N
  N22      1.0000 0.88200  0.61200  0.42440  Biso   1.000  N
  N23      1.0000 0.38200  0.88800  0.42440  Biso   1.000  N
  N24      1.0000 0.61800  0.11200  0.92440  Biso   1.000  N
  C173     1.0000 0.06300  0.47200  0.95270  Biso   1.000  C
  C174     1.0000 0.93700  0.52800  0.45270  Biso   1.000  C
  C175     1.0000 0.43700  0.97200  0.45270  Biso   1.000  C
  C176     1.0000 0.56300  0.02800  0.95270  Biso   1.000  C
  C177     1.0000 0.20600  0.28500  0.93840  Biso   1.000  C
  C178     1.0000 0.79400  0.71500  0.43840  Biso   1.000  C
  C179     1.0000 0.29400  0.78500  0.43840  Biso   1.000  C
  C180     1.0000 0.70600  0.21500  0.93840  Biso   1.000  C
