data_image0
_cell_length_a       15.978
_cell_length_b       4.148
_cell_length_c       19.338
_cell_angle_alpha    90
_cell_angle_beta     103.34
_cell_angle_gamma    90

_symmetry_space_group_name_H-M    "P 1"
_symmetry_int_tables_number       1

loop_
  _symmetry_equiv_pos_as_xyz
  'x, y, z'

loop_
  _atom_site_label
  _atom_site_occupancy
  _atom_site_fract_x
  _atom_site_fract_y
  _atom_site_fract_z
  _atom_site_thermal_displace_type
  _atom_site_B_iso_or_equiv
  _atom_site_type_symbol
  I1       1.0000 0.08820  0.05380  0.34063  Biso   1.000  I
  I2       1.0000 0.91180  0.55380  0.15937  Biso   1.000  I
  I3       1.0000 0.91180  0.94620  0.65937  Biso   1.000  I
  I4       1.0000 0.08820  0.44620  0.84063  Biso   1.000  I
  Cu1      1.0000 0.01612  0.04838  0.20428  Biso   1.000  Cu
  Cu2      1.0000 0.98388  0.54838  0.29572  Biso   1.000  Cu
  Cu3      1.0000 0.98388  0.95162  0.79572  Biso   1.000  Cu
  Cu4      1.0000 0.01612  0.45162  0.70428  Biso   1.000  Cu
  N1       1.0000 0.10907  0.05140  0.14739  Biso   1.000  N
  N2       1.0000 0.89093  0.55140  0.35261  Biso   1.000  N
  N3       1.0000 0.89093  0.94860  0.85261  Biso   1.000  N
  N4       1.0000 0.10907  0.44860  0.64739  Biso   1.000  N
  C1       1.0000 0.18674  0.18470  0.17124  Biso   1.000  C
  C2       1.0000 0.81326  0.68470  0.32876  Biso   1.000  C
  C3       1.0000 0.81326  0.81530  0.82876  Biso   1.000  C
  C4       1.0000 0.18674  0.31530  0.67124  Biso   1.000  C
  H1       1.0000 0.20070  0.26430  0.21740  Biso   1.000  H
  H2       1.0000 0.79930  0.76430  0.28260  Biso   1.000  H
  H3       1.0000 0.79930  0.73570  0.78260  Biso   1.000  H
  H4       1.0000 0.20070  0.23570  0.71740  Biso   1.000  H
  C5       1.0000 0.24646  0.20950  0.13109  Biso   1.000  C
  C6       1.0000 0.75354  0.70950  0.36891  Biso   1.000  C
  C7       1.0000 0.75354  0.79050  0.86891  Biso   1.000  C
  C8       1.0000 0.24646  0.29050  0.63109  Biso   1.000  C
  H5       1.0000 0.29940  0.30420  0.15070  Biso   1.000  H
  H6       1.0000 0.70060  0.80420  0.34930  Biso   1.000  H
  H7       1.0000 0.70060  0.69580  0.84930  Biso   1.000  H
  H8       1.0000 0.29940  0.19580  0.65070  Biso   1.000  H
  C9       1.0000 0.22994  0.09680  0.06201  Biso   1.000  C
  C10      1.0000 0.77006  0.59680  0.43799  Biso   1.000  C
  C11      1.0000 0.77006  0.90320  0.93799  Biso   1.000  C
  C12      1.0000 0.22994  0.40320  0.56201  Biso   1.000  C
  C13      1.0000 0.14928  0.95520  0.03739  Biso   1.000  C
  C14      1.0000 0.85072  0.45520  0.46261  Biso   1.000  C
  C15      1.0000 0.85072  0.04480  0.96261  Biso   1.000  C
  C16      1.0000 0.14928  0.54480  0.53739  Biso   1.000  C
  H9       1.0000 0.13380  0.87360  0.99140  Biso   1.000  H
  H10      1.0000 0.86620  0.37360  0.50860  Biso   1.000  H
  H11      1.0000 0.86620  0.12640  0.00860  Biso   1.000  H
  H12      1.0000 0.13380  0.62640  0.49140  Biso   1.000  H
  C17      1.0000 0.09319  0.93660  0.08093  Biso   1.000  C
  C18      1.0000 0.90681  0.43660  0.41907  Biso   1.000  C
  C19      1.0000 0.90681  0.06340  0.91907  Biso   1.000  C
  C20      1.0000 0.09319  0.56340  0.58093  Biso   1.000  C
  H13      1.0000 0.04040  0.83740  0.06320  Biso   1.000  H
  H14      1.0000 0.95960  0.33740  0.43680  Biso   1.000  H
  H15      1.0000 0.95960  0.16260  0.93680  Biso   1.000  H
  H16      1.0000 0.04040  0.66260  0.56320  Biso   1.000  H
  C21      1.0000 0.29369  0.12770  0.01862  Biso   1.000  C
  C22      1.0000 0.70631  0.62770  0.48138  Biso   1.000  C
  C23      1.0000 0.70631  0.87230  0.98138  Biso   1.000  C
  C24      1.0000 0.29369  0.37230  0.51862  Biso   1.000  C
  H17      1.0000 0.34380  0.24070  0.03840  Biso   1.000  H
  H18      1.0000 0.65620  0.74070  0.46160  Biso   1.000  H
  H19      1.0000 0.65620  0.75930  0.96160  Biso   1.000  H
  H20      1.0000 0.34380  0.25930  0.53840  Biso   1.000  H
  C25      1.0000 0.28663  0.01070  0.95452  Biso   1.000  C
  C26      1.0000 0.71337  0.51070  0.54548  Biso   1.000  C
  C27      1.0000 0.71337  0.98930  0.04548  Biso   1.000  C
  C28      1.0000 0.28663  0.48930  0.45452  Biso   1.000  C
  H21      1.0000 0.23590  0.90070  0.93530  Biso   1.000  H
  H22      1.0000 0.76410  0.40070  0.56470  Biso   1.000  H
  H23      1.0000 0.76410  0.09930  0.06470  Biso   1.000  H
  H24      1.0000 0.23590  0.59930  0.43530  Biso   1.000  H
  C29      1.0000 0.46370  0.03630  0.82150  Biso   1.000  C
  C30      1.0000 0.53630  0.53630  0.67850  Biso   1.000  C
  C31      1.0000 0.53630  0.96370  0.17850  Biso   1.000  C
  C32      1.0000 0.46370  0.46370  0.32150  Biso   1.000  C
  H25      1.0000 0.50260  0.03550  0.79230  Biso   1.000  H
  H26      1.0000 0.49740  0.53550  0.70770  Biso   1.000  H
  H27      1.0000 0.49740  0.96450  0.20770  Biso   1.000  H
  H28      1.0000 0.50260  0.46450  0.29230  Biso   1.000  H
  C33      1.0000 0.38470  0.88870  0.79887  Biso   1.000  C
  C34      1.0000 0.61530  0.38870  0.70113  Biso   1.000  C
  C35      1.0000 0.61530  0.11130  0.20113  Biso   1.000  C
  C36      1.0000 0.38470  0.61130  0.29887  Biso   1.000  C
  H29      1.0000 0.36980  0.79210  0.75430  Biso   1.000  H
  H30      1.0000 0.63020  0.29210  0.74570  Biso   1.000  H
  H31      1.0000 0.63020  0.20790  0.24570  Biso   1.000  H
  H32      1.0000 0.36980  0.70790  0.25430  Biso   1.000  H
  C37      1.0000 0.32828  0.88560  0.84272  Biso   1.000  C
  C38      1.0000 0.67172  0.38560  0.65728  Biso   1.000  C
  C39      1.0000 0.67172  0.11440  0.15728  Biso   1.000  C
  C40      1.0000 0.32828  0.61440  0.34272  Biso   1.000  C
  H33      1.0000 0.27530  0.78390  0.82760  Biso   1.000  H
  H34      1.0000 0.72470  0.28390  0.67240  Biso   1.000  H
  H35      1.0000 0.72470  0.21610  0.17240  Biso   1.000  H
  H36      1.0000 0.27530  0.71610  0.32760  Biso   1.000  H
  C41      1.0000 0.34855  0.03110  0.90919  Biso   1.000  C
  C42      1.0000 0.65145  0.53110  0.59081  Biso   1.000  C
  C43      1.0000 0.65145  0.96890  0.09081  Biso   1.000  C
  C44      1.0000 0.34855  0.46890  0.40919  Biso   1.000  C
  C45      1.0000 0.42802  0.18160  0.93035  Biso   1.000  C
  C46      1.0000 0.57198  0.68160  0.56965  Biso   1.000  C
  C47      1.0000 0.57198  0.81840  0.06965  Biso   1.000  C
  C48      1.0000 0.42802  0.31840  0.43035  Biso   1.000  C
  H37      1.0000 0.44290  0.28200  0.97450  Biso   1.000  H
  H38      1.0000 0.55710  0.78200  0.52550  Biso   1.000  H
  H39      1.0000 0.55710  0.71800  0.02550  Biso   1.000  H
  H40      1.0000 0.44290  0.21800  0.47450  Biso   1.000  H
  C49      1.0000 0.48520  0.18390  0.88660  Biso   1.000  C
  C50      1.0000 0.51480  0.68390  0.61340  Biso   1.000  C
  C51      1.0000 0.51480  0.81610  0.11340  Biso   1.000  C
  C52      1.0000 0.48520  0.31610  0.38660  Biso   1.000  C
  H41      1.0000 0.53820  0.28540  0.90120  Biso   1.000  H
  H42      1.0000 0.46180  0.78540  0.59880  Biso   1.000  H
  H43      1.0000 0.46180  0.71460  0.09880  Biso   1.000  H
  H44      1.0000 0.53820  0.21460  0.40120  Biso   1.000  H
