data_image0
_cell_length_a       11.35
_cell_length_b       11.854
_cell_length_c       9.275
_cell_angle_alpha    97.32
_cell_angle_beta     112.35
_cell_angle_gamma    67.67

_symmetry_space_group_name_H-M    "P 1"
_symmetry_int_tables_number       1

loop_
  _symmetry_equiv_pos_as_xyz
  'x, y, z'

loop_
  _atom_site_label
  _atom_site_occupancy
  _atom_site_fract_x
  _atom_site_fract_y
  _atom_site_fract_z
  _atom_site_thermal_displace_type
  _atom_site_B_iso_or_equiv
  _atom_site_type_symbol
  I1       1.0000 0.86003  0.41074  0.99787  Biso   1.000  I
  I2       1.0000 0.13997  0.58926  0.00213  Biso   1.000  I
  I3       1.0000 0.26906  0.18333  0.02983  Biso   1.000  I
  I4       1.0000 0.73094  0.81667  0.97017  Biso   1.000  I
  Cu1      1.0000 0.34192  0.36838  0.04979  Biso   1.000  Cu
  Cu2      1.0000 0.65808  0.63162  0.95021  Biso   1.000  Cu
  Cu3      1.0000 0.93276  0.60501  0.08766  Biso   1.000  Cu
  Cu4      1.0000 0.06724  0.39499  0.91234  Biso   1.000  Cu
  S1       1.0000 0.47550  0.41260  0.28960  Biso   1.000  S
  S2       1.0000 0.52450  0.58740  0.71040  Biso   1.000  S
  S3       1.0000 0.69220  0.29310  0.58370  Biso   1.000  S
  S4       1.0000 0.30780  0.70690  0.41630  Biso   1.000  S
  S5       1.0000 0.64680  0.14720  0.31040  Biso   1.000  S
  S6       1.0000 0.35320  0.85280  0.68960  Biso   1.000  S
  S7       1.0000 0.91620  0.09070  0.79510  Biso   1.000  S
  S8       1.0000 0.08380  0.90930  0.20490  Biso   1.000  S
  S9       1.0000 0.86660  0.91730  0.45630  Biso   1.000  S
  S10      1.0000 0.13340  0.08270  0.54370  Biso   1.000  S
  S11      1.0000 0.00440  0.36070  0.65110  Biso   1.000  S
  S12      1.0000 0.99560  0.63930  0.34890  Biso   1.000  S
  S13      1.0000 0.80670  0.61870  0.62630  Biso   1.000  S
  S14      1.0000 0.19330  0.38130  0.37370  Biso   1.000  S
  S15      1.0000 0.78400  0.46780  0.35590  Biso   1.000  S
  S16      1.0000 0.21600  0.53220  0.64410  Biso   1.000  S
  S17      1.0000 0.57200  0.83950  0.46160  Biso   1.000  S
  S18      1.0000 0.42800  0.16050  0.53840  Biso   1.000  S
  S19      1.0000 0.54580  0.65070  0.13400  Biso   1.000  S
  S20      1.0000 0.45420  0.34930  0.86600  Biso   1.000  S
  C1       1.0000 0.59940  0.28850  0.38960  Biso   1.000  C
  C2       1.0000 0.40060  0.71150  0.61040  Biso   1.000  C
  C3       1.0000 0.79900  0.14000  0.60800  Biso   1.000  C
  C4       1.0000 0.20100  0.86000  0.39200  Biso   1.000  C
  C5       1.0000 0.77910  0.07080  0.47790  Biso   1.000  C
  C6       1.0000 0.22090  0.92920  0.52210  Biso   1.000  C
  C7       1.0000 0.96100  0.93120  0.77100  Biso   1.000  C
  C8       1.0000 0.03900  0.06880  0.22900  Biso   1.000  C
  C9       1.0000 0.94800  0.86450  0.65660  Biso   1.000  C
  C10      1.0000 0.05200  0.13550  0.34340  Biso   1.000  C
  C11      1.0000 0.87080  0.47860  0.55100  Biso   1.000  C
  C12      1.0000 0.12920  0.52140  0.44900  Biso   1.000  C
  C13      1.0000 0.67400  0.68600  0.45270  Biso   1.000  C
  C14      1.0000 0.32600  0.31400  0.54730  Biso   1.000  C
  C15      1.0000 0.66460  0.61580  0.32620  Biso   1.000  C
  C16      1.0000 0.33540  0.38420  0.67380  Biso   1.000  C
  C17      1.0000 0.52610  0.88320  0.26110  Biso   1.000  C
  C18      1.0000 0.47390  0.11680  0.73890  Biso   1.000  C
  C19      1.0000 0.44700  0.81320  0.14270  Biso   1.000  C
  C20      1.0000 0.55300  0.18680  0.85730  Biso   1.000  C
