data_image0
_cell_length_a       17.398
_cell_length_b       17.398
_cell_length_c       8.0808
_cell_angle_alpha    90
_cell_angle_beta     90
_cell_angle_gamma    90

_symmetry_space_group_name_H-M    "P 1"
_symmetry_int_tables_number       1

loop_
  _symmetry_equiv_pos_as_xyz
  'x, y, z'

loop_
  _atom_site_label
  _atom_site_occupancy
  _atom_site_fract_x
  _atom_site_fract_y
  _atom_site_fract_z
  _atom_site_thermal_displace_type
  _atom_site_B_iso_or_equiv
  _atom_site_type_symbol
  Cu1      1.0000 0.00000  0.00000  0.00000  Biso   1.000  Cu
  Cu2      1.0000 0.50000  0.50000  0.50000  Biso   1.000  Cu
  Cu3      1.0000 0.50000  0.00000  0.25000  Biso   1.000  Cu
  Cu4      1.0000 0.00000  0.50000  0.75000  Biso   1.000  Cu
  N1       1.0000 0.90690  0.99880  0.15620  Biso   1.000  N
  N2       1.0000 0.09310  0.00120  0.15620  Biso   1.000  N
  N3       1.0000 0.99880  0.09310  0.84380  Biso   1.000  N
  N4       1.0000 0.00120  0.90690  0.84380  Biso   1.000  N
  N5       1.0000 0.40690  0.49880  0.65620  Biso   1.000  N
  N6       1.0000 0.59310  0.50120  0.65620  Biso   1.000  N
  N7       1.0000 0.49880  0.59310  0.34380  Biso   1.000  N
  N8       1.0000 0.50120  0.40690  0.34380  Biso   1.000  N
  N9       1.0000 0.59170  0.00270  0.10130  Biso   1.000  N
  N10      1.0000 0.40830  0.99730  0.10130  Biso   1.000  N
  N11      1.0000 0.00270  0.40830  0.89870  Biso   1.000  N
  N12      1.0000 0.99730  0.59170  0.89870  Biso   1.000  N
  N13      1.0000 0.09170  0.50270  0.60130  Biso   1.000  N
  N14      1.0000 0.90830  0.49730  0.60130  Biso   1.000  N
  N15      1.0000 0.50270  0.90830  0.39870  Biso   1.000  N
  N16      1.0000 0.49730  0.09170  0.39870  Biso   1.000  N
  C1       1.0000 0.90580  0.94720  0.27530  Biso   1.000  C
  C2       1.0000 0.09420  0.05280  0.27530  Biso   1.000  C
  C3       1.0000 0.94720  0.09420  0.72470  Biso   1.000  C
  C4       1.0000 0.05280  0.90580  0.72470  Biso   1.000  C
  C5       1.0000 0.40580  0.44720  0.77530  Biso   1.000  C
  C6       1.0000 0.59420  0.55280  0.77530  Biso   1.000  C
  C7       1.0000 0.44720  0.59420  0.22470  Biso   1.000  C
  C8       1.0000 0.55280  0.40580  0.22470  Biso   1.000  C
  H1       1.0000 0.93820  0.90480  0.26730  Biso   1.000  H
  H2       1.0000 0.06180  0.09520  0.26730  Biso   1.000  H
  H3       1.0000 0.90480  0.06180  0.73270  Biso   1.000  H
  H4       1.0000 0.09520  0.93820  0.73270  Biso   1.000  H
  H5       1.0000 0.43820  0.40480  0.76730  Biso   1.000  H
  H6       1.0000 0.56180  0.59520  0.76730  Biso   1.000  H
  H7       1.0000 0.40480  0.56180  0.23270  Biso   1.000  H
  H8       1.0000 0.59520  0.43820  0.23270  Biso   1.000  H
  C9       1.0000 0.85890  0.95350  0.41030  Biso   1.000  C
  C10      1.0000 0.14110  0.04650  0.41030  Biso   1.000  C
  C11      1.0000 0.95350  0.14110  0.58970  Biso   1.000  C
  C12      1.0000 0.04650  0.85890  0.58970  Biso   1.000  C
  C13      1.0000 0.35890  0.45350  0.91030  Biso   1.000  C
  C14      1.0000 0.64110  0.54650  0.91030  Biso   1.000  C
  C15      1.0000 0.45350  0.64110  0.08970  Biso   1.000  C
  C16      1.0000 0.54650  0.35890  0.08970  Biso   1.000  C
  H9       1.0000 0.86530  0.92050  0.49970  Biso   1.000  H
  H10      1.0000 0.13470  0.07950  0.49970  Biso   1.000  H
  H11      1.0000 0.92050  0.13470  0.50030  Biso   1.000  H
  H12      1.0000 0.07950  0.86530  0.50030  Biso   1.000  H
  H13      1.0000 0.36530  0.42050  0.99970  Biso   1.000  H
  H14      1.0000 0.63470  0.57950  0.99970  Biso   1.000  H
  H15      1.0000 0.42050  0.63470  0.00030  Biso   1.000  H
  H16      1.0000 0.57950  0.36530  0.00030  Biso   1.000  H
  C17      1.0000 0.80010  0.01050  0.41460  Biso   1.000  C
  C18      1.0000 0.19990  0.98950  0.41460  Biso   1.000  C
  C19      1.0000 0.01050  0.19990  0.58540  Biso   1.000  C
  C20      1.0000 0.98950  0.80010  0.58540  Biso   1.000  C
  C21      1.0000 0.30010  0.51050  0.91460  Biso   1.000  C
  C22      1.0000 0.69990  0.48950  0.91460  Biso   1.000  C
  C23      1.0000 0.51050  0.69990  0.08540  Biso   1.000  C
  C24      1.0000 0.48950  0.30010  0.08540  Biso   1.000  C
  C25      1.0000 0.80480  0.06240  0.28510  Biso   1.000  C
  C26      1.0000 0.19520  0.93760  0.28510  Biso   1.000  C
  C27      1.0000 0.06240  0.19520  0.71490  Biso   1.000  C
  C28      1.0000 0.93760  0.80480  0.71490  Biso   1.000  C
  C29      1.0000 0.30480  0.56240  0.78510  Biso   1.000  C
  C30      1.0000 0.69520  0.43760  0.78510  Biso   1.000  C
  C31      1.0000 0.56240  0.69520  0.21490  Biso   1.000  C
  C32      1.0000 0.43760  0.30480  0.21490  Biso   1.000  C
  H17      1.0000 0.77110  0.10380  0.28210  Biso   1.000  H
  H18      1.0000 0.22890  0.89620  0.28210  Biso   1.000  H
  H19      1.0000 0.10380  0.22890  0.71790  Biso   1.000  H
  H20      1.0000 0.89620  0.77110  0.71790  Biso   1.000  H
  H21      1.0000 0.27110  0.60380  0.78210  Biso   1.000  H
  H22      1.0000 0.72890  0.39620  0.78210  Biso   1.000  H
  H23      1.0000 0.60380  0.72890  0.21790  Biso   1.000  H
  H24      1.0000 0.39620  0.27110  0.21790  Biso   1.000  H
  C33      1.0000 0.85820  0.05420  0.16070  Biso   1.000  C
  C34      1.0000 0.14180  0.94580  0.16070  Biso   1.000  C
  C35      1.0000 0.05420  0.14180  0.83930  Biso   1.000  C
  C36      1.0000 0.94580  0.85820  0.83930  Biso   1.000  C
  C37      1.0000 0.35820  0.55420  0.66070  Biso   1.000  C
  C38      1.0000 0.64180  0.44580  0.66070  Biso   1.000  C
  C39      1.0000 0.55420  0.64180  0.33930  Biso   1.000  C
  C40      1.0000 0.44580  0.35820  0.33930  Biso   1.000  C
  H25      1.0000 0.85900  0.09040  0.07610  Biso   1.000  H
  H26      1.0000 0.14100  0.90960  0.07610  Biso   1.000  H
  H27      1.0000 0.09040  0.14100  0.92390  Biso   1.000  H
  H28      1.0000 0.90960  0.85900  0.92390  Biso   1.000  H
  H29      1.0000 0.35900  0.59040  0.57610  Biso   1.000  H
  H30      1.0000 0.64100  0.40960  0.57610  Biso   1.000  H
  H31      1.0000 0.59040  0.64100  0.42390  Biso   1.000  H
  H32      1.0000 0.40960  0.35900  0.42390  Biso   1.000  H
  C41      1.0000 0.74610  0.02110  0.54970  Biso   1.000  C
  C42      1.0000 0.25390  0.97890  0.54970  Biso   1.000  C
  C43      1.0000 0.02110  0.25390  0.45030  Biso   1.000  C
  C44      1.0000 0.97890  0.74610  0.45030  Biso   1.000  C
  C45      1.0000 0.24610  0.52110  0.04970  Biso   1.000  C
  C46      1.0000 0.75390  0.47890  0.04970  Biso   1.000  C
  C47      1.0000 0.52110  0.75390  0.95030  Biso   1.000  C
  C48      1.0000 0.47890  0.24610  0.95030  Biso   1.000  C
  H33      1.0000 0.71190  0.06210  0.54200  Biso   1.000  H
  H34      1.0000 0.28810  0.93790  0.54200  Biso   1.000  H
  H35      1.0000 0.06210  0.28810  0.45800  Biso   1.000  H
  H36      1.0000 0.93790  0.71190  0.45800  Biso   1.000  H
  H37      1.0000 0.21190  0.56210  0.04200  Biso   1.000  H
  H38      1.0000 0.78810  0.43790  0.04200  Biso   1.000  H
  H39      1.0000 0.56210  0.78810  0.95800  Biso   1.000  H
  H40      1.0000 0.43790  0.21190  0.95800  Biso   1.000  H
  C49      1.0000 0.74180  0.97810  0.67970  Biso   1.000  C
  C50      1.0000 0.25820  0.02190  0.67970  Biso   1.000  C
  C51      1.0000 0.97810  0.25820  0.32030  Biso   1.000  C
  C52      1.0000 0.02190  0.74180  0.32030  Biso   1.000  C
  C53      1.0000 0.24180  0.47810  0.17970  Biso   1.000  C
  C54      1.0000 0.75820  0.52190  0.17970  Biso   1.000  C
  C55      1.0000 0.47810  0.75820  0.82030  Biso   1.000  C
  C56      1.0000 0.52190  0.24180  0.82030  Biso   1.000  C
  H41      1.0000 0.77180  0.93390  0.67680  Biso   1.000  H
  H42      1.0000 0.22820  0.06610  0.67680  Biso   1.000  H
  H43      1.0000 0.93390  0.22820  0.32320  Biso   1.000  H
  H44      1.0000 0.06610  0.77180  0.32320  Biso   1.000  H
  H45      1.0000 0.27180  0.43390  0.17680  Biso   1.000  H
  H46      1.0000 0.72820  0.56610  0.17680  Biso   1.000  H
  H47      1.0000 0.43390  0.72820  0.82320  Biso   1.000  H
  H48      1.0000 0.56610  0.27180  0.82320  Biso   1.000  H
  C57      1.0000 0.69640  0.98870  0.83140  Biso   1.000  C
  C58      1.0000 0.30360  0.01130  0.83140  Biso   1.000  C
  C59      1.0000 0.98870  0.30360  0.16860  Biso   1.000  C
  C60      1.0000 0.01130  0.69640  0.16860  Biso   1.000  C
  C61      1.0000 0.19640  0.48870  0.33140  Biso   1.000  C
  C62      1.0000 0.80360  0.51130  0.33140  Biso   1.000  C
  C63      1.0000 0.48870  0.80360  0.66860  Biso   1.000  C
  C64      1.0000 0.51130  0.19640  0.66860  Biso   1.000  C
  C65      1.0000 0.69610  0.93630  0.95710  Biso   1.000  C
  C66      1.0000 0.30390  0.06370  0.95710  Biso   1.000  C
  C67      1.0000 0.93630  0.30390  0.04290  Biso   1.000  C
  C68      1.0000 0.06370  0.69610  0.04290  Biso   1.000  C
  C69      1.0000 0.19610  0.43630  0.45710  Biso   1.000  C
  C70      1.0000 0.80390  0.56370  0.45710  Biso   1.000  C
  C71      1.0000 0.43630  0.80390  0.54290  Biso   1.000  C
  C72      1.0000 0.56370  0.19610  0.54290  Biso   1.000  C
  H49      1.0000 0.72920  0.89430  0.95520  Biso   1.000  H
  H50      1.0000 0.27080  0.10570  0.95520  Biso   1.000  H
  H51      1.0000 0.89430  0.27080  0.04480  Biso   1.000  H
  H52      1.0000 0.10570  0.72920  0.04480  Biso   1.000  H
  H53      1.0000 0.22920  0.39430  0.45520  Biso   1.000  H
  H54      1.0000 0.77080  0.60570  0.45520  Biso   1.000  H
  H55      1.0000 0.39430  0.77080  0.54480  Biso   1.000  H
  H56      1.0000 0.60570  0.22920  0.54480  Biso   1.000  H
  C73      1.0000 0.64620  0.94690  0.08570  Biso   1.000  C
  C74      1.0000 0.35380  0.05310  0.08570  Biso   1.000  C
  C75      1.0000 0.94690  0.35380  0.91430  Biso   1.000  C
  C76      1.0000 0.05310  0.64620  0.91430  Biso   1.000  C
  C77      1.0000 0.14620  0.44690  0.58570  Biso   1.000  C
  C78      1.0000 0.85380  0.55310  0.58570  Biso   1.000  C
  C79      1.0000 0.44690  0.85380  0.41430  Biso   1.000  C
  C80      1.0000 0.55310  0.14620  0.41430  Biso   1.000  C
  H57      1.0000 0.64990  0.91210  0.17260  Biso   1.000  H
  H58      1.0000 0.35010  0.08790  0.17260  Biso   1.000  H
  H59      1.0000 0.91210  0.35010  0.82740  Biso   1.000  H
  H60      1.0000 0.08790  0.64990  0.82740  Biso   1.000  H
  H61      1.0000 0.14990  0.41210  0.67260  Biso   1.000  H
  H62      1.0000 0.85010  0.58790  0.67260  Biso   1.000  H
  H63      1.0000 0.41210  0.85010  0.32740  Biso   1.000  H
  H64      1.0000 0.58790  0.14990  0.32740  Biso   1.000  H
  C81      1.0000 0.60130  0.05590  0.98500  Biso   1.000  C
  C82      1.0000 0.39870  0.94410  0.98500  Biso   1.000  C
  C83      1.0000 0.05590  0.39870  0.01500  Biso   1.000  C
  C84      1.0000 0.94410  0.60130  0.01500  Biso   1.000  C
  C85      1.0000 0.10130  0.55590  0.48500  Biso   1.000  C
  C86      1.0000 0.89870  0.44410  0.48500  Biso   1.000  C
  C87      1.0000 0.55590  0.89870  0.51500  Biso   1.000  C
  C88      1.0000 0.44410  0.10130  0.51500  Biso   1.000  C
  H65      1.0000 0.57080  0.09970  0.99110  Biso   1.000  H
  H66      1.0000 0.42920  0.90030  0.99110  Biso   1.000  H
  H67      1.0000 0.09970  0.42920  0.00890  Biso   1.000  H
  H68      1.0000 0.90030  0.57080  0.00890  Biso   1.000  H
  H69      1.0000 0.07080  0.59970  0.49110  Biso   1.000  H
  H70      1.0000 0.92920  0.40030  0.49110  Biso   1.000  H
  H71      1.0000 0.59970  0.92920  0.50890  Biso   1.000  H
  H72      1.0000 0.40030  0.07080  0.50890  Biso   1.000  H
  C89      1.0000 0.65300  0.05120  0.85470  Biso   1.000  C
  C90      1.0000 0.34700  0.94880  0.85470  Biso   1.000  C
  C91      1.0000 0.05120  0.34700  0.14530  Biso   1.000  C
  C92      1.0000 0.94880  0.65300  0.14530  Biso   1.000  C
  C93      1.0000 0.15300  0.55120  0.35470  Biso   1.000  C
  C94      1.0000 0.84700  0.44880  0.35470  Biso   1.000  C
  C95      1.0000 0.55120  0.84700  0.64530  Biso   1.000  C
  C96      1.0000 0.44880  0.15300  0.64530  Biso   1.000  C
  H73      1.0000 0.65750  0.09240  0.78200  Biso   1.000  H
  H74      1.0000 0.34250  0.90760  0.78200  Biso   1.000  H
  H75      1.0000 0.09240  0.34250  0.21800  Biso   1.000  H
  H76      1.0000 0.90760  0.65750  0.21800  Biso   1.000  H
  H77      1.0000 0.15750  0.59240  0.28200  Biso   1.000  H
  H78      1.0000 0.84250  0.40760  0.28200  Biso   1.000  H
  H79      1.0000 0.59240  0.84250  0.71800  Biso   1.000  H
  H80      1.0000 0.40760  0.15750  0.71800  Biso   1.000  H
  N17      1.0000 0.78210  0.23440  0.70200  Biso   1.000  N
  N18      1.0000 0.21790  0.76560  0.70200  Biso   1.000  N
  N19      1.0000 0.23440  0.21790  0.29800  Biso   1.000  N
  N20      1.0000 0.76560  0.78210  0.29800  Biso   1.000  N
  N21      1.0000 0.28210  0.73440  0.20200  Biso   1.000  N
  N22      1.0000 0.71790  0.26560  0.20200  Biso   1.000  N
  N23      1.0000 0.73440  0.71790  0.79800  Biso   1.000  N
  N24      1.0000 0.26560  0.28210  0.79800  Biso   1.000  N
  O1       1.0000 0.81500  0.29100  0.64200  Biso   1.000  O
  O2       1.0000 0.18500  0.70900  0.64200  Biso   1.000  O
  O3       1.0000 0.29100  0.18500  0.35800  Biso   1.000  O
  O4       1.0000 0.70900  0.81500  0.35800  Biso   1.000  O
  O5       1.0000 0.31500  0.79100  0.14200  Biso   1.000  O
  O6       1.0000 0.68500  0.20900  0.14200  Biso   1.000  O
  O7       1.0000 0.79100  0.68500  0.85800  Biso   1.000  O
  O8       1.0000 0.20900  0.31500  0.85800  Biso   1.000  O
  O9       1.0000 0.74200  0.19400  0.61100  Biso   1.000  O
  O10      1.0000 0.25800  0.80600  0.61100  Biso   1.000  O
  O11      1.0000 0.19400  0.25800  0.38900  Biso   1.000  O
  O12      1.0000 0.80600  0.74200  0.38900  Biso   1.000  O
  O13      1.0000 0.24200  0.69400  0.11100  Biso   1.000  O
  O14      1.0000 0.75800  0.30600  0.11100  Biso   1.000  O
  O15      1.0000 0.69400  0.75800  0.88900  Biso   1.000  O
  O16      1.0000 0.30600  0.24200  0.88900  Biso   1.000  O
  O17      1.0000 0.79000  0.21600  0.84900  Biso   1.000  O
  O18      1.0000 0.21000  0.78400  0.84900  Biso   1.000  O
  O19      1.0000 0.21600  0.21000  0.15100  Biso   1.000  O
  O20      1.0000 0.78400  0.79000  0.15100  Biso   1.000  O
  O21      1.0000 0.29000  0.71600  0.34900  Biso   1.000  O
  O22      1.0000 0.71000  0.28400  0.34900  Biso   1.000  O
  O23      1.0000 0.71600  0.71000  0.65100  Biso   1.000  O
  O24      1.0000 0.28400  0.29000  0.65100  Biso   1.000  O
  N25      1.0000 0.74160  0.21810  0.87900  Biso   1.000  N
  N26      1.0000 0.25840  0.78190  0.87900  Biso   1.000  N
  N27      1.0000 0.21810  0.25840  0.12100  Biso   1.000  N
  N28      1.0000 0.78190  0.74160  0.12100  Biso   1.000  N
  N29      1.0000 0.24160  0.71810  0.37900  Biso   1.000  N
  N30      1.0000 0.75840  0.28190  0.37900  Biso   1.000  N
  N31      1.0000 0.71810  0.75840  0.62100  Biso   1.000  N
  N32      1.0000 0.28190  0.24160  0.62100  Biso   1.000  N
  O25      1.0000 0.79800  0.17600  0.87400  Biso   1.000  O
  O26      1.0000 0.20200  0.82400  0.87400  Biso   1.000  O
  O27      1.0000 0.17600  0.20200  0.12600  Biso   1.000  O
  O28      1.0000 0.82400  0.79800  0.12600  Biso   1.000  O
  O29      1.0000 0.29800  0.67600  0.37400  Biso   1.000  O
  O30      1.0000 0.70200  0.32400  0.37400  Biso   1.000  O
  O31      1.0000 0.67600  0.70200  0.62600  Biso   1.000  O
  O32      1.0000 0.32400  0.29800  0.62600  Biso   1.000  O
  O33      1.0000 0.71200  0.23900  0.74500  Biso   1.000  O
  O34      1.0000 0.28800  0.76100  0.74500  Biso   1.000  O
  O35      1.0000 0.23900  0.28800  0.25500  Biso   1.000  O
  O36      1.0000 0.76100  0.71200  0.25500  Biso   1.000  O
  O37      1.0000 0.21200  0.73900  0.24500  Biso   1.000  O
  O38      1.0000 0.78800  0.26100  0.24500  Biso   1.000  O
  O39      1.0000 0.73900  0.78800  0.75500  Biso   1.000  O
  O40      1.0000 0.26100  0.21200  0.75500  Biso   1.000  O
  O41      1.0000 0.71400  0.24000  0.01000  Biso   1.000  O
  O42      1.0000 0.28600  0.76000  0.01000  Biso   1.000  O
  O43      1.0000 0.24000  0.28600  0.99000  Biso   1.000  O
  O44      1.0000 0.76000  0.71400  0.99000  Biso   1.000  O
  O45      1.0000 0.21400  0.74000  0.51000  Biso   1.000  O
  O46      1.0000 0.78600  0.26000  0.51000  Biso   1.000  O
  O47      1.0000 0.74000  0.78600  0.49000  Biso   1.000  O
  O48      1.0000 0.26000  0.21400  0.49000  Biso   1.000  O
