data_image0
_cell_length_a       11.583
_cell_length_b       11.443
_cell_length_c       8.62
_cell_angle_alpha    90
_cell_angle_beta     108.77
_cell_angle_gamma    90

_symmetry_space_group_name_H-M    "P 1"
_symmetry_int_tables_number       1

loop_
  _symmetry_equiv_pos_as_xyz
  'x, y, z'

loop_
  _atom_site_label
  _atom_site_occupancy
  _atom_site_fract_x
  _atom_site_fract_y
  _atom_site_fract_z
  _atom_site_thermal_displace_type
  _atom_site_B_iso_or_equiv
  _atom_site_type_symbol
  Cu1      1.0000 0.89770  0.10621  0.95550  Biso   1.000  Cu
  Cu2      1.0000 0.60230  0.60621  0.04450  Biso   1.000  Cu
  Cu3      1.0000 0.10230  0.89379  0.04450  Biso   1.000  Cu
  Cu4      1.0000 0.39770  0.39379  0.95550  Biso   1.000  Cu
  Cl1      1.0000 0.05800  0.09770  0.86530  Biso   1.000  Cl
  Cl2      1.0000 0.44200  0.59770  0.13470  Biso   1.000  Cl
  Cl3      1.0000 0.94200  0.90230  0.13470  Biso   1.000  Cl
  Cl4      1.0000 0.55800  0.40230  0.86530  Biso   1.000  Cl
  O1       1.0000 0.47720  0.91580  0.76830  Biso   1.000  O
  O2       1.0000 0.02280  0.41580  0.23170  Biso   1.000  O
  O3       1.0000 0.52280  0.08420  0.23170  Biso   1.000  O
  O4       1.0000 0.97720  0.58420  0.76830  Biso   1.000  O
  N1       1.0000 0.58220  0.94920  0.74300  Biso   1.000  N
  N2       1.0000 0.91780  0.44920  0.25700  Biso   1.000  N
  N3       1.0000 0.41780  0.05080  0.25700  Biso   1.000  N
  N4       1.0000 0.08220  0.55080  0.74300  Biso   1.000  N
  N5       1.0000 0.65640  0.02180  0.84640  Biso   1.000  N
  N6       1.0000 0.84360  0.52180  0.15360  Biso   1.000  N
  N7       1.0000 0.34360  0.97820  0.15360  Biso   1.000  N
  N8       1.0000 0.15640  0.47820  0.84640  Biso   1.000  N
  N9       1.0000 0.74860  0.03920  0.79480  Biso   1.000  N
  N10      1.0000 0.75140  0.53920  0.20520  Biso   1.000  N
  N11      1.0000 0.25140  0.96080  0.20520  Biso   1.000  N
  N12      1.0000 0.24860  0.46080  0.79480  Biso   1.000  N
  C1       1.0000 0.67010  0.69680  0.89100  Biso   1.000  C
  C2       1.0000 0.82990  0.19680  0.10900  Biso   1.000  C
  C3       1.0000 0.32990  0.30320  0.10900  Biso   1.000  C
  C4       1.0000 0.17010  0.80320  0.89100  Biso   1.000  C
  C5       1.0000 0.55180  0.72090  0.85330  Biso   1.000  C
  C6       1.0000 0.94820  0.22090  0.14670  Biso   1.000  C
  C7       1.0000 0.44820  0.27910  0.14670  Biso   1.000  C
  C8       1.0000 0.05180  0.77910  0.85330  Biso   1.000  C
  C9       1.0000 0.50680  0.82970  0.90690  Biso   1.000  C
  C10      1.0000 0.99320  0.32970  0.09310  Biso   1.000  C
  C11      1.0000 0.49320  0.17030  0.09310  Biso   1.000  C
  C12      1.0000 0.00680  0.67030  0.90690  Biso   1.000  C
  C13      1.0000 0.80270  0.96490  0.55020  Biso   1.000  C
  C14      1.0000 0.69730  0.46490  0.44980  Biso   1.000  C
  C15      1.0000 0.19730  0.03510  0.44980  Biso   1.000  C
  C16      1.0000 0.30270  0.53510  0.55020  Biso   1.000  C
  C17      1.0000 0.75990  0.89200  0.42040  Biso   1.000  C
  C18      1.0000 0.74010  0.39200  0.57960  Biso   1.000  C
  C19      1.0000 0.24010  0.10800  0.57960  Biso   1.000  C
  C20      1.0000 0.25990  0.60800  0.42040  Biso   1.000  C
  C21      1.0000 0.65140  0.82900  0.39180  Biso   1.000  C
  C22      1.0000 0.84860  0.32900  0.60820  Biso   1.000  C
  C23      1.0000 0.34860  0.17100  0.60820  Biso   1.000  C
  C24      1.0000 0.15140  0.67100  0.39180  Biso   1.000  C
  C25      1.0000 0.57940  0.84050  0.48700  Biso   1.000  C
  C26      1.0000 0.92060  0.34050  0.51300  Biso   1.000  C
  C27      1.0000 0.42060  0.15950  0.51300  Biso   1.000  C
  C28      1.0000 0.07940  0.65950  0.48700  Biso   1.000  C
  C29      1.0000 0.62270  0.91550  0.61810  Biso   1.000  C
  C30      1.0000 0.87730  0.41550  0.38190  Biso   1.000  C
  C31      1.0000 0.37730  0.08450  0.38190  Biso   1.000  C
  C32      1.0000 0.12270  0.58450  0.61810  Biso   1.000  C
  C33      1.0000 0.73180  0.97470  0.65300  Biso   1.000  C
  C34      1.0000 0.76820  0.47470  0.34700  Biso   1.000  C
  C35      1.0000 0.26820  0.02530  0.34700  Biso   1.000  C
  C36      1.0000 0.23180  0.52530  0.65300  Biso   1.000  C
  H1       1.0000 0.70900  0.65400  0.84000  Biso   1.000  H
  H2       1.0000 0.79100  0.15400  0.16000  Biso   1.000  H
  H3       1.0000 0.29100  0.34600  0.16000  Biso   1.000  H
  H4       1.0000 0.20900  0.84600  0.84000  Biso   1.000  H
  H5       1.0000 0.73800  0.74400  0.95400  Biso   1.000  H
  H6       1.0000 0.76200  0.24400  0.04600  Biso   1.000  H
  H7       1.0000 0.26200  0.25600  0.04600  Biso   1.000  H
  H8       1.0000 0.23800  0.75600  0.95400  Biso   1.000  H
  H9       1.0000 0.49600  0.67600  0.77300  Biso   1.000  H
  H10      1.0000 0.00400  0.17600  0.22700  Biso   1.000  H
  H11      1.0000 0.50400  0.32400  0.22700  Biso   1.000  H
  H12      1.0000 0.99600  0.82400  0.77300  Biso   1.000  H
  H13      1.0000 0.44100  0.81300  0.97000  Biso   1.000  H
  H14      1.0000 0.05900  0.31300  0.03000  Biso   1.000  H
  H15      1.0000 0.55900  0.18700  0.03000  Biso   1.000  H
  H16      1.0000 0.94100  0.68700  0.97000  Biso   1.000  H
  H17      1.0000 0.57300  0.87300  0.00400  Biso   1.000  H
  H18      1.0000 0.92700  0.37300  0.99600  Biso   1.000  H
  H19      1.0000 0.42700  0.12700  0.99600  Biso   1.000  H
  H20      1.0000 0.07300  0.62700  0.00400  Biso   1.000  H
  H21      1.0000 0.88000  0.00700  0.57300  Biso   1.000  H
  H22      1.0000 0.62000  0.50700  0.42700  Biso   1.000  H
  H23      1.0000 0.12000  0.99300  0.42700  Biso   1.000  H
  H24      1.0000 0.38000  0.49300  0.57300  Biso   1.000  H
  H25      1.0000 0.81400  0.87800  0.35900  Biso   1.000  H
  H26      1.0000 0.68600  0.37800  0.64100  Biso   1.000  H
  H27      1.0000 0.18600  0.12200  0.64100  Biso   1.000  H
  H28      1.0000 0.31400  0.62200  0.35900  Biso   1.000  H
  H29      1.0000 0.62300  0.78900  0.29000  Biso   1.000  H
  H30      1.0000 0.87700  0.28900  0.71000  Biso   1.000  H
  H31      1.0000 0.37700  0.21100  0.71000  Biso   1.000  H
  H32      1.0000 0.12300  0.71100  0.29000  Biso   1.000  H
  H33      1.0000 0.51200  0.78500  0.47500  Biso   1.000  H
  H34      1.0000 0.98800  0.28500  0.52500  Biso   1.000  H
  H35      1.0000 0.48800  0.21500  0.52500  Biso   1.000  H
  H36      1.0000 0.01200  0.71500  0.47500  Biso   1.000  H
