data_image0
_cell_length_a       9.46409
_cell_length_b       10.0908
_cell_length_c       12.5934
_cell_angle_alpha    104.966
_cell_angle_beta     108.408
_cell_angle_gamma    97.0111

_symmetry_space_group_name_H-M    "P 1"
_symmetry_int_tables_number       1

loop_
  _symmetry_equiv_pos_as_xyz
  'x, y, z'

loop_
  _atom_site_label
  _atom_site_occupancy
  _atom_site_fract_x
  _atom_site_fract_y
  _atom_site_fract_z
  _atom_site_thermal_displace_type
  _atom_site_B_iso_or_equiv
  _atom_site_type_symbol
  I1       1.0000 0.37926  0.40013  0.59884  Biso   1.000  I
  I2       1.0000 0.62074  0.59987  0.40116  Biso   1.000  I
  Cu1      1.0000 0.35682  0.46657  0.40143  Biso   1.000  Cu
  Cu2      1.0000 0.64318  0.53343  0.59857  Biso   1.000  Cu
  P1       1.0000 0.24279  0.27866  0.24068  Biso   1.000  P
  P2       1.0000 0.75721  0.72134  0.75932  Biso   1.000  P
  N1       1.0000 0.24090  0.62510  0.41770  Biso   1.000  N
  N2       1.0000 0.75910  0.37490  0.58230  Biso   1.000  N
  C1       1.0000 0.25510  0.72320  0.36490  Biso   1.000  C
  C2       1.0000 0.74490  0.27680  0.63510  Biso   1.000  C
  C3       1.0000 0.18880  0.83650  0.37690  Biso   1.000  C
  C4       1.0000 0.81120  0.16350  0.62310  Biso   1.000  C
  C5       1.0000 0.10170  0.85510  0.44790  Biso   1.000  C
  C6       1.0000 0.89830  0.14490  0.55210  Biso   1.000  C
  C7       1.0000 0.08030  0.75240  0.49830  Biso   1.000  C
  C8       1.0000 0.91970  0.24760  0.50170  Biso   1.000  C
  C9       1.0000 0.15190  0.64120  0.48280  Biso   1.000  C
  C10      1.0000 0.84810  0.35880  0.51720  Biso   1.000  C
  C11      1.0000 0.04100  0.98430  0.46700  Biso   1.000  C
  C12      1.0000 0.95900  0.01570  0.53300  Biso   1.000  C
  C13      1.0000 0.04190  0.22030  0.21820  Biso   1.000  C
  C14      1.0000 0.95810  0.77970  0.78180  Biso   1.000  C
  C15      1.0000 0.95710  0.32330  0.22840  Biso   1.000  C
  C16      1.0000 0.04290  0.67670  0.77160  Biso   1.000  C
  C17      1.0000 0.80320  0.28840  0.21370  Biso   1.000  C
  C18      1.0000 0.19680  0.71160  0.78630  Biso   1.000  C
  C19      1.0000 0.73320  0.14980  0.18970  Biso   1.000  C
  C20      1.0000 0.26680  0.85020  0.81030  Biso   1.000  C
  C21      1.0000 0.81610  0.04670  0.18060  Biso   1.000  C
  C22      1.0000 0.18390  0.95330  0.81940  Biso   1.000  C
  C23      1.0000 0.96910  0.08110  0.19490  Biso   1.000  C
  C24      1.0000 0.03090  0.91890  0.80510  Biso   1.000  C
  C25      1.0000 0.32300  0.12330  0.23340  Biso   1.000  C
  C26      1.0000 0.67700  0.87670  0.76660  Biso   1.000  C
  C27      1.0000 0.43610  0.11740  0.33450  Biso   1.000  C
  C28      1.0000 0.56390  0.88260  0.66550  Biso   1.000  C
  C29      1.0000 0.50210  0.00190  0.33120  Biso   1.000  C
  C30      1.0000 0.49790  0.99810  0.66880  Biso   1.000  C
  C31      1.0000 0.45690  0.89030  0.22770  Biso   1.000  C
  C32      1.0000 0.54310  0.10970  0.77230  Biso   1.000  C
  C33      1.0000 0.34630  0.89480  0.12780  Biso   1.000  C
  C34      1.0000 0.65370  0.10520  0.87220  Biso   1.000  C
  C35      1.0000 0.27930  0.00930  0.13000  Biso   1.000  C
  C36      1.0000 0.72070  0.99070  0.87000  Biso   1.000  C
  C37      1.0000 0.23430  0.30590  0.10010  Biso   1.000  C
  C38      1.0000 0.76570  0.69410  0.89990  Biso   1.000  C
  C39      1.0000 0.37050  0.32420  0.07970  Biso   1.000  C
  C40      1.0000 0.62950  0.67580  0.92030  Biso   1.000  C
  C41      1.0000 0.37310  0.34830  0.97710  Biso   1.000  C
  C42      1.0000 0.62690  0.65170  0.02290  Biso   1.000  C
  C43      1.0000 0.24210  0.35790  0.89450  Biso   1.000  C
  C44      1.0000 0.75790  0.64210  0.10550  Biso   1.000  C
  C45      1.0000 0.10700  0.34300  0.91560  Biso   1.000  C
  C46      1.0000 0.89300  0.65700  0.08440  Biso   1.000  C
  C47      1.0000 0.10250  0.31620  0.01630  Biso   1.000  C
  C48      1.0000 0.89750  0.68380  0.98370  Biso   1.000  C
  H1       1.0000 0.31470  0.71320  0.31630  Biso   1.000  H
  H2       1.0000 0.68530  0.28680  0.68370  Biso   1.000  H
  H3       1.0000 0.20220  0.90230  0.33690  Biso   1.000  H
  H4       1.0000 0.79780  0.09770  0.66310  Biso   1.000  H
  H5       1.0000 0.01660  0.75780  0.54360  Biso   1.000  H
  H6       1.0000 0.98340  0.24220  0.45640  Biso   1.000  H
  H7       1.0000 0.13750  0.57260  0.52000  Biso   1.000  H
  H8       1.0000 0.86250  0.42740  0.48000  Biso   1.000  H
  H9       1.0000 0.06320  0.04940  0.42870  Biso   1.000  H
  H10      1.0000 0.93680  0.95060  0.57130  Biso   1.000  H
  H11      1.0000 0.00470  0.41880  0.24560  Biso   1.000  H
  H12      1.0000 0.99530  0.58120  0.75440  Biso   1.000  H
  H13      1.0000 0.74670  0.35980  0.22010  Biso   1.000  H
  H14      1.0000 0.25330  0.64020  0.77990  Biso   1.000  H
  H15      1.0000 0.62850  0.12570  0.17960  Biso   1.000  H
  H16      1.0000 0.37150  0.87430  0.82040  Biso   1.000  H
  H17      1.0000 0.76830  0.95160  0.16450  Biso   1.000  H
  H18      1.0000 0.23170  0.04840  0.83550  Biso   1.000  H
  H19      1.0000 0.02500  0.00920  0.18880  Biso   1.000  H
  H20      1.0000 0.97500  0.99080  0.81120  Biso   1.000  H
  H21      1.0000 0.46790  0.19320  0.40590  Biso   1.000  H
  H22      1.0000 0.53210  0.80680  0.59410  Biso   1.000  H
  H23      1.0000 0.57880  0.99910  0.40020  Biso   1.000  H
  H24      1.0000 0.42120  0.00090  0.59980  Biso   1.000  H
  H25      1.0000 0.50210  0.81110  0.22580  Biso   1.000  H
  H26      1.0000 0.49790  0.18890  0.77420  Biso   1.000  H
  H27      1.0000 0.31580  0.81870  0.05670  Biso   1.000  H
  H28      1.0000 0.68420  0.18130  0.94330  Biso   1.000  H
  H29      1.0000 0.20250  0.01070  0.06040  Biso   1.000  H
  H30      1.0000 0.79750  0.98930  0.93960  Biso   1.000  H
  H31      1.0000 0.46240  0.32010  0.13660  Biso   1.000  H
  H32      1.0000 0.53760  0.67990  0.86340  Biso   1.000  H
  H33      1.0000 0.46630  0.35840  0.96340  Biso   1.000  H
  H34      1.0000 0.53370  0.64160  0.03660  Biso   1.000  H
  H35      1.0000 0.24440  0.37450  0.82410  Biso   1.000  H
  H36      1.0000 0.75560  0.62550  0.17590  Biso   1.000  H
  H37      1.0000 0.01640  0.35140  0.86000  Biso   1.000  H
  H38      1.0000 0.98360  0.64860  0.14000  Biso   1.000  H
  H39      1.0000 0.00850  0.30450  0.02870  Biso   1.000  H
  H40      1.0000 0.99150  0.69550  0.97130  Biso   1.000  H
