data_image0
_cell_length_a       19.514
_cell_length_b       10.526
_cell_length_c       12.276
_cell_angle_alpha    90
_cell_angle_beta     96.839
_cell_angle_gamma    90

_symmetry_space_group_name_H-M    "P 1"
_symmetry_int_tables_number       1

loop_
  _symmetry_equiv_pos_as_xyz
  'x, y, z'

loop_
  _atom_site_label
  _atom_site_occupancy
  _atom_site_fract_x
  _atom_site_fract_y
  _atom_site_fract_z
  _atom_site_thermal_displace_type
  _atom_site_B_iso_or_equiv
  _atom_site_type_symbol
  Cu1      1.0000 0.00000  0.06139  0.25000  Biso   1.000  Cu
  Cu2      1.0000 0.50000  0.56139  0.25000  Biso   1.000  Cu
  Cu3      1.0000 0.00000  0.93861  0.75000  Biso   1.000  Cu
  Cu4      1.0000 0.50000  0.43861  0.75000  Biso   1.000  Cu
  Cl1      1.0000 0.50000  0.04460  0.25000  Biso   1.000  Cl
  Cl2      1.0000 0.00000  0.54460  0.25000  Biso   1.000  Cl
  Cl3      1.0000 0.50000  0.95540  0.75000  Biso   1.000  Cl
  Cl4      1.0000 0.00000  0.45540  0.75000  Biso   1.000  Cl
  O1       1.0000 0.79350  0.77950  0.19990  Biso   1.000  O
  O2       1.0000 0.20650  0.77950  0.30010  Biso   1.000  O
  O3       1.0000 0.29350  0.27950  0.19990  Biso   1.000  O
  O4       1.0000 0.70650  0.27950  0.30010  Biso   1.000  O
  O5       1.0000 0.20650  0.22050  0.80010  Biso   1.000  O
  O6       1.0000 0.79350  0.22050  0.69990  Biso   1.000  O
  O7       1.0000 0.70650  0.72050  0.80010  Biso   1.000  O
  O8       1.0000 0.29350  0.72050  0.69990  Biso   1.000  O
  O9       1.0000 0.82540  0.57570  0.61670  Biso   1.000  O
  O10      1.0000 0.17460  0.57570  0.88330  Biso   1.000  O
  O11      1.0000 0.32540  0.07570  0.61670  Biso   1.000  O
  O12      1.0000 0.67460  0.07570  0.88330  Biso   1.000  O
  O13      1.0000 0.17460  0.42430  0.38330  Biso   1.000  O
  O14      1.0000 0.82540  0.42430  0.11670  Biso   1.000  O
  O15      1.0000 0.67460  0.92430  0.38330  Biso   1.000  O
  O16      1.0000 0.32540  0.92430  0.11670  Biso   1.000  O
  O17      1.0000 0.54420  0.11540  0.20030  Biso   1.000  O
  O18      1.0000 0.45580  0.11540  0.29970  Biso   1.000  O
  O19      1.0000 0.04420  0.61540  0.20030  Biso   1.000  O
  O20      1.0000 0.95580  0.61540  0.29970  Biso   1.000  O
  O21      1.0000 0.45580  0.88460  0.79970  Biso   1.000  O
  O22      1.0000 0.54420  0.88460  0.70030  Biso   1.000  O
  O23      1.0000 0.95580  0.38460  0.79970  Biso   1.000  O
  O24      1.0000 0.04420  0.38460  0.70030  Biso   1.000  O
  O25      1.0000 0.53750  0.96170  0.32210  Biso   1.000  O
  O26      1.0000 0.46250  0.96170  0.17790  Biso   1.000  O
  O27      1.0000 0.03750  0.46170  0.32210  Biso   1.000  O
  O28      1.0000 0.96250  0.46170  0.17790  Biso   1.000  O
  O29      1.0000 0.46250  0.03830  0.67790  Biso   1.000  O
  O30      1.0000 0.53750  0.03830  0.82210  Biso   1.000  O
  O31      1.0000 0.96250  0.53830  0.67790  Biso   1.000  O
  O32      1.0000 0.03750  0.53830  0.82210  Biso   1.000  O
  O33      1.0000 0.19380  0.16930  0.06410  Biso   1.000  O
  O34      1.0000 0.80620  0.16930  0.43590  Biso   1.000  O
  O35      1.0000 0.69380  0.66930  0.06410  Biso   1.000  O
  O36      1.0000 0.30620  0.66930  0.43590  Biso   1.000  O
  O37      1.0000 0.80620  0.83070  0.93590  Biso   1.000  O
  O38      1.0000 0.19380  0.83070  0.56410  Biso   1.000  O
  O39      1.0000 0.30620  0.33070  0.93590  Biso   1.000  O
  O40      1.0000 0.69380  0.33070  0.56410  Biso   1.000  O
  N1       1.0000 0.93120  0.95080  0.31710  Biso   1.000  N
  N2       1.0000 0.06880  0.95080  0.18290  Biso   1.000  N
  N3       1.0000 0.43120  0.45080  0.31710  Biso   1.000  N
  N4       1.0000 0.56880  0.45080  0.18290  Biso   1.000  N
  N5       1.0000 0.06880  0.04920  0.68290  Biso   1.000  N
  N6       1.0000 0.93120  0.04920  0.81710  Biso   1.000  N
  N7       1.0000 0.56880  0.54920  0.68290  Biso   1.000  N
  N8       1.0000 0.43120  0.54920  0.81710  Biso   1.000  N
  N9       1.0000 0.05550  0.16310  0.36570  Biso   1.000  N
  N10      1.0000 0.94450  0.16310  0.13430  Biso   1.000  N
  N11      1.0000 0.55550  0.66310  0.36570  Biso   1.000  N
  N12      1.0000 0.44450  0.66310  0.13430  Biso   1.000  N
  N13      1.0000 0.94450  0.83690  0.63430  Biso   1.000  N
  N14      1.0000 0.05550  0.83690  0.86570  Biso   1.000  N
  N15      1.0000 0.44450  0.33690  0.63430  Biso   1.000  N
  N16      1.0000 0.55550  0.33690  0.86570  Biso   1.000  N
  C1       1.0000 0.80010  0.72890  0.30040  Biso   1.000  C
  C2       1.0000 0.19990  0.72890  0.19960  Biso   1.000  C
  C3       1.0000 0.30010  0.22890  0.30040  Biso   1.000  C
  C4       1.0000 0.69990  0.22890  0.19960  Biso   1.000  C
  C5       1.0000 0.19990  0.27110  0.69960  Biso   1.000  C
  C6       1.0000 0.80010  0.27110  0.80040  Biso   1.000  C
  C7       1.0000 0.69990  0.77110  0.69960  Biso   1.000  C
  C8       1.0000 0.30010  0.77110  0.80040  Biso   1.000  C
  C9       1.0000 0.85030  0.77830  0.37820  Biso   1.000  C
  C10      1.0000 0.14970  0.77830  0.12180  Biso   1.000  C
  C11      1.0000 0.35030  0.27830  0.37820  Biso   1.000  C
  C12      1.0000 0.64970  0.27830  0.12180  Biso   1.000  C
  C13      1.0000 0.14970  0.22170  0.62180  Biso   1.000  C
  C14      1.0000 0.85030  0.22170  0.87820  Biso   1.000  C
  C15      1.0000 0.64970  0.72170  0.62180  Biso   1.000  C
  C16      1.0000 0.35030  0.72170  0.87820  Biso   1.000  C
  C17      1.0000 0.85990  0.72870  0.48660  Biso   1.000  C
  C18      1.0000 0.14010  0.72870  0.01340  Biso   1.000  C
  C19      1.0000 0.35990  0.22870  0.48660  Biso   1.000  C
  C20      1.0000 0.64010  0.22870  0.01340  Biso   1.000  C
  C21      1.0000 0.14010  0.27130  0.51340  Biso   1.000  C
  C22      1.0000 0.85990  0.27130  0.98660  Biso   1.000  C
  C23      1.0000 0.64010  0.77130  0.51340  Biso   1.000  C
  C24      1.0000 0.35990  0.77130  0.98660  Biso   1.000  C
  C25      1.0000 0.81970  0.62710  0.51490  Biso   1.000  C
  C26      1.0000 0.18030  0.62710  0.98510  Biso   1.000  C
  C27      1.0000 0.31970  0.12710  0.51490  Biso   1.000  C
  C28      1.0000 0.68030  0.12710  0.98510  Biso   1.000  C
  C29      1.0000 0.18030  0.37290  0.48510  Biso   1.000  C
  C30      1.0000 0.81970  0.37290  0.01490  Biso   1.000  C
  C31      1.0000 0.68030  0.87290  0.48510  Biso   1.000  C
  C32      1.0000 0.31970  0.87290  0.01490  Biso   1.000  C
  C33      1.0000 0.76910  0.57890  0.43480  Biso   1.000  C
  C34      1.0000 0.23090  0.57890  0.06520  Biso   1.000  C
  C35      1.0000 0.26910  0.07890  0.43480  Biso   1.000  C
  C36      1.0000 0.73090  0.07890  0.06520  Biso   1.000  C
  C37      1.0000 0.23090  0.42110  0.56520  Biso   1.000  C
  C38      1.0000 0.76910  0.42110  0.93480  Biso   1.000  C
  C39      1.0000 0.73090  0.92110  0.56520  Biso   1.000  C
  C40      1.0000 0.26910  0.92110  0.93480  Biso   1.000  C
  C41      1.0000 0.75920  0.62800  0.33140  Biso   1.000  C
  C42      1.0000 0.24080  0.62800  0.16860  Biso   1.000  C
  C43      1.0000 0.25920  0.12800  0.33140  Biso   1.000  C
  C44      1.0000 0.74080  0.12800  0.16860  Biso   1.000  C
  C45      1.0000 0.24080  0.37200  0.66860  Biso   1.000  C
  C46      1.0000 0.75920  0.37200  0.83140  Biso   1.000  C
  C47      1.0000 0.74080  0.87200  0.66860  Biso   1.000  C
  C48      1.0000 0.25920  0.87200  0.83140  Biso   1.000  C
  C49      1.0000 0.89510  0.87590  0.34500  Biso   1.000  C
  C50      1.0000 0.10490  0.87590  0.15500  Biso   1.000  C
  C51      1.0000 0.39510  0.37590  0.34500  Biso   1.000  C
  C52      1.0000 0.60490  0.37590  0.15500  Biso   1.000  C
  C53      1.0000 0.10490  0.12410  0.65500  Biso   1.000  C
  C54      1.0000 0.89510  0.12410  0.84500  Biso   1.000  C
  C55      1.0000 0.60490  0.62410  0.65500  Biso   1.000  C
  C56      1.0000 0.39510  0.62410  0.84500  Biso   1.000  C
  C57      1.0000 0.09170  0.21300  0.43190  Biso   1.000  C
  C58      1.0000 0.90830  0.21300  0.06810  Biso   1.000  C
  C59      1.0000 0.59170  0.71300  0.43190  Biso   1.000  C
  C60      1.0000 0.40830  0.71300  0.06810  Biso   1.000  C
  C61      1.0000 0.90830  0.78700  0.56810  Biso   1.000  C
  C62      1.0000 0.09170  0.78700  0.93190  Biso   1.000  C
  C63      1.0000 0.40830  0.28700  0.56810  Biso   1.000  C
  C64      1.0000 0.59170  0.28700  0.93190  Biso   1.000  C
  C65      1.0000 0.13680  0.21450  0.04210  Biso   1.000  C
  C66      1.0000 0.86320  0.21450  0.45790  Biso   1.000  C
  C67      1.0000 0.63680  0.71450  0.04210  Biso   1.000  C
  C68      1.0000 0.36320  0.71450  0.45790  Biso   1.000  C
  C69      1.0000 0.86320  0.78550  0.95790  Biso   1.000  C
  C70      1.0000 0.13680  0.78550  0.54210  Biso   1.000  C
  C71      1.0000 0.36320  0.28550  0.95790  Biso   1.000  C
  C72      1.0000 0.63680  0.28550  0.54210  Biso   1.000  C
  C73      1.0000 0.11370  0.32520  0.10210  Biso   1.000  C
  C74      1.0000 0.88630  0.32520  0.39790  Biso   1.000  C
  C75      1.0000 0.61370  0.82520  0.10210  Biso   1.000  C
  C76      1.0000 0.38630  0.82520  0.39790  Biso   1.000  C
  C77      1.0000 0.88630  0.67480  0.89790  Biso   1.000  C
  C78      1.0000 0.11370  0.67480  0.60210  Biso   1.000  C
  C79      1.0000 0.38630  0.17480  0.89790  Biso   1.000  C
  C80      1.0000 0.61370  0.17480  0.60210  Biso   1.000  C
  C81      1.0000 0.08630  0.15650  0.95690  Biso   1.000  C
  C82      1.0000 0.91370  0.15650  0.54310  Biso   1.000  C
  C83      1.0000 0.58630  0.65650  0.95690  Biso   1.000  C
  C84      1.0000 0.41370  0.65650  0.54310  Biso   1.000  C
  C85      1.0000 0.91370  0.84350  0.04310  Biso   1.000  C
  C86      1.0000 0.08630  0.84350  0.45690  Biso   1.000  C
  C87      1.0000 0.41370  0.34350  0.04310  Biso   1.000  C
  C88      1.0000 0.58630  0.34350  0.45690  Biso   1.000  C
  H1       1.0000 0.76800  0.75000  0.16500  Biso   1.000  H
  H2       1.0000 0.23200  0.75000  0.33500  Biso   1.000  H
  H3       1.0000 0.26800  0.25000  0.16500  Biso   1.000  H
  H4       1.0000 0.73200  0.25000  0.33500  Biso   1.000  H
  H5       1.0000 0.23200  0.25000  0.83500  Biso   1.000  H
  H6       1.0000 0.76800  0.25000  0.66500  Biso   1.000  H
  H7       1.0000 0.73200  0.75000  0.83500  Biso   1.000  H
  H8       1.0000 0.26800  0.75000  0.66500  Biso   1.000  H
  H9       1.0000 0.72400  0.58700  0.27800  Biso   1.000  H
  H10      1.0000 0.27600  0.58700  0.22200  Biso   1.000  H
  H11      1.0000 0.22400  0.08700  0.27800  Biso   1.000  H
  H12      1.0000 0.77600  0.08700  0.22200  Biso   1.000  H
  H13      1.0000 0.27600  0.41300  0.72200  Biso   1.000  H
  H14      1.0000 0.72400  0.41300  0.77800  Biso   1.000  H
  H15      1.0000 0.77600  0.91300  0.72200  Biso   1.000  H
  H16      1.0000 0.22400  0.91300  0.77800  Biso   1.000  H
  H17      1.0000 0.74100  0.51500  0.45100  Biso   1.000  H
  H18      1.0000 0.25900  0.51500  0.04900  Biso   1.000  H
  H19      1.0000 0.24100  0.01500  0.45100  Biso   1.000  H
  H20      1.0000 0.75900  0.01500  0.04900  Biso   1.000  H
  H21      1.0000 0.25900  0.48500  0.54900  Biso   1.000  H
  H22      1.0000 0.74100  0.48500  0.95100  Biso   1.000  H
  H23      1.0000 0.75900  0.98500  0.54900  Biso   1.000  H
  H24      1.0000 0.24100  0.98500  0.95100  Biso   1.000  H
  H25      1.0000 0.86200  0.55800  0.64000  Biso   1.000  H
  H26      1.0000 0.13800  0.55800  0.86000  Biso   1.000  H
  H27      1.0000 0.36200  0.05800  0.64000  Biso   1.000  H
  H28      1.0000 0.63800  0.05800  0.86000  Biso   1.000  H
  H29      1.0000 0.13800  0.44200  0.36000  Biso   1.000  H
  H30      1.0000 0.86200  0.44200  0.14000  Biso   1.000  H
  H31      1.0000 0.63800  0.94200  0.36000  Biso   1.000  H
  H32      1.0000 0.36200  0.94200  0.14000  Biso   1.000  H
  H33      1.0000 0.15000  0.36300  0.15100  Biso   1.000  H
  H34      1.0000 0.85000  0.36300  0.34900  Biso   1.000  H
  H35      1.0000 0.65000  0.86300  0.15100  Biso   1.000  H
  H36      1.0000 0.35000  0.86300  0.34900  Biso   1.000  H
  H37      1.0000 0.85000  0.63700  0.84900  Biso   1.000  H
  H38      1.0000 0.15000  0.63700  0.65100  Biso   1.000  H
  H39      1.0000 0.35000  0.13700  0.84900  Biso   1.000  H
  H40      1.0000 0.65000  0.13700  0.65100  Biso   1.000  H
  H41      1.0000 0.10500  0.37900  0.03500  Biso   1.000  H
  H42      1.0000 0.89500  0.37900  0.46500  Biso   1.000  H
  H43      1.0000 0.60500  0.87900  0.03500  Biso   1.000  H
  H44      1.0000 0.39500  0.87900  0.46500  Biso   1.000  H
  H45      1.0000 0.89500  0.62100  0.96500  Biso   1.000  H
  H46      1.0000 0.10500  0.62100  0.53500  Biso   1.000  H
  H47      1.0000 0.39500  0.12100  0.96500  Biso   1.000  H
  H48      1.0000 0.60500  0.12100  0.53500  Biso   1.000  H
  H49      1.0000 0.07400  0.30600  0.13000  Biso   1.000  H
  H50      1.0000 0.92600  0.30600  0.37000  Biso   1.000  H
  H51      1.0000 0.57400  0.80600  0.13000  Biso   1.000  H
  H52      1.0000 0.42600  0.80600  0.37000  Biso   1.000  H
  H53      1.0000 0.92600  0.69400  0.87000  Biso   1.000  H
  H54      1.0000 0.07400  0.69400  0.63000  Biso   1.000  H
  H55      1.0000 0.42600  0.19400  0.87000  Biso   1.000  H
  H56      1.0000 0.57400  0.19400  0.63000  Biso   1.000  H
  H57      1.0000 0.04700  0.13700  0.99300  Biso   1.000  H
  H58      1.0000 0.95300  0.13700  0.50700  Biso   1.000  H
  H59      1.0000 0.54700  0.63700  0.99300  Biso   1.000  H
  H60      1.0000 0.45300  0.63700  0.50700  Biso   1.000  H
  H61      1.0000 0.95300  0.86300  0.00700  Biso   1.000  H
  H62      1.0000 0.04700  0.86300  0.49300  Biso   1.000  H
  H63      1.0000 0.45300  0.36300  0.00700  Biso   1.000  H
  H64      1.0000 0.54700  0.36300  0.49300  Biso   1.000  H
  H65      1.0000 0.07200  0.22100  0.90900  Biso   1.000  H
  H66      1.0000 0.92800  0.22100  0.59100  Biso   1.000  H
  H67      1.0000 0.57200  0.72100  0.90900  Biso   1.000  H
  H68      1.0000 0.42800  0.72100  0.59100  Biso   1.000  H
  H69      1.0000 0.92800  0.77900  0.09100  Biso   1.000  H
  H70      1.0000 0.07200  0.77900  0.40900  Biso   1.000  H
  H71      1.0000 0.42800  0.27900  0.09100  Biso   1.000  H
  H72      1.0000 0.57200  0.27900  0.40900  Biso   1.000  H
  H73      1.0000 0.10300  0.10100  0.92200  Biso   1.000  H
  H74      1.0000 0.89700  0.10100  0.57800  Biso   1.000  H
  H75      1.0000 0.60300  0.60100  0.92200  Biso   1.000  H
  H76      1.0000 0.39700  0.60100  0.57800  Biso   1.000  H
  H77      1.0000 0.89700  0.89900  0.07800  Biso   1.000  H
  H78      1.0000 0.10300  0.89900  0.42200  Biso   1.000  H
  H79      1.0000 0.39700  0.39900  0.07800  Biso   1.000  H
  H80      1.0000 0.60300  0.39900  0.42200  Biso   1.000  H
