data_image0
_cell_length_a       12.743
_cell_length_b       15.026
_cell_length_c       11.362
_cell_angle_alpha    90
_cell_angle_beta     90
_cell_angle_gamma    90

_symmetry_space_group_name_H-M    "P 1"
_symmetry_int_tables_number       1

loop_
  _symmetry_equiv_pos_as_xyz
  'x, y, z'

loop_
  _atom_site_label
  _atom_site_occupancy
  _atom_site_fract_x
  _atom_site_fract_y
  _atom_site_fract_z
  _atom_site_thermal_displace_type
  _atom_site_B_iso_or_equiv
  _atom_site_type_symbol
  Cu1      1.0000 0.25438  0.51132  0.22920  Biso   1.000  Cu
  Cu2      1.0000 0.24562  0.48868  0.72920  Biso   1.000  Cu
  Cu3      1.0000 0.75438  0.98868  0.77080  Biso   1.000  Cu
  Cu4      1.0000 0.74562  0.01132  0.27080  Biso   1.000  Cu
  P1       1.0000 0.13170  0.89270  0.16400  Biso   1.000  P
  P2       1.0000 0.36830  0.10730  0.66400  Biso   1.000  P
  P3       1.0000 0.63170  0.60730  0.83600  Biso   1.000  P
  P4       1.0000 0.86830  0.39270  0.33600  Biso   1.000  P
  F1       1.0000 0.16240  0.80520  0.23960  Biso   1.000  F
  F2       1.0000 0.33760  0.19480  0.73960  Biso   1.000  F
  F3       1.0000 0.66240  0.69480  0.76040  Biso   1.000  F
  F4       1.0000 0.83760  0.30520  0.26040  Biso   1.000  F
  F5       1.0000 0.10130  0.79220  0.15330  Biso   1.000  F
  F6       1.0000 0.39870  0.20780  0.65330  Biso   1.000  F
  F7       1.0000 0.60130  0.70780  0.84670  Biso   1.000  F
  F8       1.0000 0.89870  0.29220  0.34670  Biso   1.000  F
  F9       1.0000 0.01110  0.86990  0.18480  Biso   1.000  F
  F10      1.0000 0.48890  0.13010  0.68480  Biso   1.000  F
  F11      1.0000 0.51110  0.63010  0.81520  Biso   1.000  F
  F12      1.0000 0.98890  0.36990  0.31520  Biso   1.000  F
  F13      1.0000 0.02750  0.90150  0.25160  Biso   1.000  F
  F14      1.0000 0.47250  0.09850  0.75160  Biso   1.000  F
  F15      1.0000 0.52750  0.59850  0.74840  Biso   1.000  F
  F16      1.0000 0.97250  0.40150  0.24840  Biso   1.000  F
  F17      1.0000 0.03330  0.91830  0.07870  Biso   1.000  F
  F18      1.0000 0.46670  0.08170  0.57870  Biso   1.000  F
  F19      1.0000 0.53330  0.58170  0.92130  Biso   1.000  F
  F20      1.0000 0.96670  0.41830  0.42130  Biso   1.000  F
  F21      1.0000 0.16280  0.93080  0.28330  Biso   1.000  F
  F22      1.0000 0.33720  0.06920  0.78330  Biso   1.000  F
  F23      1.0000 0.66280  0.56920  0.71670  Biso   1.000  F
  F24      1.0000 0.83720  0.43080  0.21670  Biso   1.000  F
  F25      1.0000 0.12610  0.00060  0.15670  Biso   1.000  F
  F26      1.0000 0.37390  0.99940  0.65670  Biso   1.000  F
  F27      1.0000 0.62610  0.49940  0.84330  Biso   1.000  F
  F28      1.0000 0.87390  0.50060  0.34330  Biso   1.000  F
  F29      1.0000 0.10910  0.97250  0.08230  Biso   1.000  F
  F30      1.0000 0.39090  0.02750  0.58230  Biso   1.000  F
  F31      1.0000 0.60910  0.52750  0.91770  Biso   1.000  F
  F32      1.0000 0.89090  0.47250  0.41770  Biso   1.000  F
  F33      1.0000 0.23830  0.90400  0.09250  Biso   1.000  F
  F34      1.0000 0.26170  0.09600  0.59250  Biso   1.000  F
  F35      1.0000 0.73830  0.59600  0.90750  Biso   1.000  F
  F36      1.0000 0.76170  0.40400  0.40750  Biso   1.000  F
  F37      1.0000 0.25590  0.89770  0.14870  Biso   1.000  F
  F38      1.0000 0.24410  0.10230  0.64870  Biso   1.000  F
  F39      1.0000 0.75590  0.60230  0.85130  Biso   1.000  F
  F40      1.0000 0.74410  0.39770  0.35130  Biso   1.000  F
  F41      1.0000 0.12730  0.86220  0.02540  Biso   1.000  F
  F42      1.0000 0.37270  0.13780  0.52540  Biso   1.000  F
  F43      1.0000 0.62730  0.63780  0.97460  Biso   1.000  F
  F44      1.0000 0.87270  0.36220  0.47460  Biso   1.000  F
  F45      1.0000 0.13430  0.81220  0.06890  Biso   1.000  F
  F46      1.0000 0.36570  0.18780  0.56890  Biso   1.000  F
  F47      1.0000 0.63430  0.68780  0.93110  Biso   1.000  F
  F48      1.0000 0.86570  0.31220  0.43110  Biso   1.000  F
  O1       1.0000 0.34090  0.21940  0.19830  Biso   1.000  O
  O2       1.0000 0.15910  0.78060  0.69830  Biso   1.000  O
  O3       1.0000 0.84090  0.28060  0.80170  Biso   1.000  O
  O4       1.0000 0.65910  0.71940  0.30170  Biso   1.000  O
  N1       1.0000 0.32440  0.60190  0.12600  Biso   1.000  N
  N2       1.0000 0.17560  0.39810  0.62600  Biso   1.000  N
  N3       1.0000 0.82440  0.89810  0.87400  Biso   1.000  N
  N4       1.0000 0.67560  0.10190  0.37400  Biso   1.000  N
  N5       1.0000 0.19330  0.41660  0.13130  Biso   1.000  N
  N6       1.0000 0.30670  0.58340  0.63130  Biso   1.000  N
  N7       1.0000 0.69330  0.08340  0.86870  Biso   1.000  N
  N8       1.0000 0.80670  0.91660  0.36870  Biso   1.000  N
  N9       1.0000 0.35340  0.45330  0.34440  Biso   1.000  N
  N10      1.0000 0.14660  0.54670  0.84440  Biso   1.000  N
  N11      1.0000 0.85340  0.04670  0.65560  Biso   1.000  N
  N12      1.0000 0.64660  0.95330  0.15560  Biso   1.000  N
  N13      1.0000 0.14970  0.57510  0.32480  Biso   1.000  N
  N14      1.0000 0.35030  0.42490  0.82480  Biso   1.000  N
  N15      1.0000 0.64970  0.92490  0.67520  Biso   1.000  N
  N16      1.0000 0.85030  0.07510  0.17520  Biso   1.000  N
  C1       1.0000 0.35620  0.66270  0.08180  Biso   1.000  C
  C2       1.0000 0.14380  0.33730  0.58180  Biso   1.000  C
  C3       1.0000 0.85620  0.83730  0.91820  Biso   1.000  C
  C4       1.0000 0.64380  0.16270  0.41820  Biso   1.000  C
  C5       1.0000 0.39610  0.74240  0.02640  Biso   1.000  C
  C6       1.0000 0.10390  0.25760  0.52640  Biso   1.000  C
  C7       1.0000 0.89610  0.75760  0.97360  Biso   1.000  C
  C8       1.0000 0.60390  0.24240  0.47360  Biso   1.000  C
  C9       1.0000 0.35280  0.77640  0.92340  Biso   1.000  C
  C10      1.0000 0.14720  0.22360  0.42340  Biso   1.000  C
  C11      1.0000 0.85280  0.72360  0.07660  Biso   1.000  C
  C12      1.0000 0.64720  0.27640  0.57660  Biso   1.000  C
  C13      1.0000 0.39470  0.85320  0.87730  Biso   1.000  C
  C14      1.0000 0.10530  0.14680  0.37730  Biso   1.000  C
  C15      1.0000 0.89470  0.64680  0.12270  Biso   1.000  C
  C16      1.0000 0.60530  0.35320  0.62270  Biso   1.000  C
  C17      1.0000 0.47340  0.89820  0.92580  Biso   1.000  C
  C18      1.0000 0.02660  0.10180  0.42580  Biso   1.000  C
  C19      1.0000 0.97340  0.60180  0.07420  Biso   1.000  C
  C20      1.0000 0.52660  0.39820  0.57420  Biso   1.000  C
  C21      1.0000 0.51150  0.86590  0.03340  Biso   1.000  C
  C22      1.0000 0.98850  0.13410  0.53340  Biso   1.000  C
  C23      1.0000 0.01150  0.63410  0.96660  Biso   1.000  C
  C24      1.0000 0.48850  0.36590  0.46660  Biso   1.000  C
  C25      1.0000 0.47580  0.78680  0.08310  Biso   1.000  C
  C26      1.0000 0.02420  0.21320  0.58310  Biso   1.000  C
  C27      1.0000 0.97580  0.71320  0.91690  Biso   1.000  C
  C28      1.0000 0.52420  0.28680  0.41690  Biso   1.000  C
  C29      1.0000 0.59050  0.91470  0.10160  Biso   1.000  C
  C30      1.0000 0.90950  0.08530  0.60160  Biso   1.000  C
  C31      1.0000 0.09050  0.58530  0.89840  Biso   1.000  C
  C32      1.0000 0.40950  0.41470  0.39840  Biso   1.000  C
  C33      1.0000 0.84260  0.85620  0.41810  Biso   1.000  C
  C34      1.0000 0.65740  0.14380  0.91810  Biso   1.000  C
  C35      1.0000 0.34260  0.64380  0.58190  Biso   1.000  C
  C36      1.0000 0.15740  0.35620  0.08190  Biso   1.000  C
  C37      1.0000 0.89060  0.77740  0.46360  Biso   1.000  C
  C38      1.0000 0.60940  0.22260  0.96360  Biso   1.000  C
  C39      1.0000 0.39060  0.72260  0.53640  Biso   1.000  C
  C40      1.0000 0.10940  0.27740  0.03640  Biso   1.000  C
  C41      1.0000 0.85760  0.74620  0.57660  Biso   1.000  C
  C42      1.0000 0.64240  0.25380  0.07660  Biso   1.000  C
  C43      1.0000 0.35760  0.75380  0.42340  Biso   1.000  C
  C44      1.0000 0.14240  0.24620  0.92340  Biso   1.000  C
  C45      1.0000 0.89930  0.66930  0.62280  Biso   1.000  C
  C46      1.0000 0.60070  0.33070  0.12280  Biso   1.000  C
  C47      1.0000 0.39930  0.83070  0.37720  Biso   1.000  C
  C48      1.0000 0.10070  0.16930  0.87720  Biso   1.000  C
  C49      1.0000 0.97620  0.62510  0.55420  Biso   1.000  C
  C50      1.0000 0.52380  0.37490  0.05420  Biso   1.000  C
  C51      1.0000 0.47620  0.87490  0.44580  Biso   1.000  C
  C52      1.0000 0.02380  0.12510  0.94580  Biso   1.000  C
  C53      1.0000 0.00970  0.65790  0.44840  Biso   1.000  C
  C54      1.0000 0.49030  0.34210  0.94840  Biso   1.000  C
  C55      1.0000 0.50970  0.84210  0.55160  Biso   1.000  C
  C56      1.0000 0.99030  0.15790  0.05160  Biso   1.000  C
  C57      1.0000 0.96650  0.73400  0.40090  Biso   1.000  C
  C58      1.0000 0.53350  0.26600  0.90090  Biso   1.000  C
  C59      1.0000 0.46650  0.76600  0.59910  Biso   1.000  C
  C60      1.0000 0.03350  0.23400  0.09910  Biso   1.000  C
  C61      1.0000 0.08540  0.61110  0.38090  Biso   1.000  C
  C62      1.0000 0.41460  0.38890  0.88090  Biso   1.000  C
  C63      1.0000 0.58540  0.88890  0.61910  Biso   1.000  C
  C64      1.0000 0.91460  0.11110  0.11910  Biso   1.000  C
  C65      1.0000 0.35920  0.14330  0.17620  Biso   1.000  C
  C66      1.0000 0.14080  0.85670  0.67620  Biso   1.000  C
  C67      1.0000 0.85920  0.35670  0.82380  Biso   1.000  C
  C68      1.0000 0.64080  0.64330  0.32380  Biso   1.000  C
  C69      1.0000 0.35000  0.11140  0.05600  Biso   1.000  C
  C70      1.0000 0.15000  0.88860  0.55600  Biso   1.000  C
  C71      1.0000 0.85000  0.38860  0.94400  Biso   1.000  C
  C72      1.0000 0.65000  0.61140  0.44400  Biso   1.000  C
  C73      1.0000 0.39200  0.08010  0.26400  Biso   1.000  C
  C74      1.0000 0.10800  0.91990  0.76400  Biso   1.000  C
  C75      1.0000 0.89200  0.41990  0.73600  Biso   1.000  C
  C76      1.0000 0.60800  0.58010  0.23600  Biso   1.000  C
  H1       1.0000 0.29830  0.74910  0.88490  Biso   1.000  H
  H2       1.0000 0.20170  0.25090  0.38490  Biso   1.000  H
  H3       1.0000 0.79830  0.75090  0.11510  Biso   1.000  H
  H4       1.0000 0.70170  0.24910  0.61510  Biso   1.000  H
  H5       1.0000 0.35570  0.87780  0.78570  Biso   1.000  H
  H6       1.0000 0.14430  0.12220  0.28570  Biso   1.000  H
  H7       1.0000 0.85570  0.62220  0.21430  Biso   1.000  H
  H8       1.0000 0.64430  0.37780  0.71430  Biso   1.000  H
  H9       1.0000 0.49950  0.95120  0.89700  Biso   1.000  H
  H10      1.0000 0.00050  0.04880  0.39700  Biso   1.000  H
  H11      1.0000 0.99950  0.54880  0.10300  Biso   1.000  H
  H12      1.0000 0.50050  0.45120  0.60300  Biso   1.000  H
  H13      1.0000 0.50430  0.76280  0.15430  Biso   1.000  H
  H14      1.0000 0.99570  0.23720  0.65430  Biso   1.000  H
  H15      1.0000 0.00430  0.73720  0.84570  Biso   1.000  H
  H16      1.0000 0.49570  0.26280  0.34570  Biso   1.000  H
  H17      1.0000 0.80720  0.77680  0.62130  Biso   1.000  H
  H18      1.0000 0.69280  0.22320  0.12130  Biso   1.000  H
  H19      1.0000 0.30720  0.72320  0.37870  Biso   1.000  H
  H20      1.0000 0.19280  0.27680  0.87870  Biso   1.000  H
  H21      1.0000 0.85460  0.63830  0.70710  Biso   1.000  H
  H22      1.0000 0.64540  0.36170  0.20710  Biso   1.000  H
  H23      1.0000 0.35460  0.86170  0.29290  Biso   1.000  H
  H24      1.0000 0.14540  0.13830  0.79290  Biso   1.000  H
  H25      1.0000 0.01490  0.57610  0.59190  Biso   1.000  H
  H26      1.0000 0.48510  0.42390  0.09190  Biso   1.000  H
  H27      1.0000 0.51490  0.92390  0.40810  Biso   1.000  H
  H28      1.0000 0.98510  0.07610  0.90810  Biso   1.000  H
  H29      1.0000 0.98960  0.75590  0.32560  Biso   1.000  H
  H30      1.0000 0.51040  0.24410  0.82560  Biso   1.000  H
  H31      1.0000 0.48960  0.74410  0.67440  Biso   1.000  H
  H32      1.0000 0.01040  0.25590  0.17440  Biso   1.000  H
  H33      1.0000 0.39130  0.14380  0.00450  Biso   1.000  H
  H34      1.0000 0.10870  0.85620  0.50450  Biso   1.000  H
  H35      1.0000 0.89130  0.35620  0.99550  Biso   1.000  H
  H36      1.0000 0.60870  0.64380  0.49550  Biso   1.000  H
  H37      1.0000 0.27630  0.11740  0.03240  Biso   1.000  H
  H38      1.0000 0.22370  0.88260  0.53240  Biso   1.000  H
  H39      1.0000 0.77630  0.38260  0.96760  Biso   1.000  H
  H40      1.0000 0.72370  0.61740  0.46760  Biso   1.000  H
  H41      1.0000 0.36620  0.04930  0.05170  Biso   1.000  H
  H42      1.0000 0.13380  0.95070  0.55170  Biso   1.000  H
  H43      1.0000 0.86620  0.45070  0.94830  Biso   1.000  H
  H44      1.0000 0.63380  0.54930  0.44830  Biso   1.000  H
  H45      1.0000 0.34030  0.07710  0.33040  Biso   1.000  H
  H46      1.0000 0.15970  0.92290  0.83040  Biso   1.000  H
  H47      1.0000 0.84030  0.42290  0.66960  Biso   1.000  H
  H48      1.0000 0.65970  0.57710  0.16960  Biso   1.000  H
  H49      1.0000 0.45650  0.10270  0.30800  Biso   1.000  H
  H50      1.0000 0.04350  0.89730  0.80800  Biso   1.000  H
  H51      1.0000 0.95650  0.39730  0.69200  Biso   1.000  H
  H52      1.0000 0.54350  0.60270  0.19200  Biso   1.000  H
  H53      1.0000 0.40700  0.02290  0.24160  Biso   1.000  H
  H54      1.0000 0.09300  0.97710  0.74160  Biso   1.000  H
  H55      1.0000 0.90700  0.47710  0.75840  Biso   1.000  H
  H56      1.0000 0.59300  0.52290  0.25840  Biso   1.000  H
