data_image0
_cell_length_a       12.7561
_cell_length_b       19.3589
_cell_length_c       15.8597
_cell_angle_alpha    90
_cell_angle_beta     97.178
_cell_angle_gamma    90

_symmetry_space_group_name_H-M    "P 1"
_symmetry_int_tables_number       1

loop_
  _symmetry_equiv_pos_as_xyz
  'x, y, z'

loop_
  _atom_site_label
  _atom_site_occupancy
  _atom_site_fract_x
  _atom_site_fract_y
  _atom_site_fract_z
  _atom_site_thermal_displace_type
  _atom_site_B_iso_or_equiv
  _atom_site_type_symbol
  Br1      1.0000 0.90096  0.48771  0.38571  Biso   1.000  Br
  Br2      1.0000 0.09904  0.48771  0.61429  Biso   1.000  Br
  Br3      1.0000 0.40096  0.98771  0.38571  Biso   1.000  Br
  Br4      1.0000 0.59904  0.98771  0.61429  Biso   1.000  Br
  Br5      1.0000 0.24598  0.55792  0.41357  Biso   1.000  Br
  Br6      1.0000 0.75402  0.55792  0.58643  Biso   1.000  Br
  Br7      1.0000 0.74598  0.05792  0.41357  Biso   1.000  Br
  Br8      1.0000 0.25402  0.05792  0.58643  Biso   1.000  Br
  Br9      1.0000 0.00000  0.66958  0.50000  Biso   1.000  Br
  Br10     1.0000 0.50000  0.16958  0.50000  Biso   1.000  Br
  Br11     1.0000 0.73199  0.32930  0.91940  Biso   1.000  Br
  Br12     1.0000 0.26801  0.32930  0.08060  Biso   1.000  Br
  Br13     1.0000 0.23199  0.82930  0.91940  Biso   1.000  Br
  Br14     1.0000 0.76801  0.82930  0.08060  Biso   1.000  Br
  Br15     1.0000 0.96094  0.36864  0.12796  Biso   1.000  Br
  Br16     1.0000 0.03906  0.36864  0.87204  Biso   1.000  Br
  Br17     1.0000 0.46094  0.86864  0.12796  Biso   1.000  Br
  Br18     1.0000 0.53906  0.86864  0.87204  Biso   1.000  Br
  Br19     1.0000 0.00000  0.19817  0.00000  Biso   1.000  Br
  Br20     1.0000 0.50000  0.69817  0.00000  Biso   1.000  Br
  Cu1      1.0000 0.89638  0.56476  0.50598  Biso   1.000  Cu
  Cu2      1.0000 0.10362  0.56476  0.49402  Biso   1.000  Cu
  Cu3      1.0000 0.39638  0.06476  0.50598  Biso   1.000  Cu
  Cu4      1.0000 0.60362  0.06476  0.49402  Biso   1.000  Cu
  Cu5      1.0000 0.00000  0.41308  0.50000  Biso   1.000  Cu
  Cu6      1.0000 0.50000  0.91308  0.50000  Biso   1.000  Cu
  Cu7      1.0000 0.00000  0.23135  0.50000  Biso   1.000  Cu
  Cu8      1.0000 0.50000  0.73135  0.50000  Biso   1.000  Cu
  Cu9      1.0000 0.59088  0.28852  0.20884  Biso   1.000  Cu
  Cu10     1.0000 0.40912  0.28852  0.79116  Biso   1.000  Cu
  Cu11     1.0000 0.09088  0.78852  0.20884  Biso   1.000  Cu
  Cu12     1.0000 0.90912  0.78852  0.79116  Biso   1.000  Cu
  Cu13     1.0000 0.77255  0.32701  0.08615  Biso   1.000  Cu
  Cu14     1.0000 0.22745  0.32701  0.91385  Biso   1.000  Cu
  Cu15     1.0000 0.27255  0.82701  0.08615  Biso   1.000  Cu
  Cu16     1.0000 0.72745  0.82701  0.91385  Biso   1.000  Cu
  Cu17     1.0000 0.91372  0.30580  0.94905  Biso   1.000  Cu
  Cu18     1.0000 0.08628  0.30580  0.05095  Biso   1.000  Cu
  Cu19     1.0000 0.41372  0.80580  0.94905  Biso   1.000  Cu
  Cu20     1.0000 0.58628  0.80580  0.05095  Biso   1.000  Cu
  N1       1.0000 0.87980  0.37000  0.55330  Biso   1.000  N
  N2       1.0000 0.12020  0.37000  0.44670  Biso   1.000  N
  N3       1.0000 0.37980  0.87000  0.55330  Biso   1.000  N
  N4       1.0000 0.62020  0.87000  0.44670  Biso   1.000  N
  N5       1.0000 0.89620  0.27890  0.40830  Biso   1.000  N
  N6       1.0000 0.10380  0.27890  0.59170  Biso   1.000  N
  N7       1.0000 0.39620  0.77890  0.40830  Biso   1.000  N
  N8       1.0000 0.60380  0.77890  0.59170  Biso   1.000  N
  N9       1.0000 0.06160  0.19641  0.39960  Biso   1.000  N
  N10      1.0000 0.93840  0.19641  0.60040  Biso   1.000  N
  N11      1.0000 0.56160  0.69641  0.39960  Biso   1.000  N
  N12      1.0000 0.43840  0.69641  0.60040  Biso   1.000  N
  N13      1.0000 0.56170  0.36280  0.28950  Biso   1.000  N
  N14      1.0000 0.43830  0.36280  0.71050  Biso   1.000  N
  N15      1.0000 0.06170  0.86280  0.28950  Biso   1.000  N
  N16      1.0000 0.93830  0.86280  0.71050  Biso   1.000  N
  N17      1.0000 0.73720  0.29380  0.27740  Biso   1.000  N
  N18      1.0000 0.26280  0.29380  0.72260  Biso   1.000  N
  N19      1.0000 0.23720  0.79380  0.27740  Biso   1.000  N
  N20      1.0000 0.76280  0.79380  0.72260  Biso   1.000  N
  N21      1.0000 0.77830  0.22600  0.11700  Biso   1.000  N
  N22      1.0000 0.22170  0.22600  0.88300  Biso   1.000  N
  N23      1.0000 0.27830  0.72600  0.11700  Biso   1.000  N
  N24      1.0000 0.72170  0.72600  0.88300  Biso   1.000  N
  N25      1.0000 0.54770  0.19130  0.18580  Biso   1.000  N
  N26      1.0000 0.45230  0.19130  0.81420  Biso   1.000  N
  N27      1.0000 0.04770  0.69130  0.18580  Biso   1.000  N
  N28      1.0000 0.95230  0.69130  0.81420  Biso   1.000  N
  N29      1.0000 0.54170  0.29633  0.08260  Biso   1.000  N
  N30      1.0000 0.45830  0.29633  0.91740  Biso   1.000  N
  N31      1.0000 0.04170  0.79633  0.08260  Biso   1.000  N
  N32      1.0000 0.95830  0.79633  0.91740  Biso   1.000  N
  N33      1.0000 0.68120  0.40729  0.11780  Biso   1.000  N
  N34      1.0000 0.31880  0.40729  0.88220  Biso   1.000  N
  N35      1.0000 0.18120  0.90729  0.11780  Biso   1.000  N
  N36      1.0000 0.81880  0.90729  0.88220  Biso   1.000  N
  C1       1.0000 0.87260  0.38010  0.63710  Biso   1.000  C
  C2       1.0000 0.12740  0.38010  0.36290  Biso   1.000  C
  C3       1.0000 0.37260  0.88010  0.63710  Biso   1.000  C
  C4       1.0000 0.62740  0.88010  0.36290  Biso   1.000  C
  H1       1.0000 0.92750  0.40530  0.66970  Biso   1.000  H
  H2       1.0000 0.07250  0.40530  0.33030  Biso   1.000  H
  H3       1.0000 0.42750  0.90530  0.66970  Biso   1.000  H
  H4       1.0000 0.57250  0.90530  0.33030  Biso   1.000  H
  C5       1.0000 0.79030  0.35600  0.67760  Biso   1.000  C
  C6       1.0000 0.20970  0.35600  0.32240  Biso   1.000  C
  C7       1.0000 0.29030  0.85600  0.67760  Biso   1.000  C
  C8       1.0000 0.70970  0.85600  0.32240  Biso   1.000  C
  H5       1.0000 0.78940  0.36340  0.73670  Biso   1.000  H
  H6       1.0000 0.21060  0.36340  0.26330  Biso   1.000  H
  H7       1.0000 0.28940  0.86340  0.73670  Biso   1.000  H
  H8       1.0000 0.71060  0.86340  0.26330  Biso   1.000  H
  C9       1.0000 0.70930  0.32090  0.62980  Biso   1.000  C
  C10      1.0000 0.29070  0.32090  0.37020  Biso   1.000  C
  C11      1.0000 0.20930  0.82090  0.62980  Biso   1.000  C
  C12      1.0000 0.79070  0.82090  0.37020  Biso   1.000  C
  H9       1.0000 0.65150  0.30380  0.65610  Biso   1.000  H
  H10      1.0000 0.34850  0.30380  0.34390  Biso   1.000  H
  H11      1.0000 0.15150  0.80380  0.65610  Biso   1.000  H
  H12      1.0000 0.84850  0.80380  0.34390  Biso   1.000  H
  C13      1.0000 0.71220  0.31090  0.54460  Biso   1.000  C
  C14      1.0000 0.28780  0.31090  0.45540  Biso   1.000  C
  C15      1.0000 0.21220  0.81090  0.54460  Biso   1.000  C
  C16      1.0000 0.78780  0.81090  0.45540  Biso   1.000  C
  H13      1.0000 0.65590  0.28810  0.51070  Biso   1.000  H
  H14      1.0000 0.34410  0.28810  0.48930  Biso   1.000  H
  H15      1.0000 0.15590  0.78810  0.51070  Biso   1.000  H
  H16      1.0000 0.84410  0.78810  0.48930  Biso   1.000  H
  C17      1.0000 0.79970  0.33470  0.50860  Biso   1.000  C
  C18      1.0000 0.20030  0.33470  0.49140  Biso   1.000  C
  C19      1.0000 0.29970  0.83470  0.50860  Biso   1.000  C
  C20      1.0000 0.70030  0.83470  0.49140  Biso   1.000  C
  C21      1.0000 0.81090  0.31650  0.41890  Biso   1.000  C
  C22      1.0000 0.18910  0.31650  0.58110  Biso   1.000  C
  C23      1.0000 0.31090  0.81650  0.41890  Biso   1.000  C
  C24      1.0000 0.68910  0.81650  0.58110  Biso   1.000  C
  C25      1.0000 0.90530  0.25030  0.33200  Biso   1.000  C
  C26      1.0000 0.09470  0.25030  0.66800  Biso   1.000  C
  C27      1.0000 0.40530  0.75030  0.33200  Biso   1.000  C
  C28      1.0000 0.59470  0.75030  0.66800  Biso   1.000  C
  C29      1.0000 0.00750  0.21710  0.32460  Biso   1.000  C
  C30      1.0000 0.99250  0.21710  0.67540  Biso   1.000  C
  C31      1.0000 0.50750  0.71710  0.32460  Biso   1.000  C
  C32      1.0000 0.49250  0.71710  0.67540  Biso   1.000  C
  C33      1.0000 0.05000  0.21110  0.24740  Biso   1.000  C
  C34      1.0000 0.95000  0.21110  0.75260  Biso   1.000  C
  C35      1.0000 0.55000  0.71110  0.24740  Biso   1.000  C
  C36      1.0000 0.45000  0.71110  0.75260  Biso   1.000  C
  H17      1.0000 0.01070  0.22550  0.19560  Biso   1.000  H
  H18      1.0000 0.98930  0.22550  0.80440  Biso   1.000  H
  H19      1.0000 0.51070  0.72550  0.19560  Biso   1.000  H
  H20      1.0000 0.48930  0.72550  0.80440  Biso   1.000  H
  C37      1.0000 0.15040  0.18360  0.24850  Biso   1.000  C
  C38      1.0000 0.84960  0.18360  0.75150  Biso   1.000  C
  C39      1.0000 0.65040  0.68360  0.24850  Biso   1.000  C
  C40      1.0000 0.34960  0.68360  0.75150  Biso   1.000  C
  H21      1.0000 0.18240  0.18060  0.19770  Biso   1.000  H
  H22      1.0000 0.81760  0.18060  0.80230  Biso   1.000  H
  H23      1.0000 0.68240  0.68060  0.19770  Biso   1.000  H
  H24      1.0000 0.31760  0.68060  0.80230  Biso   1.000  H
  C41      1.0000 0.20350  0.16070  0.32480  Biso   1.000  C
  C42      1.0000 0.79650  0.16070  0.67520  Biso   1.000  C
  C43      1.0000 0.70350  0.66070  0.32480  Biso   1.000  C
  C44      1.0000 0.29650  0.66070  0.67520  Biso   1.000  C
  H25      1.0000 0.27150  0.14040  0.32650  Biso   1.000  H
  H26      1.0000 0.72850  0.14040  0.67350  Biso   1.000  H
  H27      1.0000 0.77150  0.64040  0.32650  Biso   1.000  H
  H28      1.0000 0.22850  0.64040  0.67350  Biso   1.000  H
  C45      1.0000 0.15730  0.16750  0.39780  Biso   1.000  C
  C46      1.0000 0.84270  0.16750  0.60220  Biso   1.000  C
  C47      1.0000 0.65730  0.66750  0.39780  Biso   1.000  C
  C48      1.0000 0.34270  0.66750  0.60220  Biso   1.000  C
  H29      1.0000 0.19450  0.15120  0.44950  Biso   1.000  H
  H30      1.0000 0.80550  0.15120  0.55050  Biso   1.000  H
  H31      1.0000 0.69450  0.65120  0.44950  Biso   1.000  H
  H32      1.0000 0.30550  0.65120  0.55050  Biso   1.000  H
  C49      1.0000 0.47520  0.40420  0.28370  Biso   1.000  C
  C50      1.0000 0.52480  0.40420  0.71630  Biso   1.000  C
  C51      1.0000 0.97520  0.90420  0.28370  Biso   1.000  C
  C52      1.0000 0.02480  0.90420  0.71630  Biso   1.000  C
  H33      1.0000 0.41730  0.39440  0.24160  Biso   1.000  H
  H34      1.0000 0.58270  0.39440  0.75840  Biso   1.000  H
  H35      1.0000 0.91730  0.89440  0.24160  Biso   1.000  H
  H36      1.0000 0.08270  0.89440  0.75840  Biso   1.000  H
  C53      1.0000 0.46840  0.45960  0.33650  Biso   1.000  C
  C54      1.0000 0.53160  0.45960  0.66350  Biso   1.000  C
  C55      1.0000 0.96840  0.95960  0.33650  Biso   1.000  C
  C56      1.0000 0.03160  0.95960  0.66350  Biso   1.000  C
  H37      1.0000 0.40610  0.48690  0.33180  Biso   1.000  H
  H38      1.0000 0.59390  0.48690  0.66820  Biso   1.000  H
  H39      1.0000 0.90610  0.98690  0.33180  Biso   1.000  H
  H40      1.0000 0.09390  0.98690  0.66820  Biso   1.000  H
  C57      1.0000 0.55350  0.47570  0.39730  Biso   1.000  C
  C58      1.0000 0.44650  0.47570  0.60270  Biso   1.000  C
  C59      1.0000 0.05350  0.97570  0.39730  Biso   1.000  C
  C60      1.0000 0.94650  0.97570  0.60270  Biso   1.000  C
  H41      1.0000 0.55030  0.51450  0.43360  Biso   1.000  H
  H42      1.0000 0.44970  0.51450  0.56640  Biso   1.000  H
  H43      1.0000 0.05030  0.01450  0.43360  Biso   1.000  H
  H44      1.0000 0.94970  0.01450  0.56640  Biso   1.000  H
  C61      1.0000 0.64270  0.43440  0.40410  Biso   1.000  C
  C62      1.0000 0.35730  0.43440  0.59590  Biso   1.000  C
  C63      1.0000 0.14270  0.93440  0.40410  Biso   1.000  C
  C64      1.0000 0.85730  0.93440  0.59590  Biso   1.000  C
  H45      1.0000 0.70200  0.44440  0.44470  Biso   1.000  H
  H46      1.0000 0.29800  0.44440  0.55530  Biso   1.000  H
  H47      1.0000 0.20200  0.94440  0.44470  Biso   1.000  H
  H48      1.0000 0.79800  0.94440  0.55530  Biso   1.000  H
  C65      1.0000 0.64330  0.37740  0.34950  Biso   1.000  C
  C66      1.0000 0.35670  0.37740  0.65050  Biso   1.000  C
  C67      1.0000 0.14330  0.87740  0.34950  Biso   1.000  C
  C68      1.0000 0.85670  0.87740  0.65050  Biso   1.000  C
  C69      1.0000 0.73390  0.32950  0.34980  Biso   1.000  C
  C70      1.0000 0.26610  0.32950  0.65020  Biso   1.000  C
  C71      1.0000 0.23390  0.82950  0.34980  Biso   1.000  C
  C72      1.0000 0.76610  0.82950  0.65020  Biso   1.000  C
  C73      1.0000 0.81860  0.25240  0.26840  Biso   1.000  C
  C74      1.0000 0.18140  0.25240  0.73160  Biso   1.000  C
  C75      1.0000 0.31860  0.75240  0.26840  Biso   1.000  C
  C76      1.0000 0.68140  0.75240  0.73160  Biso   1.000  C
  C77      1.0000 0.80690  0.20200  0.19630  Biso   1.000  C
  C78      1.0000 0.19310  0.20200  0.80370  Biso   1.000  C
  C79      1.0000 0.30690  0.70200  0.19630  Biso   1.000  C
  C80      1.0000 0.69310  0.70200  0.80370  Biso   1.000  C
  C81      1.0000 0.81640  0.13240  0.21550  Biso   1.000  C
  C82      1.0000 0.18360  0.13240  0.78450  Biso   1.000  C
  C83      1.0000 0.31640  0.63240  0.21550  Biso   1.000  C
  C84      1.0000 0.68360  0.63240  0.78450  Biso   1.000  C
  H49      1.0000 0.83710  0.11780  0.27230  Biso   1.000  H
  H50      1.0000 0.16290  0.11780  0.72770  Biso   1.000  H
  H51      1.0000 0.33710  0.61780  0.27230  Biso   1.000  H
  H52      1.0000 0.66290  0.61780  0.72770  Biso   1.000  H
  C85      1.0000 0.79580  0.08480  0.15180  Biso   1.000  C
  C86      1.0000 0.20420  0.08480  0.84820  Biso   1.000  C
  C87      1.0000 0.29580  0.58480  0.15180  Biso   1.000  C
  C88      1.0000 0.70420  0.58480  0.84820  Biso   1.000  C
  H53      1.0000 0.79980  0.03670  0.16380  Biso   1.000  H
  H54      1.0000 0.20020  0.03670  0.83620  Biso   1.000  H
  H55      1.0000 0.29980  0.53670  0.16380  Biso   1.000  H
  H56      1.0000 0.70020  0.53670  0.83620  Biso   1.000  H
  C89      1.0000 0.76930  0.10800  0.07010  Biso   1.000  C
  C90      1.0000 0.23070  0.10800  0.92990  Biso   1.000  C
  C91      1.0000 0.26930  0.60800  0.07010  Biso   1.000  C
  C92      1.0000 0.73070  0.60800  0.92990  Biso   1.000  C
  H57      1.0000 0.75650  0.07620  0.02440  Biso   1.000  H
  H58      1.0000 0.24350  0.07620  0.97560  Biso   1.000  H
  H59      1.0000 0.25650  0.57620  0.02440  Biso   1.000  H
  H60      1.0000 0.74350  0.57620  0.97560  Biso   1.000  H
  C93      1.0000 0.76130  0.17810  0.05520  Biso   1.000  C
  C94      1.0000 0.23870  0.17810  0.94480  Biso   1.000  C
  C95      1.0000 0.26130  0.67810  0.05520  Biso   1.000  C
  C96      1.0000 0.73870  0.67810  0.94480  Biso   1.000  C
  H61      1.0000 0.74290  0.19350  0.99840  Biso   1.000  H
  H62      1.0000 0.25710  0.19350  0.00160  Biso   1.000  H
  H63      1.0000 0.24290  0.69350  0.99840  Biso   1.000  H
  H64      1.0000 0.75710  0.69350  0.00160  Biso   1.000  H
  C97      1.0000 0.55060  0.14070  0.24360  Biso   1.000  C
  C98      1.0000 0.44940  0.14070  0.75640  Biso   1.000  C
  C99      1.0000 0.05060  0.64070  0.24360  Biso   1.000  C
  C100     1.0000 0.94940  0.64070  0.75640  Biso   1.000  C
  H65      1.0000 0.58040  0.15030  0.30030  Biso   1.000  H
  H66      1.0000 0.41960  0.15030  0.69970  Biso   1.000  H
  H67      1.0000 0.08040  0.65030  0.30030  Biso   1.000  H
  H68      1.0000 0.91960  0.65030  0.69970  Biso   1.000  H
  C101     1.0000 0.51220  0.07560  0.22430  Biso   1.000  C
  C102     1.0000 0.48780  0.07560  0.77570  Biso   1.000  C
  C103     1.0000 0.01220  0.57560  0.22430  Biso   1.000  C
  C104     1.0000 0.98780  0.57560  0.77570  Biso   1.000  C
  H69      1.0000 0.52050  0.03970  0.26550  Biso   1.000  H
  H70      1.0000 0.47950  0.03970  0.73450  Biso   1.000  H
  H71      1.0000 0.02050  0.53970  0.26550  Biso   1.000  H
  H72      1.0000 0.97950  0.53970  0.73450  Biso   1.000  H
  C105     1.0000 0.46220  0.06380  0.14540  Biso   1.000  C
  C106     1.0000 0.53780  0.06380  0.85460  Biso   1.000  C
  C107     1.0000 0.96220  0.56380  0.14540  Biso   1.000  C
  C108     1.0000 0.03780  0.56380  0.85460  Biso   1.000  C
  H73      1.0000 0.43040  0.02020  0.13170  Biso   1.000  H
  H74      1.0000 0.56960  0.02020  0.86830  Biso   1.000  H
  H75      1.0000 0.93040  0.52020  0.13170  Biso   1.000  H
  H76      1.0000 0.06960  0.52020  0.86830  Biso   1.000  H
  C109     1.0000 0.45750  0.11520  0.08480  Biso   1.000  C
  C110     1.0000 0.54250  0.11520  0.91520  Biso   1.000  C
  C111     1.0000 0.95750  0.61520  0.08480  Biso   1.000  C
  C112     1.0000 0.04250  0.61520  0.91520  Biso   1.000  C
  H77      1.0000 0.42110  0.10750  0.02960  Biso   1.000  H
  H78      1.0000 0.57890  0.10750  0.97040  Biso   1.000  H
  H79      1.0000 0.92110  0.60750  0.02960  Biso   1.000  H
  H80      1.0000 0.07890  0.60750  0.97040  Biso   1.000  H
  C113     1.0000 0.50560  0.17730  0.10480  Biso   1.000  C
  C114     1.0000 0.49440  0.17730  0.89520  Biso   1.000  C
  C115     1.0000 0.00560  0.67730  0.10480  Biso   1.000  C
  C116     1.0000 0.99440  0.67730  0.89520  Biso   1.000  C
  C117     1.0000 0.51260  0.23630  0.04550  Biso   1.000  C
  C118     1.0000 0.48740  0.23630  0.95450  Biso   1.000  C
  C119     1.0000 0.01260  0.73630  0.04550  Biso   1.000  C
  C120     1.0000 0.98740  0.73630  0.95450  Biso   1.000  C
  C121     1.0000 0.53010  0.35630  0.04040  Biso   1.000  C
  C122     1.0000 0.46990  0.35630  0.95960  Biso   1.000  C
  C123     1.0000 0.03010  0.85630  0.04040  Biso   1.000  C
  C124     1.0000 0.96990  0.85630  0.95960  Biso   1.000  C
  C125     1.0000 0.58020  0.41640  0.08700  Biso   1.000  C
  C126     1.0000 0.41980  0.41640  0.91300  Biso   1.000  C
  C127     1.0000 0.08020  0.91640  0.08700  Biso   1.000  C
  C128     1.0000 0.91980  0.91640  0.91300  Biso   1.000  C
  C129     1.0000 0.52420  0.47590  0.10080  Biso   1.000  C
  C130     1.0000 0.47580  0.47590  0.89920  Biso   1.000  C
  C131     1.0000 0.02420  0.97590  0.10080  Biso   1.000  C
  C132     1.0000 0.97580  0.97590  0.89920  Biso   1.000  C
  H81      1.0000 0.45300  0.48130  0.07570  Biso   1.000  H
  H82      1.0000 0.54700  0.48130  0.92430  Biso   1.000  H
  H83      1.0000 0.95300  0.98130  0.07570  Biso   1.000  H
  H84      1.0000 0.04700  0.98130  0.92430  Biso   1.000  H
  C133     1.0000 0.57390  0.52730  0.15180  Biso   1.000  C
  C134     1.0000 0.42610  0.52730  0.84820  Biso   1.000  C
  C135     1.0000 0.07390  0.02730  0.15180  Biso   1.000  C
  C136     1.0000 0.92610  0.02730  0.84820  Biso   1.000  C
  H85      1.0000 0.53720  0.56820  0.16350  Biso   1.000  H
  H86      1.0000 0.46280  0.56820  0.83650  Biso   1.000  H
  H87      1.0000 0.03720  0.06820  0.16350  Biso   1.000  H
  H88      1.0000 0.96280  0.06820  0.83650  Biso   1.000  H
  C137     1.0000 0.67780  0.51760  0.18510  Biso   1.000  C
  C138     1.0000 0.32220  0.51760  0.81490  Biso   1.000  C
  C139     1.0000 0.17780  0.01760  0.18510  Biso   1.000  C
  C140     1.0000 0.82220  0.01760  0.81490  Biso   1.000  C
  H89      1.0000 0.71450  0.55230  0.21940  Biso   1.000  H
  H90      1.0000 0.28550  0.55230  0.78060  Biso   1.000  H
  H91      1.0000 0.21450  0.05230  0.21940  Biso   1.000  H
  H92      1.0000 0.78550  0.05230  0.78060  Biso   1.000  H
  C141     1.0000 0.72870  0.45640  0.16810  Biso   1.000  C
  C142     1.0000 0.27130  0.45640  0.83190  Biso   1.000  C
  C143     1.0000 0.22870  0.95640  0.16810  Biso   1.000  C
  C144     1.0000 0.77130  0.95640  0.83190  Biso   1.000  C
  H93      1.0000 0.79950  0.44940  0.19310  Biso   1.000  H
  H94      1.0000 0.20050  0.44940  0.80690  Biso   1.000  H
  H95      1.0000 0.29950  0.94940  0.19310  Biso   1.000  H
  H96      1.0000 0.70050  0.94940  0.80690  Biso   1.000  H
