data_image0
_cell_length_a       13.3546
_cell_length_b       11.6352
_cell_length_c       23.1007
_cell_angle_alpha    90
_cell_angle_beta     92.171
_cell_angle_gamma    90

_symmetry_space_group_name_H-M    "P 1"
_symmetry_int_tables_number       1

loop_
  _symmetry_equiv_pos_as_xyz
  'x, y, z'

loop_
  _atom_site_label
  _atom_site_occupancy
  _atom_site_fract_x
  _atom_site_fract_y
  _atom_site_fract_z
  _atom_site_thermal_displace_type
  _atom_site_B_iso_or_equiv
  _atom_site_type_symbol
  Cu1      1.0000 0.67649  0.56844  0.29282  Biso   1.000  Cu
  Cu2      1.0000 0.82351  0.06844  0.20718  Biso   1.000  Cu
  Cu3      1.0000 0.32351  0.43156  0.70718  Biso   1.000  Cu
  Cu4      1.0000 0.17649  0.93156  0.79282  Biso   1.000  Cu
  P1       1.0000 0.50751  0.58153  0.27158  Biso   1.000  P
  P2       1.0000 0.99249  0.08153  0.22842  Biso   1.000  P
  P3       1.0000 0.49249  0.41847  0.72842  Biso   1.000  P
  P4       1.0000 0.00751  0.91847  0.77158  Biso   1.000  P
  C1       1.0000 0.46783  0.58615  0.19343  Biso   1.000  C
  C2       1.0000 0.03217  0.08615  0.30657  Biso   1.000  C
  C3       1.0000 0.53217  0.41385  0.80657  Biso   1.000  C
  C4       1.0000 0.96783  0.91385  0.69343  Biso   1.000  C
  H1       1.0000 0.39310  0.57960  0.19100  Biso   1.000  H
  H2       1.0000 0.10690  0.07960  0.30900  Biso   1.000  H
  H3       1.0000 0.60690  0.42040  0.80900  Biso   1.000  H
  H4       1.0000 0.89310  0.92040  0.69100  Biso   1.000  H
  C5       1.0000 0.49582  0.69888  0.16316  Biso   1.000  C
  C6       1.0000 0.00418  0.19888  0.33684  Biso   1.000  C
  C7       1.0000 0.50418  0.30112  0.83684  Biso   1.000  C
  C8       1.0000 0.99582  0.80112  0.66316  Biso   1.000  C
  H5       1.0000 0.46600  0.76460  0.18360  Biso   1.000  H
  H6       1.0000 0.03400  0.26460  0.31640  Biso   1.000  H
  H7       1.0000 0.53400  0.23540  0.81640  Biso   1.000  H
  H8       1.0000 0.96600  0.73540  0.68360  Biso   1.000  H
  H9       1.0000 0.56950  0.70830  0.16520  Biso   1.000  H
  H10      1.0000 0.93050  0.20830  0.33480  Biso   1.000  H
  H11      1.0000 0.43050  0.29170  0.83480  Biso   1.000  H
  H12      1.0000 0.06950  0.79170  0.66520  Biso   1.000  H
  C9       1.0000 0.45840  0.69945  0.09962  Biso   1.000  C
  C10      1.0000 0.04160  0.19945  0.40038  Biso   1.000  C
  C11      1.0000 0.54160  0.30055  0.90038  Biso   1.000  C
  C12      1.0000 0.95840  0.80055  0.59962  Biso   1.000  C
  H13      1.0000 0.38420  0.69750  0.09780  Biso   1.000  H
  H14      1.0000 0.11580  0.19750  0.40220  Biso   1.000  H
  H15      1.0000 0.61580  0.30250  0.90220  Biso   1.000  H
  H16      1.0000 0.88420  0.80250  0.59780  Biso   1.000  H
  H17      1.0000 0.48000  0.77140  0.08100  Biso   1.000  H
  H18      1.0000 0.02000  0.27140  0.41900  Biso   1.000  H
  H19      1.0000 0.52000  0.22860  0.91900  Biso   1.000  H
  H20      1.0000 0.98000  0.72860  0.58100  Biso   1.000  H
  C13      1.0000 0.49849  0.59690  0.06661  Biso   1.000  C
  C14      1.0000 0.00151  0.09690  0.43339  Biso   1.000  C
  C15      1.0000 0.50151  0.40310  0.93339  Biso   1.000  C
  C16      1.0000 0.99849  0.90310  0.56661  Biso   1.000  C
  H21      1.0000 0.46920  0.59680  0.02660  Biso   1.000  H
  H22      1.0000 0.03080  0.09680  0.47340  Biso   1.000  H
  H23      1.0000 0.53080  0.40320  0.97340  Biso   1.000  H
  H24      1.0000 0.96920  0.90320  0.52660  Biso   1.000  H
  H25      1.0000 0.57220  0.60350  0.06440  Biso   1.000  H
  H26      1.0000 0.92780  0.10350  0.43560  Biso   1.000  H
  H27      1.0000 0.42780  0.39650  0.93560  Biso   1.000  H
  H28      1.0000 0.07220  0.89650  0.56440  Biso   1.000  H
  C17      1.0000 0.47248  0.48472  0.09651  Biso   1.000  C
  C18      1.0000 0.02752  0.98472  0.40349  Biso   1.000  C
  C19      1.0000 0.52752  0.51528  0.90349  Biso   1.000  C
  C20      1.0000 0.97248  0.01528  0.59651  Biso   1.000  C
  H29      1.0000 0.50280  0.41970  0.07580  Biso   1.000  H
  H30      1.0000 0.99720  0.91970  0.42420  Biso   1.000  H
  H31      1.0000 0.49720  0.58030  0.92420  Biso   1.000  H
  H32      1.0000 0.00280  0.08030  0.57580  Biso   1.000  H
  H33      1.0000 0.39890  0.47410  0.09470  Biso   1.000  H
  H34      1.0000 0.10110  0.97410  0.40530  Biso   1.000  H
  H35      1.0000 0.60110  0.52590  0.90530  Biso   1.000  H
  H36      1.0000 0.89890  0.02590  0.59470  Biso   1.000  H
  C21      1.0000 0.51025  0.48372  0.15986  Biso   1.000  C
  C22      1.0000 0.98975  0.98372  0.34014  Biso   1.000  C
  C23      1.0000 0.48975  0.51628  0.84014  Biso   1.000  C
  C24      1.0000 0.01025  0.01628  0.65986  Biso   1.000  C
  H37      1.0000 0.58440  0.48740  0.16160  Biso   1.000  H
  H38      1.0000 0.91560  0.98740  0.33840  Biso   1.000  H
  H39      1.0000 0.41560  0.51260  0.83840  Biso   1.000  H
  H40      1.0000 0.08440  0.01260  0.66160  Biso   1.000  H
  H41      1.0000 0.48990  0.41100  0.17830  Biso   1.000  H
  H42      1.0000 0.01010  0.91100  0.32170  Biso   1.000  H
  H43      1.0000 0.51010  0.58900  0.82170  Biso   1.000  H
  H44      1.0000 0.98990  0.08900  0.67830  Biso   1.000  H
  C25      1.0000 0.43202  0.46099  0.30071  Biso   1.000  C
  C26      1.0000 0.06798  0.96099  0.19929  Biso   1.000  C
  C27      1.0000 0.56798  0.53901  0.69929  Biso   1.000  C
  C28      1.0000 0.93202  0.03901  0.80071  Biso   1.000  C
  H45      1.0000 0.42760  0.47780  0.34300  Biso   1.000  H
  H46      1.0000 0.07240  0.97780  0.15700  Biso   1.000  H
  H47      1.0000 0.57240  0.52220  0.65700  Biso   1.000  H
  H48      1.0000 0.92760  0.02220  0.84300  Biso   1.000  H
  C29      1.0000 0.48390  0.34274  0.29790  Biso   1.000  C
  C30      1.0000 0.01610  0.84274  0.20210  Biso   1.000  C
  C31      1.0000 0.51610  0.65726  0.70210  Biso   1.000  C
  C32      1.0000 0.98390  0.15726  0.79790  Biso   1.000  C
  H49      1.0000 0.48780  0.31860  0.25700  Biso   1.000  H
  H50      1.0000 0.01220  0.81860  0.24300  Biso   1.000  H
  H51      1.0000 0.51220  0.68140  0.74300  Biso   1.000  H
  H52      1.0000 0.98780  0.18140  0.75700  Biso   1.000  H
  H53      1.0000 0.55310  0.34890  0.31450  Biso   1.000  H
  H54      1.0000 0.94690  0.84890  0.18550  Biso   1.000  H
  H55      1.0000 0.44690  0.65110  0.68550  Biso   1.000  H
  H56      1.0000 0.05310  0.15110  0.81450  Biso   1.000  H
  C33      1.0000 0.42635  0.25258  0.33133  Biso   1.000  C
  C34      1.0000 0.07365  0.75258  0.16867  Biso   1.000  C
  C35      1.0000 0.57365  0.74742  0.66867  Biso   1.000  C
  C36      1.0000 0.92635  0.24742  0.83133  Biso   1.000  C
  H57      1.0000 0.45940  0.17690  0.32750  Biso   1.000  H
  H58      1.0000 0.04060  0.67690  0.17250  Biso   1.000  H
  H59      1.0000 0.54060  0.82310  0.67250  Biso   1.000  H
  H60      1.0000 0.95940  0.32310  0.82750  Biso   1.000  H
  H61      1.0000 0.42810  0.27320  0.37290  Biso   1.000  H
  H62      1.0000 0.07190  0.77320  0.12710  Biso   1.000  H
  H63      1.0000 0.57190  0.72680  0.62710  Biso   1.000  H
  H64      1.0000 0.92810  0.22680  0.87290  Biso   1.000  H
  C37      1.0000 0.31750  0.24356  0.30906  Biso   1.000  C
  C38      1.0000 0.18250  0.74356  0.19094  Biso   1.000  C
  C39      1.0000 0.68250  0.75644  0.69094  Biso   1.000  C
  C40      1.0000 0.81750  0.25644  0.80906  Biso   1.000  C
  H65      1.0000 0.31530  0.21560  0.26850  Biso   1.000  H
  H66      1.0000 0.18470  0.71560  0.23150  Biso   1.000  H
  H67      1.0000 0.68470  0.78440  0.73150  Biso   1.000  H
  H68      1.0000 0.81530  0.28440  0.76850  Biso   1.000  H
  H69      1.0000 0.28140  0.18750  0.33290  Biso   1.000  H
  H70      1.0000 0.21860  0.68750  0.16710  Biso   1.000  H
  H71      1.0000 0.71860  0.81250  0.66710  Biso   1.000  H
  H72      1.0000 0.78140  0.31250  0.83290  Biso   1.000  H
  C41      1.0000 0.26624  0.36057  0.31187  Biso   1.000  C
  C42      1.0000 0.23376  0.86057  0.18813  Biso   1.000  C
  C43      1.0000 0.73376  0.63943  0.68813  Biso   1.000  C
  C44      1.0000 0.76624  0.13943  0.81187  Biso   1.000  C
  H73      1.0000 0.26300  0.38490  0.35280  Biso   1.000  H
  H74      1.0000 0.23700  0.88490  0.14720  Biso   1.000  H
  H75      1.0000 0.73700  0.61510  0.64720  Biso   1.000  H
  H76      1.0000 0.76300  0.11510  0.85280  Biso   1.000  H
  H77      1.0000 0.19680  0.35410  0.29570  Biso   1.000  H
  H78      1.0000 0.30320  0.85410  0.20430  Biso   1.000  H
  H79      1.0000 0.80320  0.64590  0.70430  Biso   1.000  H
  H80      1.0000 0.69680  0.14590  0.79570  Biso   1.000  H
  C45      1.0000 0.32271  0.45174  0.27788  Biso   1.000  C
  C46      1.0000 0.17729  0.95174  0.22212  Biso   1.000  C
  C47      1.0000 0.67729  0.54826  0.72212  Biso   1.000  C
  C48      1.0000 0.82271  0.04826  0.77788  Biso   1.000  C
  H81      1.0000 0.28920  0.52710  0.28170  Biso   1.000  H
  H82      1.0000 0.21080  0.02710  0.21830  Biso   1.000  H
  H83      1.0000 0.71080  0.47290  0.71830  Biso   1.000  H
  H84      1.0000 0.78920  0.97290  0.78170  Biso   1.000  H
  H85      1.0000 0.32120  0.43090  0.23630  Biso   1.000  H
  H86      1.0000 0.17880  0.93090  0.26370  Biso   1.000  H
  H87      1.0000 0.67880  0.56910  0.76370  Biso   1.000  H
  H88      1.0000 0.82120  0.06910  0.73630  Biso   1.000  H
  C49      1.0000 0.44155  0.71200  0.29840  Biso   1.000  C
  C50      1.0000 0.05845  0.21200  0.20160  Biso   1.000  C
  C51      1.0000 0.55845  0.28800  0.70160  Biso   1.000  C
  C52      1.0000 0.94155  0.78800  0.79840  Biso   1.000  C
  H89      1.0000 0.38560  0.72990  0.26980  Biso   1.000  H
  H90      1.0000 0.11440  0.22990  0.23020  Biso   1.000  H
  H91      1.0000 0.61440  0.27010  0.73020  Biso   1.000  H
  H92      1.0000 0.88560  0.77010  0.76980  Biso   1.000  H
  C53      1.0000 0.39578  0.69965  0.35820  Biso   1.000  C
  C54      1.0000 0.10422  0.19965  0.14180  Biso   1.000  C
  C55      1.0000 0.60422  0.30035  0.64180  Biso   1.000  C
  C56      1.0000 0.89578  0.80035  0.85820  Biso   1.000  C
  H93      1.0000 0.34820  0.63430  0.35750  Biso   1.000  H
  H94      1.0000 0.15180  0.13430  0.14250  Biso   1.000  H
  H95      1.0000 0.65180  0.36570  0.64250  Biso   1.000  H
  H96      1.0000 0.84820  0.86570  0.85750  Biso   1.000  H
  H97      1.0000 0.44960  0.68300  0.38770  Biso   1.000  H
  H98      1.0000 0.05040  0.18300  0.11230  Biso   1.000  H
  H99      1.0000 0.55040  0.31700  0.61230  Biso   1.000  H
  H100     1.0000 0.94960  0.81700  0.88770  Biso   1.000  H
  C57      1.0000 0.34077  0.80988  0.37483  Biso   1.000  C
  C58      1.0000 0.15923  0.30988  0.12517  Biso   1.000  C
  C59      1.0000 0.65923  0.19012  0.62517  Biso   1.000  C
  C60      1.0000 0.84077  0.69012  0.87483  Biso   1.000  C
  H101     1.0000 0.28420  0.82360  0.34670  Biso   1.000  H
  H102     1.0000 0.21580  0.32360  0.15330  Biso   1.000  H
  H103     1.0000 0.71580  0.17640  0.65330  Biso   1.000  H
  H104     1.0000 0.78420  0.67640  0.84670  Biso   1.000  H
  H105     1.0000 0.31290  0.80020  0.41360  Biso   1.000  H
  H106     1.0000 0.18710  0.30020  0.08640  Biso   1.000  H
  H107     1.0000 0.68710  0.19980  0.58640  Biso   1.000  H
  H108     1.0000 0.81290  0.69980  0.91360  Biso   1.000  H
  C61      1.0000 0.41065  0.91362  0.37556  Biso   1.000  C
  C62      1.0000 0.08935  0.41362  0.12444  Biso   1.000  C
  C63      1.0000 0.58935  0.08638  0.62444  Biso   1.000  C
  C64      1.0000 0.91065  0.58638  0.87556  Biso   1.000  C
  H109     1.0000 0.46230  0.90440  0.40710  Biso   1.000  H
  H110     1.0000 0.03770  0.40440  0.09290  Biso   1.000  H
  H111     1.0000 0.53770  0.09560  0.59290  Biso   1.000  H
  H112     1.0000 0.96230  0.59560  0.90710  Biso   1.000  H
  H113     1.0000 0.37180  0.98400  0.38350  Biso   1.000  H
  H114     1.0000 0.12820  0.48400  0.11650  Biso   1.000  H
  H115     1.0000 0.62820  0.01600  0.61650  Biso   1.000  H
  H116     1.0000 0.87180  0.51600  0.88350  Biso   1.000  H
  C65      1.0000 0.46162  0.92675  0.31774  Biso   1.000  C
  C66      1.0000 0.03838  0.42675  0.18226  Biso   1.000  C
  C67      1.0000 0.53838  0.07325  0.68226  Biso   1.000  C
  C68      1.0000 0.96162  0.57325  0.81774  Biso   1.000  C
  H117     1.0000 0.41090  0.94870  0.28740  Biso   1.000  H
  H118     1.0000 0.08910  0.44870  0.21260  Biso   1.000  H
  H119     1.0000 0.58910  0.05130  0.71260  Biso   1.000  H
  H120     1.0000 0.91090  0.55130  0.78740  Biso   1.000  H
  H121     1.0000 0.51190  0.98920  0.32100  Biso   1.000  H
  H122     1.0000 0.98810  0.48920  0.17900  Biso   1.000  H
  H123     1.0000 0.48810  0.01080  0.67900  Biso   1.000  H
  H124     1.0000 0.01190  0.51080  0.82100  Biso   1.000  H
  C69      1.0000 0.51327  0.81568  0.29985  Biso   1.000  C
  C70      1.0000 0.98673  0.31568  0.20015  Biso   1.000  C
  C71      1.0000 0.48673  0.18432  0.70015  Biso   1.000  C
  C72      1.0000 0.01327  0.68432  0.79985  Biso   1.000  C
  H125     1.0000 0.57010  0.79970  0.32740  Biso   1.000  H
  H126     1.0000 0.92990  0.29970  0.17260  Biso   1.000  H
  H127     1.0000 0.42990  0.20030  0.67260  Biso   1.000  H
  H128     1.0000 0.07010  0.70030  0.82740  Biso   1.000  H
  H129     1.0000 0.54070  0.82610  0.26100  Biso   1.000  H
  H130     1.0000 0.95930  0.32610  0.23900  Biso   1.000  H
  H131     1.0000 0.45930  0.17390  0.73900  Biso   1.000  H
  H132     1.0000 0.04070  0.67390  0.76100  Biso   1.000  H
  P5       1.0000 0.75160  0.59522  0.38300  Biso   1.000  P
  P6       1.0000 0.74840  0.09522  0.11700  Biso   1.000  P
  P7       1.0000 0.24840  0.40478  0.61700  Biso   1.000  P
  P8       1.0000 0.25160  0.90478  0.88300  Biso   1.000  P
  C73      1.0000 0.88986  0.61150  0.38190  Biso   1.000  C
  C74      1.0000 0.61014  0.11150  0.11810  Biso   1.000  C
  C75      1.0000 0.11014  0.38850  0.61810  Biso   1.000  C
  C76      1.0000 0.38986  0.88850  0.88190  Biso   1.000  C
  H133     1.0000 0.90080  0.69030  0.36610  Biso   1.000  H
  H134     1.0000 0.59920  0.19030  0.13390  Biso   1.000  H
  H135     1.0000 0.09920  0.30970  0.63390  Biso   1.000  H
  H136     1.0000 0.40080  0.80970  0.86610  Biso   1.000  H
  C77      1.0000 0.94644  0.61062  0.44090  Biso   1.000  C
  C78      1.0000 0.55356  0.11062  0.05910  Biso   1.000  C
  C79      1.0000 0.05356  0.38938  0.55910  Biso   1.000  C
  C80      1.0000 0.44644  0.88938  0.94090  Biso   1.000  C
  H137     1.0000 0.91620  0.66810  0.46660  Biso   1.000  H
  H138     1.0000 0.58380  0.16810  0.03340  Biso   1.000  H
  H139     1.0000 0.08380  0.33190  0.53340  Biso   1.000  H
  H140     1.0000 0.41620  0.83190  0.96660  Biso   1.000  H
  H141     1.0000 0.93940  0.53410  0.45900  Biso   1.000  H
  H142     1.0000 0.56060  0.03410  0.04100  Biso   1.000  H
  H143     1.0000 0.06060  0.46590  0.54100  Biso   1.000  H
  H144     1.0000 0.43940  0.96590  0.95900  Biso   1.000  H
  C81      1.0000 0.05783  0.63778  0.43535  Biso   1.000  C
  C82      1.0000 0.44217  0.13778  0.06465  Biso   1.000  C
  C83      1.0000 0.94217  0.36222  0.56465  Biso   1.000  C
  C84      1.0000 0.55783  0.86222  0.93535  Biso   1.000  C
  H145     1.0000 0.06530  0.71860  0.42280  Biso   1.000  H
  H146     1.0000 0.43470  0.21860  0.07720  Biso   1.000  H
  H147     1.0000 0.93470  0.28140  0.57720  Biso   1.000  H
  H148     1.0000 0.56530  0.78140  0.92280  Biso   1.000  H
  H149     1.0000 0.09260  0.62940  0.47370  Biso   1.000  H
  H150     1.0000 0.40740  0.12940  0.02630  Biso   1.000  H
  H151     1.0000 0.90740  0.37060  0.52630  Biso   1.000  H
  H152     1.0000 0.59260  0.87060  0.97370  Biso   1.000  H
  C85      1.0000 0.10627  0.56008  0.39271  Biso   1.000  C
  C86      1.0000 0.39373  0.06008  0.10729  Biso   1.000  C
  C87      1.0000 0.89373  0.43992  0.60729  Biso   1.000  C
  C88      1.0000 0.60627  0.93992  0.89271  Biso   1.000  C
  H153     1.0000 0.10710  0.48040  0.40780  Biso   1.000  H
  H154     1.0000 0.39290  0.98040  0.09220  Biso   1.000  H
  H155     1.0000 0.89290  0.51960  0.59220  Biso   1.000  H
  H156     1.0000 0.60710  0.01960  0.90780  Biso   1.000  H
  H157     1.0000 0.17650  0.58450  0.38800  Biso   1.000  H
  H158     1.0000 0.32350  0.08450  0.11200  Biso   1.000  H
  H159     1.0000 0.82350  0.41550  0.61200  Biso   1.000  H
  H160     1.0000 0.67650  0.91550  0.88800  Biso   1.000  H
  C89      1.0000 0.04999  0.56289  0.33380  Biso   1.000  C
  C90      1.0000 0.45001  0.06289  0.16620  Biso   1.000  C
  C91      1.0000 0.95001  0.43711  0.66620  Biso   1.000  C
  C92      1.0000 0.54999  0.93711  0.83380  Biso   1.000  C
  H161     1.0000 0.08150  0.50810  0.30720  Biso   1.000  H
  H162     1.0000 0.41850  0.00810  0.19280  Biso   1.000  H
  H163     1.0000 0.91850  0.49190  0.69280  Biso   1.000  H
  H164     1.0000 0.58150  0.99190  0.80720  Biso   1.000  H
  H165     1.0000 0.05480  0.64080  0.31690  Biso   1.000  H
  H166     1.0000 0.44520  0.14080  0.18310  Biso   1.000  H
  H167     1.0000 0.94520  0.35920  0.68310  Biso   1.000  H
  H168     1.0000 0.55480  0.85920  0.81690  Biso   1.000  H
  C93      1.0000 0.93899  0.53104  0.33968  Biso   1.000  C
  C94      1.0000 0.56101  0.03104  0.16032  Biso   1.000  C
  C95      1.0000 0.06101  0.46896  0.66032  Biso   1.000  C
  C96      1.0000 0.43899  0.96896  0.83968  Biso   1.000  C
  H169     1.0000 0.90360  0.53620  0.30130  Biso   1.000  H
  H170     1.0000 0.59640  0.03620  0.19870  Biso   1.000  H
  H171     1.0000 0.09640  0.46380  0.69870  Biso   1.000  H
  H172     1.0000 0.40360  0.96380  0.80130  Biso   1.000  H
  H173     1.0000 0.93380  0.45090  0.35360  Biso   1.000  H
  H174     1.0000 0.56620  0.95090  0.14640  Biso   1.000  H
  H175     1.0000 0.06620  0.54910  0.64640  Biso   1.000  H
  H176     1.0000 0.43380  0.04910  0.85360  Biso   1.000  H
  C97      1.0000 0.70856  0.72657  0.42190  Biso   1.000  C
  C98      1.0000 0.79144  0.22657  0.07810  Biso   1.000  C
  C99      1.0000 0.29144  0.27343  0.57810  Biso   1.000  C
  C100     1.0000 0.20856  0.77343  0.92190  Biso   1.000  C
  H177     1.0000 0.63500  0.73190  0.41250  Biso   1.000  H
  H178     1.0000 0.86500  0.23190  0.08750  Biso   1.000  H
  H179     1.0000 0.36500  0.26810  0.58750  Biso   1.000  H
  H180     1.0000 0.13500  0.76810  0.91250  Biso   1.000  H
  C101     1.0000 0.71851  0.73061  0.48863  Biso   1.000  C
  C102     1.0000 0.78149  0.23061  0.01137  Biso   1.000  C
  C103     1.0000 0.28149  0.26939  0.51137  Biso   1.000  C
  C104     1.0000 0.21851  0.76939  0.98863  Biso   1.000  C
  H181     1.0000 0.68520  0.66260  0.50500  Biso   1.000  H
  H182     1.0000 0.81480  0.16260  0.99500  Biso   1.000  H
  H183     1.0000 0.31480  0.33740  0.49500  Biso   1.000  H
  H184     1.0000 0.18520  0.83740  0.00500  Biso   1.000  H
  H185     1.0000 0.79030  0.72810  0.50100  Biso   1.000  H
  H186     1.0000 0.70970  0.22810  0.99900  Biso   1.000  H
  H187     1.0000 0.20970  0.27190  0.49900  Biso   1.000  H
  H188     1.0000 0.29030  0.77190  0.00100  Biso   1.000  H
  C105     1.0000 0.67078  0.84042  0.51183  Biso   1.000  C
  C106     1.0000 0.82922  0.34042  0.98817  Biso   1.000  C
  C107     1.0000 0.32922  0.15958  0.48817  Biso   1.000  C
  C108     1.0000 0.17078  0.65958  0.01183  Biso   1.000  C
  H189     1.0000 0.59780  0.83930  0.50250  Biso   1.000  H
  H190     1.0000 0.90220  0.33930  0.99750  Biso   1.000  H
  H191     1.0000 0.40220  0.16070  0.49750  Biso   1.000  H
  H192     1.0000 0.09780  0.66070  0.00250  Biso   1.000  H
  H193     1.0000 0.68050  0.84280  0.55450  Biso   1.000  H
  H194     1.0000 0.81950  0.34280  0.94550  Biso   1.000  H
  H195     1.0000 0.31950  0.15720  0.44550  Biso   1.000  H
  H196     1.0000 0.18050  0.65720  0.05450  Biso   1.000  H
  C109     1.0000 0.71690  0.94810  0.48562  Biso   1.000  C
  C110     1.0000 0.78310  0.44810  0.01438  Biso   1.000  C
  C111     1.0000 0.28310  0.05190  0.51438  Biso   1.000  C
  C112     1.0000 0.21690  0.55190  0.98562  Biso   1.000  C
  H197     1.0000 0.68260  0.01720  0.50010  Biso   1.000  H
  H198     1.0000 0.81740  0.51720  0.99990  Biso   1.000  H
  H199     1.0000 0.31740  0.98280  0.49990  Biso   1.000  H
  H200     1.0000 0.18260  0.48280  0.00010  Biso   1.000  H
  H201     1.0000 0.78860  0.95310  0.49800  Biso   1.000  H
  H202     1.0000 0.71140  0.45310  0.00200  Biso   1.000  H
  H203     1.0000 0.21140  0.04690  0.50200  Biso   1.000  H
  H204     1.0000 0.28860  0.54690  0.99800  Biso   1.000  H
  C113     1.0000 0.70727  0.94511  0.41954  Biso   1.000  C
  C114     1.0000 0.79273  0.44511  0.08046  Biso   1.000  C
  C115     1.0000 0.29273  0.05489  0.58046  Biso   1.000  C
  C116     1.0000 0.20727  0.55489  0.91954  Biso   1.000  C
  H205     1.0000 0.74110  0.01310  0.40350  Biso   1.000  H
  H206     1.0000 0.75890  0.51310  0.09650  Biso   1.000  H
  H207     1.0000 0.25890  0.98690  0.59650  Biso   1.000  H
  H208     1.0000 0.24110  0.48690  0.90350  Biso   1.000  H
  H209     1.0000 0.63560  0.94850  0.40710  Biso   1.000  H
  H210     1.0000 0.86440  0.44850  0.09290  Biso   1.000  H
  H211     1.0000 0.36440  0.05150  0.59290  Biso   1.000  H
  H212     1.0000 0.13560  0.55150  0.90710  Biso   1.000  H
  C117     1.0000 0.75410  0.83560  0.39594  Biso   1.000  C
  C118     1.0000 0.74590  0.33560  0.10406  Biso   1.000  C
  C119     1.0000 0.24590  0.16440  0.60406  Biso   1.000  C
  C120     1.0000 0.25410  0.66440  0.89594  Biso   1.000  C
  H213     1.0000 0.82720  0.83660  0.40490  Biso   1.000  H
  H214     1.0000 0.67280  0.33660  0.09510  Biso   1.000  H
  H215     1.0000 0.17280  0.16340  0.59510  Biso   1.000  H
  H216     1.0000 0.32720  0.66340  0.90490  Biso   1.000  H
  H217     1.0000 0.74380  0.83380  0.35330  Biso   1.000  H
  H218     1.0000 0.75620  0.33380  0.14670  Biso   1.000  H
  H219     1.0000 0.25620  0.16620  0.64670  Biso   1.000  H
  H220     1.0000 0.24380  0.66620  0.85330  Biso   1.000  H
  C121     1.0000 0.72429  0.47859  0.43485  Biso   1.000  C
  C122     1.0000 0.77571  0.97859  0.06515  Biso   1.000  C
  C123     1.0000 0.27571  0.52141  0.56515  Biso   1.000  C
  C124     1.0000 0.22429  0.02141  0.93485  Biso   1.000  C
  H221     1.0000 0.75050  0.50160  0.47430  Biso   1.000  H
  H222     1.0000 0.74950  0.00160  0.02570  Biso   1.000  H
  H223     1.0000 0.24950  0.49840  0.52570  Biso   1.000  H
  H224     1.0000 0.25050  0.99840  0.97430  Biso   1.000  H
  C125     1.0000 0.60913  0.46741  0.43600  Biso   1.000  C
  C126     1.0000 0.89087  0.96741  0.06400  Biso   1.000  C
  C127     1.0000 0.39087  0.53259  0.56400  Biso   1.000  C
  C128     1.0000 0.10913  0.03259  0.93600  Biso   1.000  C
  H225     1.0000 0.58080  0.54060  0.44980  Biso   1.000  H
  H226     1.0000 0.91920  0.04060  0.05020  Biso   1.000  H
  H227     1.0000 0.41920  0.45940  0.55020  Biso   1.000  H
  H228     1.0000 0.08080  0.95940  0.94980  Biso   1.000  H
  H229     1.0000 0.58210  0.45400  0.39610  Biso   1.000  H
  H230     1.0000 0.91790  0.95400  0.10390  Biso   1.000  H
  H231     1.0000 0.41790  0.54600  0.60390  Biso   1.000  H
  H232     1.0000 0.08210  0.04600  0.89610  Biso   1.000  H
  C129     1.0000 0.57551  0.37003  0.47479  Biso   1.000  C
  C130     1.0000 0.92449  0.87003  0.02521  Biso   1.000  C
  C131     1.0000 0.42449  0.62997  0.52521  Biso   1.000  C
  C132     1.0000 0.07551  0.12997  0.97479  Biso   1.000  C
  H233     1.0000 0.50160  0.36350  0.47180  Biso   1.000  H
  H234     1.0000 0.99840  0.86350  0.02820  Biso   1.000  H
  H235     1.0000 0.49840  0.63650  0.52820  Biso   1.000  H
  H236     1.0000 0.00160  0.13650  0.97180  Biso   1.000  H
  H237     1.0000 0.59510  0.38790  0.51560  Biso   1.000  H
  H238     1.0000 0.90490  0.88790  0.98440  Biso   1.000  H
  H239     1.0000 0.40490  0.61210  0.48440  Biso   1.000  H
  H240     1.0000 0.09510  0.11210  0.01560  Biso   1.000  H
  C133     1.0000 0.62209  0.25592  0.45788  Biso   1.000  C
  C134     1.0000 0.87791  0.75592  0.04212  Biso   1.000  C
  C135     1.0000 0.37791  0.74408  0.54212  Biso   1.000  C
  C136     1.0000 0.12209  0.24408  0.95788  Biso   1.000  C
  H241     1.0000 0.59710  0.23380  0.41860  Biso   1.000  H
  H242     1.0000 0.90290  0.73380  0.08140  Biso   1.000  H
  H243     1.0000 0.40290  0.76620  0.58140  Biso   1.000  H
  H244     1.0000 0.09710  0.26620  0.91860  Biso   1.000  H
  H245     1.0000 0.60230  0.19530  0.48520  Biso   1.000  H
  H246     1.0000 0.89770  0.69530  0.01480  Biso   1.000  H
  H247     1.0000 0.39770  0.80470  0.51480  Biso   1.000  H
  H248     1.0000 0.10230  0.30470  0.98520  Biso   1.000  H
  C137     1.0000 0.73614  0.26616  0.45895  Biso   1.000  C
  C138     1.0000 0.76386  0.76616  0.04105  Biso   1.000  C
  C139     1.0000 0.26386  0.73384  0.54105  Biso   1.000  C
  C140     1.0000 0.23614  0.23384  0.95895  Biso   1.000  C
  H249     1.0000 0.76530  0.19230  0.44660  Biso   1.000  H
  H250     1.0000 0.73470  0.69230  0.05340  Biso   1.000  H
  H251     1.0000 0.23470  0.80770  0.55340  Biso   1.000  H
  H252     1.0000 0.26530  0.30770  0.94660  Biso   1.000  H
  H253     1.0000 0.76110  0.28190  0.49910  Biso   1.000  H
  H254     1.0000 0.73890  0.78190  0.00090  Biso   1.000  H
  H255     1.0000 0.23890  0.71810  0.50090  Biso   1.000  H
  H256     1.0000 0.26110  0.21810  0.99910  Biso   1.000  H
  C141     1.0000 0.77066  0.36224  0.41906  Biso   1.000  C
  C142     1.0000 0.72934  0.86224  0.08094  Biso   1.000  C
  C143     1.0000 0.22934  0.63776  0.58094  Biso   1.000  C
  C144     1.0000 0.27066  0.13776  0.91906  Biso   1.000  C
  H257     1.0000 0.75120  0.34290  0.37840  Biso   1.000  H
  H258     1.0000 0.74880  0.84290  0.12160  Biso   1.000  H
  H259     1.0000 0.24880  0.65710  0.62160  Biso   1.000  H
  H260     1.0000 0.25120  0.15710  0.87840  Biso   1.000  H
  H261     1.0000 0.84460  0.36820  0.42210  Biso   1.000  H
  H262     1.0000 0.65540  0.86820  0.07790  Biso   1.000  H
  H263     1.0000 0.15540  0.63180  0.57790  Biso   1.000  H
  H264     1.0000 0.34460  0.13180  0.92210  Biso   1.000  H
  S1       1.0000 0.77180  0.67120  0.22184  Biso   1.000  S
  S2       1.0000 0.72820  0.17120  0.27816  Biso   1.000  S
  S3       1.0000 0.22820  0.32880  0.77816  Biso   1.000  S
  S4       1.0000 0.27180  0.82880  0.72184  Biso   1.000  S
  C145     1.0000 0.77115  0.81183  0.23239  Biso   1.000  C
  C146     1.0000 0.72885  0.31183  0.26761  Biso   1.000  C
  C147     1.0000 0.22885  0.18817  0.76761  Biso   1.000  C
  C148     1.0000 0.27115  0.68817  0.73239  Biso   1.000  C
  N1       1.0000 0.77528  0.91106  0.23648  Biso   1.000  N
  N2       1.0000 0.72472  0.41106  0.26352  Biso   1.000  N
  N3       1.0000 0.22472  0.08894  0.76352  Biso   1.000  N
  N4       1.0000 0.27528  0.58894  0.73648  Biso   1.000  N
