data_image0
_cell_length_a       15.4107
_cell_length_b       8.0701
_cell_length_c       28.593
_cell_angle_alpha    90
_cell_angle_beta     102.046
_cell_angle_gamma    90

_symmetry_space_group_name_H-M    "P 1"
_symmetry_int_tables_number       1

loop_
  _symmetry_equiv_pos_as_xyz
  'x, y, z'

loop_
  _atom_site_label
  _atom_site_occupancy
  _atom_site_fract_x
  _atom_site_fract_y
  _atom_site_fract_z
  _atom_site_thermal_displace_type
  _atom_site_B_iso_or_equiv
  _atom_site_type_symbol
  Tb1      1.0000 0.54823  0.75501  0.01202  Biso   1.000  Tb
  Tb2      1.0000 0.95177  0.25501  0.48798  Biso   1.000  Tb
  Tb3      1.0000 0.45177  0.24499  0.98798  Biso   1.000  Tb
  Tb4      1.0000 0.04823  0.74499  0.51202  Biso   1.000  Tb
  Cu1      1.0000 0.85613  0.80581  0.78730  Biso   1.000  Cu
  Cu2      1.0000 0.64387  0.30581  0.71270  Biso   1.000  Cu
  Cu3      1.0000 0.14387  0.19419  0.21270  Biso   1.000  Cu
  Cu4      1.0000 0.35613  0.69419  0.28730  Biso   1.000  Cu
  Cu5      1.0000 0.85584  0.11970  0.82547  Biso   1.000  Cu
  Cu6      1.0000 0.64416  0.61970  0.67453  Biso   1.000  Cu
  Cu7      1.0000 0.14416  0.88030  0.17453  Biso   1.000  Cu
  Cu8      1.0000 0.35584  0.38030  0.32547  Biso   1.000  Cu
  Cu9      1.0000 0.00282  0.93725  0.83304  Biso   1.000  Cu
  Cu10     1.0000 0.49718  0.43725  0.66696  Biso   1.000  Cu
  Cu11     1.0000 0.99718  0.06275  0.16696  Biso   1.000  Cu
  Cu12     1.0000 0.50282  0.56275  0.33304  Biso   1.000  Cu
  Cu13     1.0000 0.92825  0.08034  0.75172  Biso   1.000  Cu
  Cu14     1.0000 0.57175  0.58034  0.74828  Biso   1.000  Cu
  Cu15     1.0000 0.07175  0.91966  0.24828  Biso   1.000  Cu
  Cu16     1.0000 0.42825  0.41966  0.25172  Biso   1.000  Cu
  I1       1.0000 0.87860  0.83174  0.88123  Biso   1.000  I
  I2       1.0000 0.62140  0.33174  0.61877  Biso   1.000  I
  I3       1.0000 0.12140  0.16826  0.11877  Biso   1.000  I
  I4       1.0000 0.37860  0.66826  0.38123  Biso   1.000  I
  I5       1.0000 0.75006  0.04858  0.74016  Biso   1.000  I
  I6       1.0000 0.74994  0.54858  0.75984  Biso   1.000  I
  I7       1.0000 0.24994  0.95142  0.25984  Biso   1.000  I
  I8       1.0000 0.25006  0.45142  0.24016  Biso   1.000  I
  I9       1.0000 0.99472  0.77690  0.74856  Biso   1.000  I
  I10      1.0000 0.50528  0.27690  0.75144  Biso   1.000  I
  I11      1.0000 0.00528  0.22310  0.25144  Biso   1.000  I
  I12      1.0000 0.49472  0.72310  0.24856  Biso   1.000  I
  I13      1.0000 0.01143  0.26176  0.83150  Biso   1.000  I
  I14      1.0000 0.48857  0.76176  0.66850  Biso   1.000  I
  I15      1.0000 0.98857  0.73824  0.16850  Biso   1.000  I
  I16      1.0000 0.51143  0.23824  0.33150  Biso   1.000  I
  O1       1.0000 0.36304  0.45110  0.94405  Biso   1.000  O
  O2       1.0000 0.13696  0.95110  0.55595  Biso   1.000  O
  O3       1.0000 0.63696  0.54890  0.05595  Biso   1.000  O
  O4       1.0000 0.86304  0.04890  0.44405  Biso   1.000  O
  O5       1.0000 0.53485  0.99530  0.95923  Biso   1.000  O
  O6       1.0000 0.96515  0.49530  0.54077  Biso   1.000  O
  O7       1.0000 0.46515  0.00470  0.04077  Biso   1.000  O
  O8       1.0000 0.03485  0.50470  0.45923  Biso   1.000  O
  O9       1.0000 0.62447  0.62550  0.95921  Biso   1.000  O
  O10      1.0000 0.87553  0.12550  0.54079  Biso   1.000  O
  O11      1.0000 0.37553  0.37450  0.04079  Biso   1.000  O
  O12      1.0000 0.12447  0.87450  0.45921  Biso   1.000  O
  O13      1.0000 0.43048  0.12710  0.90805  Biso   1.000  O
  O14      1.0000 0.06952  0.62710  0.59195  Biso   1.000  O
  O15      1.0000 0.56952  0.87290  0.09195  Biso   1.000  O
  O16      1.0000 0.93048  0.37290  0.40805  Biso   1.000  O
  O17      1.0000 0.42762  0.70220  0.95058  Biso   1.000  O
  O18      1.0000 0.07238  0.20220  0.54942  Biso   1.000  O
  O19      1.0000 0.57238  0.29780  0.04942  Biso   1.000  O
  O20      1.0000 0.92762  0.79780  0.45058  Biso   1.000  O
  O21      1.0000 0.55003  0.38760  0.95396  Biso   1.000  O
  O22      1.0000 0.94997  0.88760  0.54604  Biso   1.000  O
  O23      1.0000 0.44997  0.61240  0.04604  Biso   1.000  O
  O24      1.0000 0.05003  0.11240  0.45396  Biso   1.000  O
  N1       1.0000 0.77890  0.25330  0.86108  Biso   1.000  N
  N2       1.0000 0.72110  0.75330  0.63892  Biso   1.000  N
  N3       1.0000 0.22110  0.74670  0.13892  Biso   1.000  N
  N4       1.0000 0.27890  0.24670  0.36108  Biso   1.000  N
  N5       1.0000 0.11690  0.83350  0.86830  Biso   1.000  N
  N6       1.0000 0.38310  0.33350  0.63170  Biso   1.000  N
  N7       1.0000 0.88310  0.16650  0.13170  Biso   1.000  N
  N8       1.0000 0.61690  0.66650  0.36830  Biso   1.000  N
  O25      1.0000 0.68798  0.87990  0.02275  Biso   1.000  O
  O26      1.0000 0.81202  0.37990  0.47725  Biso   1.000  O
  O27      1.0000 0.31202  0.12010  0.97725  Biso   1.000  O
  O28      1.0000 0.18798  0.62010  0.52275  Biso   1.000  O
  N9       1.0000 0.54720  0.72930  0.80072  Biso   1.000  N
  N10      1.0000 0.95280  0.22930  0.69928  Biso   1.000  N
  N11      1.0000 0.45280  0.27070  0.19928  Biso   1.000  N
  N12      1.0000 0.04720  0.77070  0.30072  Biso   1.000  N
  C1       1.0000 0.63670  0.28250  0.88110  Biso   1.000  C
  C2       1.0000 0.86330  0.78250  0.61890  Biso   1.000  C
  C3       1.0000 0.36330  0.71750  0.11890  Biso   1.000  C
  C4       1.0000 0.13670  0.21750  0.38110  Biso   1.000  C
  H1       1.0000 0.57780  0.24870  0.87650  Biso   1.000  H
  H2       1.0000 0.92220  0.74870  0.62350  Biso   1.000  H
  H3       1.0000 0.42220  0.75130  0.12350  Biso   1.000  H
  H4       1.0000 0.07780  0.25130  0.37650  Biso   1.000  H
  C5       1.0000 0.27690  0.68180  0.91125  Biso   1.000  C
  C6       1.0000 0.22310  0.18180  0.58875  Biso   1.000  C
  C7       1.0000 0.72310  0.31820  0.08875  Biso   1.000  C
  C8       1.0000 0.77690  0.81820  0.41125  Biso   1.000  C
  C9       1.0000 0.60970  0.47930  0.94453  Biso   1.000  C
  C10      1.0000 0.89030  0.97930  0.55547  Biso   1.000  C
  C11      1.0000 0.39030  0.52070  0.05547  Biso   1.000  C
  C12      1.0000 0.10970  0.02070  0.44453  Biso   1.000  C
  C13      1.0000 0.51110  0.91980  0.87585  Biso   1.000  C
  C14      1.0000 0.98890  0.41980  0.62415  Biso   1.000  C
  C15      1.0000 0.48890  0.08020  0.12415  Biso   1.000  C
  C16      1.0000 0.01110  0.58020  0.37585  Biso   1.000  C
  C17      1.0000 0.36290  0.60500  0.93716  Biso   1.000  C
  C18      1.0000 0.13710  0.10500  0.56284  Biso   1.000  C
  C19      1.0000 0.63710  0.39500  0.06284  Biso   1.000  C
  C20      1.0000 0.86290  0.89500  0.43716  Biso   1.000  C
  C21      1.0000 0.59450  0.85250  0.87821  Biso   1.000  C
  C22      1.0000 0.90550  0.35250  0.62179  Biso   1.000  C
  C23      1.0000 0.40550  0.14750  0.12179  Biso   1.000  C
  C24      1.0000 0.09450  0.64750  0.37821  Biso   1.000  C
  H5       1.0000 0.63940  0.86900  0.90510  Biso   1.000  H
  H6       1.0000 0.86060  0.36900  0.59490  Biso   1.000  H
  H7       1.0000 0.36060  0.13100  0.09490  Biso   1.000  H
  H8       1.0000 0.13940  0.63100  0.40510  Biso   1.000  H
  C25      1.0000 0.69330  0.21040  0.85556  Biso   1.000  C
  C26      1.0000 0.80670  0.71040  0.64444  Biso   1.000  C
  C27      1.0000 0.30670  0.78960  0.14444  Biso   1.000  C
  C28      1.0000 0.19330  0.28960  0.35556  Biso   1.000  C
  H9       1.0000 0.67110  0.12830  0.83350  Biso   1.000  H
  H10      1.0000 0.82890  0.62830  0.66650  Biso   1.000  H
  H11      1.0000 0.32890  0.87170  0.16650  Biso   1.000  H
  H12      1.0000 0.17110  0.37170  0.33350  Biso   1.000  H
  C29      1.0000 0.75580  0.45850  0.91782  Biso   1.000  C
  C30      1.0000 0.74420  0.95850  0.58218  Biso   1.000  C
  C31      1.0000 0.24420  0.54150  0.08218  Biso   1.000  C
  C32      1.0000 0.25580  0.04150  0.41782  Biso   1.000  C
  H13      1.0000 0.77840  0.54560  0.93810  Biso   1.000  H
  H14      1.0000 0.72160  0.04560  0.56190  Biso   1.000  H
  H15      1.0000 0.22160  0.45440  0.06190  Biso   1.000  H
  H16      1.0000 0.27840  0.95440  0.43810  Biso   1.000  H
  C33      1.0000 0.66890  0.40660  0.91390  Biso   1.000  C
  C34      1.0000 0.83110  0.90660  0.58610  Biso   1.000  C
  C35      1.0000 0.33110  0.59340  0.08610  Biso   1.000  C
  C36      1.0000 0.16890  0.09340  0.41390  Biso   1.000  C
  C37      1.0000 0.61040  0.75990  0.83984  Biso   1.000  C
  C38      1.0000 0.88960  0.25990  0.66016  Biso   1.000  C
  C39      1.0000 0.38960  0.24010  0.16016  Biso   1.000  C
  C40      1.0000 0.11040  0.74010  0.33984  Biso   1.000  C
  H17      1.0000 0.66700  0.71760  0.84130  Biso   1.000  H
  H18      1.0000 0.83300  0.21760  0.65870  Biso   1.000  H
  H19      1.0000 0.33300  0.28240  0.15870  Biso   1.000  H
  H20      1.0000 0.16700  0.78240  0.34130  Biso   1.000  H
  C41      1.0000 0.49000  0.01960  0.91641  Biso   1.000  C
  C42      1.0000 0.01000  0.51960  0.58359  Biso   1.000  C
  C43      1.0000 0.51000  0.98040  0.08359  Biso   1.000  C
  C44      1.0000 0.99000  0.48040  0.41641  Biso   1.000  C
  C45      1.0000 0.12050  0.67280  0.88100  Biso   1.000  C
  C46      1.0000 0.37950  0.17280  0.61900  Biso   1.000  C
  C47      1.0000 0.87950  0.32720  0.11900  Biso   1.000  C
  C48      1.0000 0.62050  0.82720  0.38100  Biso   1.000  C
  H21      1.0000 0.06810  0.61200  0.87530  Biso   1.000  H
  H22      1.0000 0.43190  0.11200  0.62470  Biso   1.000  H
  H23      1.0000 0.93190  0.38800  0.12470  Biso   1.000  H
  H24      1.0000 0.56810  0.88800  0.37530  Biso   1.000  H
  C49      1.0000 0.27370  0.84630  0.89732  Biso   1.000  C
  C50      1.0000 0.22630  0.34630  0.60268  Biso   1.000  C
  C51      1.0000 0.72630  0.15370  0.10268  Biso   1.000  C
  C52      1.0000 0.77370  0.65370  0.39732  Biso   1.000  C
  H25      1.0000 0.32530  0.90950  0.90240  Biso   1.000  H
  H26      1.0000 0.17470  0.40950  0.59760  Biso   1.000  H
  H27      1.0000 0.67470  0.09050  0.09760  Biso   1.000  H
  H28      1.0000 0.82530  0.59050  0.40240  Biso   1.000  H
  C53      1.0000 0.44650  0.89530  0.83462  Biso   1.000  C
  C54      1.0000 0.05350  0.39530  0.66538  Biso   1.000  C
  C55      1.0000 0.55350  0.10470  0.16538  Biso   1.000  C
  C56      1.0000 0.94650  0.60470  0.33462  Biso   1.000  C
  H29      1.0000 0.39070  0.94320  0.83130  Biso   1.000  H
  H30      1.0000 0.10930  0.44320  0.66870  Biso   1.000  H
  H31      1.0000 0.60930  0.05680  0.16870  Biso   1.000  H
  H32      1.0000 0.89070  0.55680  0.33130  Biso   1.000  H
  C57      1.0000 0.19350  0.91600  0.87589  Biso   1.000  C
  C58      1.0000 0.30650  0.41600  0.62411  Biso   1.000  C
  C59      1.0000 0.80650  0.08400  0.12411  Biso   1.000  C
  C60      1.0000 0.69350  0.58400  0.37589  Biso   1.000  C
  H33      1.0000 0.19280  0.02610  0.86620  Biso   1.000  H
  H34      1.0000 0.30720  0.52610  0.63380  Biso   1.000  H
  H35      1.0000 0.80720  0.97390  0.13380  Biso   1.000  H
  H36      1.0000 0.69280  0.47390  0.36620  Biso   1.000  H
  C61      1.0000 0.80870  0.37870  0.89108  Biso   1.000  C
  C62      1.0000 0.69130  0.87870  0.60892  Biso   1.000  C
  C63      1.0000 0.19130  0.62130  0.10892  Biso   1.000  C
  C64      1.0000 0.30870  0.12130  0.39108  Biso   1.000  C
  H37      1.0000 0.86720  0.41340  0.89400  Biso   1.000  H
  H38      1.0000 0.63280  0.91340  0.60600  Biso   1.000  H
  H39      1.0000 0.13280  0.58660  0.10600  Biso   1.000  H
  H40      1.0000 0.36720  0.08660  0.39400  Biso   1.000  H
  C65      1.0000 0.19830  0.59370  0.90205  Biso   1.000  C
  C66      1.0000 0.30170  0.09370  0.59795  Biso   1.000  C
  C67      1.0000 0.80170  0.40630  0.09795  Biso   1.000  C
  C68      1.0000 0.69830  0.90630  0.40205  Biso   1.000  C
  H41      1.0000 0.19780  0.48200  0.91000  Biso   1.000  H
  H42      1.0000 0.30220  0.98200  0.59000  Biso   1.000  H
  H43      1.0000 0.80220  0.51800  0.09000  Biso   1.000  H
  H44      1.0000 0.69780  0.01800  0.41000  Biso   1.000  H
  C69      1.0000 0.46720  0.79790  0.79848  Biso   1.000  C
  C70      1.0000 0.03280  0.29790  0.70152  Biso   1.000  C
  C71      1.0000 0.53280  0.20210  0.20152  Biso   1.000  C
  C72      1.0000 0.96720  0.70210  0.29848  Biso   1.000  C
  H45      1.0000 0.42330  0.77920  0.77130  Biso   1.000  H
  H46      1.0000 0.07670  0.27920  0.72870  Biso   1.000  H
  H47      1.0000 0.57670  0.22080  0.22870  Biso   1.000  H
  H48      1.0000 0.92330  0.72080  0.27130  Biso   1.000  H
  N13      1.0000 0.82370  0.95330  0.01314  Biso   1.000  N
  N14      1.0000 0.67630  0.45330  0.48686  Biso   1.000  N
  N15      1.0000 0.17630  0.04670  0.98686  Biso   1.000  N
  N16      1.0000 0.32370  0.54670  0.51314  Biso   1.000  N
  C73      1.0000 0.76230  0.83630  0.02570  Biso   1.000  C
  C74      1.0000 0.73770  0.33630  0.47430  Biso   1.000  C
  C75      1.0000 0.23770  0.16370  0.97430  Biso   1.000  C
  C76      1.0000 0.26230  0.66370  0.52570  Biso   1.000  C
  H49      1.0000 0.76120  0.74160  0.00520  Biso   1.000  H
  H50      1.0000 0.73880  0.24160  0.49480  Biso   1.000  H
  H51      1.0000 0.23880  0.25840  0.99480  Biso   1.000  H
  H52      1.0000 0.26120  0.75840  0.50520  Biso   1.000  H
  H53      1.0000 0.78500  0.79990  0.05790  Biso   1.000  H
  H54      1.0000 0.71500  0.29990  0.44210  Biso   1.000  H
  H55      1.0000 0.21500  0.20010  0.94210  Biso   1.000  H
  H56      1.0000 0.28500  0.70010  0.55790  Biso   1.000  H
  C77      1.0000 0.83800  0.10840  0.99420  Biso   1.000  C
  C78      1.0000 0.66200  0.60840  0.50580  Biso   1.000  C
  C79      1.0000 0.16200  0.89160  0.00580  Biso   1.000  C
  C80      1.0000 0.33800  0.39160  0.49420  Biso   1.000  C
  H57      1.0000 0.78270  0.16680  0.98570  Biso   1.000  H
  H58      1.0000 0.71730  0.66680  0.51430  Biso   1.000  H
  H59      1.0000 0.21730  0.83320  0.01430  Biso   1.000  H
  H60      1.0000 0.28270  0.33320  0.48570  Biso   1.000  H
  H61      1.0000 0.87870  0.17100  0.01770  Biso   1.000  H
  H62      1.0000 0.62130  0.67100  0.48230  Biso   1.000  H
  H63      1.0000 0.12130  0.82900  0.98230  Biso   1.000  H
  H64      1.0000 0.37870  0.32900  0.51770  Biso   1.000  H
  H65      1.0000 0.86260  0.09370  0.96630  Biso   1.000  H
  H66      1.0000 0.63740  0.59370  0.53370  Biso   1.000  H
  H67      1.0000 0.13740  0.90630  0.03370  Biso   1.000  H
  H68      1.0000 0.36260  0.40630  0.46630  Biso   1.000  H
  C81      1.0000 0.90020  0.85150  0.02750  Biso   1.000  C
  C82      1.0000 0.59980  0.35150  0.47250  Biso   1.000  C
  C83      1.0000 0.09980  0.14850  0.97250  Biso   1.000  C
  C84      1.0000 0.40020  0.64850  0.52750  Biso   1.000  C
  H69      1.0000 0.88330  0.74850  0.03990  Biso   1.000  H
  H70      1.0000 0.61670  0.24850  0.46010  Biso   1.000  H
  H71      1.0000 0.11670  0.25150  0.96010  Biso   1.000  H
  H72      1.0000 0.38330  0.75150  0.53990  Biso   1.000  H
  H73      1.0000 0.92640  0.83000  0.00040  Biso   1.000  H
  H74      1.0000 0.57360  0.33000  0.49960  Biso   1.000  H
  H75      1.0000 0.07360  0.17000  0.99960  Biso   1.000  H
  H76      1.0000 0.42640  0.67000  0.50040  Biso   1.000  H
  H77      1.0000 0.94250  0.90720  0.05180  Biso   1.000  H
  H78      1.0000 0.55750  0.40720  0.44820  Biso   1.000  H
  H79      1.0000 0.05750  0.09280  0.94820  Biso   1.000  H
  H80      1.0000 0.44250  0.59280  0.55180  Biso   1.000  H
  C85      1.0000 0.21890  0.95120  0.72870  Biso   1.000  C
  C86      1.0000 0.28110  0.45120  0.77130  Biso   1.000  C
  C87      1.0000 0.78110  0.04880  0.27130  Biso   1.000  C
  C88      1.0000 0.71890  0.54880  0.22870  Biso   1.000  C
  N17      1.0000 0.24470  0.01090  0.76570  Biso   1.000  N
  N18      1.0000 0.25530  0.51090  0.73430  Biso   1.000  N
  N19      1.0000 0.75530  0.98910  0.23430  Biso   1.000  N
  N20      1.0000 0.74470  0.48910  0.26570  Biso   1.000  N
  C89      1.0000 0.18380  0.87240  0.68210  Biso   1.000  C
  C90      1.0000 0.31620  0.37240  0.81790  Biso   1.000  C
  C91      1.0000 0.81620  0.12760  0.31790  Biso   1.000  C
  C92      1.0000 0.68380  0.62760  0.18210  Biso   1.000  C
  C93      1.0000 0.73050  0.98370  0.00840  Biso   1.000  C
  C94      1.0000 0.76950  0.48370  0.49160  Biso   1.000  C
  C95      1.0000 0.26950  0.01630  0.99160  Biso   1.000  C
  C96      1.0000 0.23050  0.51630  0.50840  Biso   1.000  C
  H81      1.0000 0.72370  0.08540  0.02460  Biso   1.000  H
  H82      1.0000 0.77630  0.58540  0.47540  Biso   1.000  H
  H83      1.0000 0.27630  0.91460  0.97540  Biso   1.000  H
  H84      1.0000 0.22370  0.41460  0.52460  Biso   1.000  H
  H85      1.0000 0.70550  0.00070  0.97500  Biso   1.000  H
  H86      1.0000 0.79450  0.50070  0.52500  Biso   1.000  H
  H87      1.0000 0.29450  0.99930  0.02500  Biso   1.000  H
  H88      1.0000 0.20550  0.49930  0.47500  Biso   1.000  H
