data_image0
_cell_length_a       15.3681
_cell_length_b       8.1281
_cell_length_c       28.608
_cell_angle_alpha    90
_cell_angle_beta     101.785
_cell_angle_gamma    90

_symmetry_space_group_name_H-M    "P 1"
_symmetry_int_tables_number       1

loop_
  _symmetry_equiv_pos_as_xyz
  'x, y, z'

loop_
  _atom_site_label
  _atom_site_occupancy
  _atom_site_fract_x
  _atom_site_fract_y
  _atom_site_fract_z
  _atom_site_thermal_displace_type
  _atom_site_B_iso_or_equiv
  _atom_site_type_symbol
  Tb1      1.0000 0.95055  0.74866  0.98755  Biso   1.000  Tb
  Tb2      1.0000 0.54945  0.24866  0.51245  Biso   1.000  Tb
  Tb3      1.0000 0.04945  0.25134  0.01245  Biso   1.000  Tb
  Tb4      1.0000 0.45055  0.75134  0.48755  Biso   1.000  Tb
  Cu1      1.0000 0.64303  0.80276  0.21383  Biso   1.000  Cu
  Cu2      1.0000 0.85697  0.30276  0.28617  Biso   1.000  Cu
  Cu3      1.0000 0.35697  0.19724  0.78617  Biso   1.000  Cu
  Cu4      1.0000 0.14303  0.69724  0.71383  Biso   1.000  Cu
  Cu5      1.0000 0.85489  0.61018  0.32598  Biso   1.000  Cu
  Cu6      1.0000 0.64511  0.11018  0.17402  Biso   1.000  Cu
  Cu7      1.0000 0.14511  0.38982  0.67402  Biso   1.000  Cu
  Cu8      1.0000 0.35489  0.88982  0.82598  Biso   1.000  Cu
  Cu9      1.0000 0.92340  0.58215  0.25071  Biso   1.000  Cu
  Cu10     1.0000 0.57660  0.08215  0.24929  Biso   1.000  Cu
  Cu11     1.0000 0.07660  0.41785  0.74929  Biso   1.000  Cu
  Cu12     1.0000 0.42340  0.91785  0.75071  Biso   1.000  Cu
  Cu13     1.0000 0.49503  0.93335  0.16912  Biso   1.000  Cu
  Cu14     1.0000 0.00497  0.43335  0.33088  Biso   1.000  Cu
  Cu15     1.0000 0.50497  0.06665  0.83088  Biso   1.000  Cu
  Cu16     1.0000 0.99503  0.56665  0.66912  Biso   1.000  Cu
  I1       1.0000 0.74617  0.54215  0.24115  Biso   1.000  I
  I2       1.0000 0.75383  0.04215  0.25885  Biso   1.000  I
  I3       1.0000 0.25383  0.45785  0.75885  Biso   1.000  I
  I4       1.0000 0.24617  0.95785  0.74115  Biso   1.000  I
  I5       1.0000 0.61753  0.82395  0.11999  Biso   1.000  I
  I6       1.0000 0.88247  0.32395  0.38001  Biso   1.000  I
  I7       1.0000 0.38247  0.17605  0.88001  Biso   1.000  I
  I8       1.0000 0.11753  0.67605  0.61999  Biso   1.000  I
  I9       1.0000 0.50573  0.78385  0.25471  Biso   1.000  I
  I10      1.0000 0.99427  0.28385  0.24529  Biso   1.000  I
  I11      1.0000 0.49427  0.21615  0.74529  Biso   1.000  I
  I12      1.0000 0.00573  0.71615  0.75471  Biso   1.000  I
  I13      1.0000 0.00949  0.75585  0.32989  Biso   1.000  I
  I14      1.0000 0.49051  0.25585  0.17011  Biso   1.000  I
  I15      1.0000 0.99051  0.24415  0.67011  Biso   1.000  I
  I16      1.0000 0.50949  0.74415  0.82989  Biso   1.000  I
  O1       1.0000 0.05410  0.60930  0.95668  Biso   1.000  O
  O2       1.0000 0.44590  0.10930  0.54332  Biso   1.000  O
  O3       1.0000 0.94590  0.39070  0.04332  Biso   1.000  O
  O4       1.0000 0.55410  0.89070  0.45668  Biso   1.000  O
  O5       1.0000 0.13320  0.45410  0.05791  Biso   1.000  O
  O6       1.0000 0.36680  0.95410  0.44209  Biso   1.000  O
  O7       1.0000 0.86680  0.54590  0.94209  Biso   1.000  O
  O8       1.0000 0.63320  0.04590  0.55791  Biso   1.000  O
  O9       1.0000 0.06880  0.70460  0.05079  Biso   1.000  O
  O10      1.0000 0.43120  0.20460  0.44921  Biso   1.000  O
  O11      1.0000 0.93120  0.29540  0.94921  Biso   1.000  O
  O12      1.0000 0.56880  0.79540  0.55079  Biso   1.000  O
  N1       1.0000 0.27990  0.75400  0.86213  Biso   1.000  N
  N2       1.0000 0.22010  0.25400  0.63787  Biso   1.000  N
  N3       1.0000 0.72010  0.24600  0.13787  Biso   1.000  N
  N4       1.0000 0.77990  0.74600  0.36213  Biso   1.000  N
  O13      1.0000 0.13210  0.37660  0.96177  Biso   1.000  O
  O14      1.0000 0.36790  0.87660  0.53823  Biso   1.000  O
  O15      1.0000 0.86790  0.62340  0.03823  Biso   1.000  O
  O16      1.0000 0.63210  0.12340  0.46177  Biso   1.000  O
  O17      1.0000 0.95840  0.98790  0.03917  Biso   1.000  O
  O18      1.0000 0.54160  0.48790  0.46083  Biso   1.000  O
  O19      1.0000 0.04160  0.01210  0.96083  Biso   1.000  O
  O20      1.0000 0.45840  0.51210  0.53917  Biso   1.000  O
  N5       1.0000 0.94470  0.73040  0.19747  Biso   1.000  N
  N6       1.0000 0.55530  0.23040  0.30253  Biso   1.000  N
  N7       1.0000 0.05530  0.26960  0.80253  Biso   1.000  N
  N8       1.0000 0.44470  0.76960  0.69747  Biso   1.000  N
  N9       1.0000 0.37980  0.83110  0.13500  Biso   1.000  N
  N10      1.0000 0.12020  0.33110  0.36500  Biso   1.000  N
  N11      1.0000 0.62020  0.16890  0.86500  Biso   1.000  N
  N12      1.0000 0.87980  0.66890  0.63500  Biso   1.000  N
  O21      1.0000 0.06100  0.12450  0.08936  Biso   1.000  O
  O22      1.0000 0.43900  0.62450  0.41064  Biso   1.000  O
  O23      1.0000 0.93900  0.87550  0.91064  Biso   1.000  O
  O24      1.0000 0.56100  0.37550  0.58936  Biso   1.000  O
  C1       1.0000 0.13840  0.71680  0.88310  Biso   1.000  C
  C2       1.0000 0.36160  0.21680  0.61690  Biso   1.000  C
  C3       1.0000 0.86160  0.28320  0.11690  Biso   1.000  C
  C4       1.0000 0.63840  0.78320  0.38310  Biso   1.000  C
  H1       1.0000 0.07870  0.74590  0.87860  Biso   1.000  H
  H2       1.0000 0.42130  0.24590  0.62140  Biso   1.000  H
  H3       1.0000 0.92130  0.25410  0.12140  Biso   1.000  H
  H4       1.0000 0.57870  0.75410  0.37860  Biso   1.000  H
  C5       1.0000 0.98020  0.91780  0.12180  Biso   1.000  C
  C6       1.0000 0.51980  0.41780  0.37820  Biso   1.000  C
  C7       1.0000 0.01980  0.08220  0.87820  Biso   1.000  C
  C8       1.0000 0.48020  0.58220  0.62180  Biso   1.000  C
  O25      1.0000 0.81120  0.87400  0.97340  Biso   1.000  O
  O26      1.0000 0.68880  0.37400  0.52660  Biso   1.000  O
  O27      1.0000 0.18880  0.12600  0.02660  Biso   1.000  O
  O28      1.0000 0.31120  0.62600  0.47340  Biso   1.000  O
  C9       1.0000 0.11550  0.52050  0.94690  Biso   1.000  C
  C10      1.0000 0.38450  0.02050  0.55310  Biso   1.000  C
  C11      1.0000 0.88450  0.47950  0.05310  Biso   1.000  C
  C12      1.0000 0.61550  0.97950  0.44690  Biso   1.000  C
  C13      1.0000 0.89770  0.84650  0.12000  Biso   1.000  C
  C14      1.0000 0.60230  0.34650  0.38000  Biso   1.000  C
  C15      1.0000 0.10230  0.15350  0.88000  Biso   1.000  C
  C16      1.0000 0.39770  0.65350  0.62000  Biso   1.000  C
  H5       1.0000 0.85270  0.85980  0.09310  Biso   1.000  H
  H6       1.0000 0.64730  0.35980  0.40690  Biso   1.000  H
  H7       1.0000 0.14730  0.14020  0.90690  Biso   1.000  H
  H8       1.0000 0.35270  0.64020  0.59310  Biso   1.000  H
  C17      1.0000 0.13260  0.60610  0.06480  Biso   1.000  C
  C18      1.0000 0.36740  0.10610  0.43520  Biso   1.000  C
  C19      1.0000 0.86740  0.39390  0.93520  Biso   1.000  C
  C20      1.0000 0.63260  0.89390  0.56480  Biso   1.000  C
  C21      1.0000 0.21910  0.68390  0.09140  Biso   1.000  C
  C22      1.0000 0.28090  0.18390  0.40860  Biso   1.000  C
  C23      1.0000 0.78090  0.31610  0.90860  Biso   1.000  C
  C24      1.0000 0.71910  0.81610  0.59140  Biso   1.000  C
  C25      1.0000 0.26130  0.55110  0.91980  Biso   1.000  C
  C26      1.0000 0.23870  0.05110  0.58020  Biso   1.000  C
  C27      1.0000 0.73870  0.44890  0.08020  Biso   1.000  C
  C28      1.0000 0.76130  0.94890  0.41980  Biso   1.000  C
  H9       1.0000 0.28590  0.46700  0.94040  Biso   1.000  H
  H10      1.0000 0.21410  0.96700  0.55960  Biso   1.000  H
  H11      1.0000 0.71410  0.53300  0.05960  Biso   1.000  H
  H12      1.0000 0.78590  0.03300  0.44040  Biso   1.000  H
  C29      1.0000 0.17340  0.59680  0.91610  Biso   1.000  C
  C30      1.0000 0.32660  0.09680  0.58390  Biso   1.000  C
  C31      1.0000 0.82660  0.40320  0.08390  Biso   1.000  C
  C32      1.0000 0.67340  0.90320  0.41610  Biso   1.000  C
  C33      1.0000 0.88280  0.75520  0.15850  Biso   1.000  C
  C34      1.0000 0.61720  0.25520  0.34150  Biso   1.000  C
  C35      1.0000 0.11720  0.24480  0.84150  Biso   1.000  C
  C36      1.0000 0.38280  0.74480  0.65850  Biso   1.000  C
  H13      1.0000 0.82680  0.70920  0.15690  Biso   1.000  H
  H14      1.0000 0.67320  0.20920  0.34310  Biso   1.000  H
  H15      1.0000 0.17320  0.29080  0.84310  Biso   1.000  H
  H16      1.0000 0.32680  0.79080  0.65690  Biso   1.000  H
  C37      1.0000 0.31210  0.63280  0.89240  Biso   1.000  C
  C38      1.0000 0.18790  0.13280  0.60760  Biso   1.000  C
  C39      1.0000 0.68790  0.36720  0.10760  Biso   1.000  C
  C40      1.0000 0.81210  0.86720  0.39240  Biso   1.000  C
  H17      1.0000 0.37120  0.60200  0.89510  Biso   1.000  H
  H18      1.0000 0.12880  0.10200  0.60490  Biso   1.000  H
  H19      1.0000 0.62880  0.39800  0.10490  Biso   1.000  H
  H20      1.0000 0.87120  0.89800  0.39510  Biso   1.000  H
  C41      1.0000 0.19370  0.79220  0.85740  Biso   1.000  C
  C42      1.0000 0.30630  0.29220  0.64260  Biso   1.000  C
  C43      1.0000 0.80630  0.20780  0.14260  Biso   1.000  C
  C44      1.0000 0.69370  0.70780  0.35740  Biso   1.000  C
  H21      1.0000 0.17000  0.87370  0.83560  Biso   1.000  H
  H22      1.0000 0.33000  0.37370  0.66440  Biso   1.000  H
  H23      1.0000 0.83000  0.12630  0.16440  Biso   1.000  H
  H24      1.0000 0.67000  0.62630  0.33560  Biso   1.000  H
  C45      1.0000 0.00210  0.01690  0.08080  Biso   1.000  C
  C46      1.0000 0.49790  0.51690  0.41920  Biso   1.000  C
  C47      1.0000 0.99790  0.98310  0.91920  Biso   1.000  C
  C48      1.0000 0.50210  0.48310  0.58080  Biso   1.000  C
  C49      1.0000 0.30450  0.91800  0.12420  Biso   1.000  C
  C50      1.0000 0.19550  0.41800  0.37580  Biso   1.000  C
  C51      1.0000 0.69550  0.08200  0.87580  Biso   1.000  C
  C52      1.0000 0.80450  0.58200  0.62420  Biso   1.000  C
  H25      1.0000 0.30660  0.02970  0.13130  Biso   1.000  H
  H26      1.0000 0.19340  0.52970  0.36870  Biso   1.000  H
  H27      1.0000 0.69340  0.97030  0.86870  Biso   1.000  H
  H28      1.0000 0.80660  0.47030  0.63130  Biso   1.000  H
  C53      1.0000 0.29570  0.59290  0.10420  Biso   1.000  C
  C54      1.0000 0.20430  0.09290  0.39580  Biso   1.000  C
  C55      1.0000 0.70430  0.40710  0.89580  Biso   1.000  C
  C56      1.0000 0.79570  0.90710  0.60420  Biso   1.000  C
  H29      1.0000 0.29510  0.48010  0.09860  Biso   1.000  H
  H30      1.0000 0.20490  0.98010  0.40140  Biso   1.000  H
  H31      1.0000 0.70490  0.51990  0.90140  Biso   1.000  H
  H32      1.0000 0.79510  0.01990  0.59860  Biso   1.000  H
  C57      1.0000 0.22430  0.85050  0.10310  Biso   1.000  C
  C58      1.0000 0.27570  0.35050  0.39690  Biso   1.000  C
  C59      1.0000 0.77570  0.14950  0.89690  Biso   1.000  C
  C60      1.0000 0.72430  0.64950  0.60310  Biso   1.000  C
  H33      1.0000 0.17350  0.91570  0.09660  Biso   1.000  H
  H34      1.0000 0.32650  0.41570  0.40340  Biso   1.000  H
  H35      1.0000 0.82650  0.08430  0.90340  Biso   1.000  H
  H36      1.0000 0.67350  0.58430  0.59660  Biso   1.000  H
  C61      1.0000 0.04420  0.89860  0.16330  Biso   1.000  C
  C62      1.0000 0.45580  0.39860  0.33670  Biso   1.000  C
  C63      1.0000 0.95580  0.10140  0.83670  Biso   1.000  C
  C64      1.0000 0.54420  0.60140  0.66330  Biso   1.000  C
  H37      1.0000 0.09940  0.94920  0.16670  Biso   1.000  H
  H38      1.0000 0.40060  0.44920  0.33330  Biso   1.000  H
  H39      1.0000 0.90060  0.05080  0.83330  Biso   1.000  H
  H40      1.0000 0.59940  0.55080  0.66670  Biso   1.000  H
  C65      1.0000 0.02420  0.80310  0.19940  Biso   1.000  C
  C66      1.0000 0.47580  0.30310  0.30060  Biso   1.000  C
  C67      1.0000 0.97580  0.19690  0.80060  Biso   1.000  C
  C68      1.0000 0.52420  0.69690  0.69940  Biso   1.000  C
  H41      1.0000 0.06810  0.78780  0.22670  Biso   1.000  H
  H42      1.0000 0.43190  0.28780  0.27330  Biso   1.000  H
  H43      1.0000 0.93190  0.21220  0.77330  Biso   1.000  H
  H44      1.0000 0.56810  0.71220  0.72670  Biso   1.000  H
  C69      1.0000 0.37380  0.67140  0.12550  Biso   1.000  C
  C70      1.0000 0.12620  0.17140  0.37450  Biso   1.000  C
  C71      1.0000 0.62620  0.32860  0.87450  Biso   1.000  C
  C72      1.0000 0.87380  0.82860  0.62550  Biso   1.000  C
  H45      1.0000 0.42510  0.60820  0.13360  Biso   1.000  H
  H46      1.0000 0.07490  0.10820  0.36640  Biso   1.000  H
  H47      1.0000 0.57490  0.39180  0.86640  Biso   1.000  H
  H48      1.0000 0.92510  0.89180  0.63360  Biso   1.000  H
  N13      1.0000 0.67290  0.92870  0.98360  Biso   1.000  N
  N14      1.0000 0.82710  0.42870  0.51640  Biso   1.000  N
  N15      1.0000 0.32710  0.07130  0.01640  Biso   1.000  N
  N16      1.0000 0.17290  0.57130  0.48360  Biso   1.000  N
  C73      1.0000 0.73700  0.82720  0.97120  Biso   1.000  C
  C74      1.0000 0.76300  0.32720  0.52880  Biso   1.000  C
  C75      1.0000 0.26300  0.17280  0.02880  Biso   1.000  C
  C76      1.0000 0.23700  0.67280  0.47120  Biso   1.000  C
  H49      1.0000 0.72200  0.71740  0.96000  Biso   1.000  H
  H50      1.0000 0.77800  0.21740  0.54000  Biso   1.000  H
  H51      1.0000 0.27800  0.28260  0.04000  Biso   1.000  H
  H52      1.0000 0.22200  0.78260  0.46000  Biso   1.000  H
  C77      1.0000 0.58630  0.84300  0.97180  Biso   1.000  C
  C78      1.0000 0.91370  0.34300  0.52820  Biso   1.000  C
  C79      1.0000 0.41370  0.15700  0.02820  Biso   1.000  C
  C80      1.0000 0.08630  0.65700  0.47180  Biso   1.000  C
  H53      1.0000 0.59450  0.73530  0.95930  Biso   1.000  H
  H54      1.0000 0.90550  0.23530  0.54070  Biso   1.000  H
  H55      1.0000 0.40550  0.26470  0.04070  Biso   1.000  H
  H56      1.0000 0.09450  0.76470  0.45930  Biso   1.000  H
  H57      1.0000 0.56230  0.83190  0.00010  Biso   1.000  H
  H58      1.0000 0.93770  0.33190  0.49990  Biso   1.000  H
  H59      1.0000 0.43770  0.16810  0.99990  Biso   1.000  H
  H60      1.0000 0.06230  0.66810  0.50010  Biso   1.000  H
  H61      1.0000 0.54590  0.90470  0.94830  Biso   1.000  H
  H62      1.0000 0.95410  0.40470  0.55170  Biso   1.000  H
  H63      1.0000 0.45410  0.09530  0.05170  Biso   1.000  H
  H64      1.0000 0.04590  0.59530  0.44830  Biso   1.000  H
  C81      1.0000 0.67310  0.08480  0.00200  Biso   1.000  C
  C82      1.0000 0.82690  0.58480  0.49800  Biso   1.000  C
  C83      1.0000 0.32690  0.91520  0.99800  Biso   1.000  C
  C84      1.0000 0.17310  0.41520  0.50200  Biso   1.000  C
  H65      1.0000 0.61420  0.11280  0.00570  Biso   1.000  H
  H66      1.0000 0.88580  0.61280  0.49430  Biso   1.000  H
  H67      1.0000 0.38580  0.88720  0.99430  Biso   1.000  H
  H68      1.0000 0.11420  0.38720  0.50570  Biso   1.000  H
  H69      1.0000 0.71310  0.08930  0.03250  Biso   1.000  H
  H70      1.0000 0.78690  0.58930  0.46750  Biso   1.000  H
  H71      1.0000 0.28690  0.91070  0.96750  Biso   1.000  H
  H72      1.0000 0.21310  0.41070  0.53250  Biso   1.000  H
  H73      1.0000 0.69210  0.16160  0.98060  Biso   1.000  H
  H74      1.0000 0.80790  0.66160  0.51940  Biso   1.000  H
  H75      1.0000 0.30790  0.83840  0.01940  Biso   1.000  H
  H76      1.0000 0.19210  0.33840  0.48060  Biso   1.000  H
  O29      1.0000 0.21800  0.24700  0.15730  Biso   1.000  O
  O30      1.0000 0.28200  0.74700  0.34270  Biso   1.000  O
  O31      1.0000 0.78200  0.75300  0.84270  Biso   1.000  O
  O32      1.0000 0.71800  0.25300  0.65730  Biso   1.000  O
  C85      1.0000 0.24210  0.46900  0.23370  Biso   1.000  C
  C86      1.0000 0.25790  0.96900  0.26630  Biso   1.000  C
  C87      1.0000 0.75790  0.53100  0.76630  Biso   1.000  C
  C88      1.0000 0.74210  0.03100  0.73370  Biso   1.000  C
  H77      1.0000 0.19270  0.49250  0.24840  Biso   1.000  H
  H78      1.0000 0.30730  0.99250  0.25160  Biso   1.000  H
  H79      1.0000 0.80730  0.50750  0.75160  Biso   1.000  H
  H80      1.0000 0.69270  0.00750  0.74840  Biso   1.000  H
  H81      1.0000 0.28980  0.42300  0.25700  Biso   1.000  H
  H82      1.0000 0.21020  0.92300  0.24300  Biso   1.000  H
  H83      1.0000 0.71020  0.57700  0.74300  Biso   1.000  H
  H84      1.0000 0.78980  0.07700  0.75700  Biso   1.000  H
  H85      1.0000 0.26170  0.56860  0.22120  Biso   1.000  H
  H86      1.0000 0.23830  0.06860  0.27880  Biso   1.000  H
  H87      1.0000 0.73830  0.43140  0.77880  Biso   1.000  H
  H88      1.0000 0.76170  0.93140  0.72120  Biso   1.000  H
  C89      1.0000 0.21480  0.35200  0.19510  Biso   1.000  C
  C90      1.0000 0.28520  0.85200  0.30490  Biso   1.000  C
  C91      1.0000 0.78520  0.64800  0.80490  Biso   1.000  C
  C92      1.0000 0.71480  0.14800  0.69510  Biso   1.000  C
  H89      1.0000 0.16030  0.31760  0.20370  Biso   1.000  H
  H90      1.0000 0.33970  0.81760  0.29630  Biso   1.000  H
  H91      1.0000 0.83970  0.68240  0.79630  Biso   1.000  H
  H92      1.0000 0.66030  0.18240  0.70370  Biso   1.000  H
  H93      1.0000 0.19660  0.43980  0.17290  Biso   1.000  H
  H94      1.0000 0.30340  0.93980  0.32710  Biso   1.000  H
  H95      1.0000 0.80340  0.56020  0.82710  Biso   1.000  H
  H96      1.0000 0.69660  0.06020  0.67290  Biso   1.000  H
