data_image0
_cell_length_a       11.4992
_cell_length_b       11.4992
_cell_length_c       12.7341
_cell_angle_alpha    90
_cell_angle_beta     90
_cell_angle_gamma    90

_symmetry_space_group_name_H-M    "P 1"
_symmetry_int_tables_number       1

loop_
  _symmetry_equiv_pos_as_xyz
  'x, y, z'

loop_
  _atom_site_label
  _atom_site_occupancy
  _atom_site_fract_x
  _atom_site_fract_y
  _atom_site_fract_z
  _atom_site_thermal_displace_type
  _atom_site_B_iso_or_equiv
  _atom_site_type_symbol
  Cu1      1.0000 0.64734  0.35266  0.75000  Biso   1.000  Cu
  Cu2      1.0000 0.14734  0.14734  0.50000  Biso   1.000  Cu
  Cu3      1.0000 0.35266  0.64734  0.25000  Biso   1.000  Cu
  Cu4      1.0000 0.85266  0.85266  0.00000  Biso   1.000  Cu
  P1       1.0000 0.35650  0.95450  0.98190  Biso   1.000  P
  P2       1.0000 0.54550  0.85650  0.73190  Biso   1.000  P
  P3       1.0000 0.64350  0.04550  0.48190  Biso   1.000  P
  P4       1.0000 0.45450  0.14350  0.23190  Biso   1.000  P
  P5       1.0000 0.85650  0.54550  0.26810  Biso   1.000  P
  P6       1.0000 0.14350  0.45450  0.76810  Biso   1.000  P
  P7       1.0000 0.95450  0.35650  0.01810  Biso   1.000  P
  P8       1.0000 0.04550  0.64350  0.51810  Biso   1.000  P
  F1       1.0000 0.48910  0.91900  0.97700  Biso   1.000  F
  F2       1.0000 0.58100  0.98910  0.72700  Biso   1.000  F
  F3       1.0000 0.51090  0.08100  0.47700  Biso   1.000  F
  F4       1.0000 0.41900  0.01090  0.22700  Biso   1.000  F
  F5       1.0000 0.98910  0.58100  0.27300  Biso   1.000  F
  F6       1.0000 0.01090  0.41900  0.77300  Biso   1.000  F
  F7       1.0000 0.91900  0.48910  0.02300  Biso   1.000  F
  F8       1.0000 0.08100  0.51090  0.52300  Biso   1.000  F
  F9       1.0000 0.32300  0.82700  0.94800  Biso   1.000  F
  F10      1.0000 0.67300  0.82300  0.69800  Biso   1.000  F
  F11      1.0000 0.67700  0.17300  0.44800  Biso   1.000  F
  F12      1.0000 0.32700  0.17700  0.19800  Biso   1.000  F
  F13      1.0000 0.82300  0.67300  0.30200  Biso   1.000  F
  F14      1.0000 0.17700  0.32700  0.80200  Biso   1.000  F
  F15      1.0000 0.82700  0.32300  0.05200  Biso   1.000  F
  F16      1.0000 0.17300  0.67700  0.55200  Biso   1.000  F
  F17      1.0000 0.36000  0.97800  0.85960  Biso   1.000  F
  F18      1.0000 0.52200  0.86000  0.60960  Biso   1.000  F
  F19      1.0000 0.64000  0.02200  0.35960  Biso   1.000  F
  F20      1.0000 0.47800  0.14000  0.10960  Biso   1.000  F
  F21      1.0000 0.86000  0.52200  0.39040  Biso   1.000  F
  F22      1.0000 0.14000  0.47800  0.89040  Biso   1.000  F
  F23      1.0000 0.97800  0.36000  0.14040  Biso   1.000  F
  F24      1.0000 0.02200  0.64000  0.64040  Biso   1.000  F
  F25      1.0000 0.39100  0.08640  0.99700  Biso   1.000  F
  F26      1.0000 0.41360  0.89100  0.74700  Biso   1.000  F
  F27      1.0000 0.60900  0.91360  0.49700  Biso   1.000  F
  F28      1.0000 0.58640  0.10900  0.24700  Biso   1.000  F
  F29      1.0000 0.89100  0.41360  0.25300  Biso   1.000  F
  F30      1.0000 0.10900  0.58640  0.75300  Biso   1.000  F
  F31      1.0000 0.08640  0.39100  0.00300  Biso   1.000  F
  F32      1.0000 0.91360  0.60900  0.50300  Biso   1.000  F
  F33      1.0000 0.36200  0.93940  0.10610  Biso   1.000  F
  F34      1.0000 0.56060  0.86200  0.85610  Biso   1.000  F
  F35      1.0000 0.63800  0.06060  0.60610  Biso   1.000  F
  F36      1.0000 0.43940  0.13800  0.35610  Biso   1.000  F
  F37      1.0000 0.86200  0.56060  0.14390  Biso   1.000  F
  F38      1.0000 0.13800  0.43940  0.64390  Biso   1.000  F
  F39      1.0000 0.93940  0.36200  0.89390  Biso   1.000  F
  F40      1.0000 0.06060  0.63800  0.39390  Biso   1.000  F
  F41      1.0000 0.22420  0.98600  0.99030  Biso   1.000  F
  F42      1.0000 0.51400  0.72420  0.74030  Biso   1.000  F
  F43      1.0000 0.77580  0.01400  0.49030  Biso   1.000  F
  F44      1.0000 0.48600  0.27580  0.24030  Biso   1.000  F
  F45      1.0000 0.72420  0.51400  0.25970  Biso   1.000  F
  F46      1.0000 0.27580  0.48600  0.75970  Biso   1.000  F
  F47      1.0000 0.98600  0.22420  0.00970  Biso   1.000  F
  F48      1.0000 0.01400  0.77580  0.50970  Biso   1.000  F
  N1       1.0000 0.69870  0.50050  0.82100  Biso   1.000  N
  N2       1.0000 0.99950  0.19870  0.57100  Biso   1.000  N
  N3       1.0000 0.30130  0.49950  0.32100  Biso   1.000  N
  N4       1.0000 0.00050  0.80130  0.07100  Biso   1.000  N
  N5       1.0000 0.19870  0.99950  0.42900  Biso   1.000  N
  N6       1.0000 0.80130  0.00050  0.92900  Biso   1.000  N
  N7       1.0000 0.50050  0.69870  0.17900  Biso   1.000  N
  N8       1.0000 0.49950  0.30130  0.67900  Biso   1.000  N
  N9       1.0000 0.79280  0.70290  0.91100  Biso   1.000  N
  N10      1.0000 0.79710  0.29280  0.66100  Biso   1.000  N
  N11      1.0000 0.20720  0.29710  0.41100  Biso   1.000  N
  N12      1.0000 0.20290  0.70720  0.16100  Biso   1.000  N
  N13      1.0000 0.29280  0.79710  0.33900  Biso   1.000  N
  N14      1.0000 0.70720  0.20290  0.83900  Biso   1.000  N
  N15      1.0000 0.70290  0.79280  0.08900  Biso   1.000  N
  N16      1.0000 0.29710  0.20720  0.58900  Biso   1.000  N
  N17      1.0000 0.39660  0.50570  0.08550  Biso   1.000  N
  N18      1.0000 0.99430  0.89660  0.83550  Biso   1.000  N
  N19      1.0000 0.60340  0.49430  0.58550  Biso   1.000  N
  N20      1.0000 0.00570  0.10340  0.33550  Biso   1.000  N
  N21      1.0000 0.89660  0.99430  0.16450  Biso   1.000  N
  N22      1.0000 0.10340  0.00570  0.66450  Biso   1.000  N
  N23      1.0000 0.50570  0.39660  0.91450  Biso   1.000  N
  N24      1.0000 0.49430  0.60340  0.41450  Biso   1.000  N
  C1       1.0000 0.78990  0.55560  0.78070  Biso   1.000  C
  C2       1.0000 0.94440  0.28990  0.53070  Biso   1.000  C
  C3       1.0000 0.21010  0.44440  0.28070  Biso   1.000  C
  C4       1.0000 0.05560  0.71010  0.03070  Biso   1.000  C
  C5       1.0000 0.28990  0.94440  0.46930  Biso   1.000  C
  C6       1.0000 0.71010  0.05560  0.96930  Biso   1.000  C
  C7       1.0000 0.55560  0.78990  0.21930  Biso   1.000  C
  C8       1.0000 0.44440  0.21010  0.71930  Biso   1.000  C
  H1       1.0000 0.82380  0.52570  0.72020  Biso   1.000  H
  H2       1.0000 0.97430  0.32380  0.47020  Biso   1.000  H
  H3       1.0000 0.17620  0.47430  0.22020  Biso   1.000  H
  H4       1.0000 0.02570  0.67620  0.97020  Biso   1.000  H
  H5       1.0000 0.32380  0.97430  0.52980  Biso   1.000  H
  H6       1.0000 0.67620  0.02570  0.02980  Biso   1.000  H
  H7       1.0000 0.52570  0.82380  0.27980  Biso   1.000  H
  H8       1.0000 0.47430  0.17620  0.77980  Biso   1.000  H
  C9       1.0000 0.83740  0.65640  0.82490  Biso   1.000  C
  C10      1.0000 0.84360  0.33740  0.57490  Biso   1.000  C
  C11      1.0000 0.16260  0.34360  0.32490  Biso   1.000  C
  C12      1.0000 0.15640  0.66260  0.07490  Biso   1.000  C
  C13      1.0000 0.33740  0.84360  0.42510  Biso   1.000  C
  C14      1.0000 0.66260  0.15640  0.92510  Biso   1.000  C
  C15      1.0000 0.65640  0.83740  0.17510  Biso   1.000  C
  C16      1.0000 0.34360  0.16260  0.67510  Biso   1.000  C
  H9       1.0000 0.90130  0.69130  0.79320  Biso   1.000  H
  H10      1.0000 0.80870  0.40130  0.54320  Biso   1.000  H
  H11      1.0000 0.09870  0.30870  0.29320  Biso   1.000  H
  H12      1.0000 0.19130  0.59870  0.04320  Biso   1.000  H
  H13      1.0000 0.40130  0.80870  0.45680  Biso   1.000  H
  H14      1.0000 0.59870  0.19130  0.95680  Biso   1.000  H
  H15      1.0000 0.69130  0.90130  0.20680  Biso   1.000  H
  H16      1.0000 0.30870  0.09870  0.70680  Biso   1.000  H
  C17      1.0000 0.69900  0.64880  0.95280  Biso   1.000  C
  C18      1.0000 0.85120  0.19900  0.70280  Biso   1.000  C
  C19      1.0000 0.30100  0.35120  0.45280  Biso   1.000  C
  C20      1.0000 0.14880  0.80100  0.20280  Biso   1.000  C
  C21      1.0000 0.19900  0.85120  0.29720  Biso   1.000  C
  C22      1.0000 0.80100  0.14880  0.79720  Biso   1.000  C
  C23      1.0000 0.64880  0.69900  0.04720  Biso   1.000  C
  C24      1.0000 0.35120  0.30100  0.54720  Biso   1.000  C
  C25      1.0000 0.54900  0.65250  0.09090  Biso   1.000  C
  C26      1.0000 0.84750  0.04900  0.84090  Biso   1.000  C
  C27      1.0000 0.45100  0.34750  0.59090  Biso   1.000  C
  C28      1.0000 0.15250  0.95100  0.34090  Biso   1.000  C
  C29      1.0000 0.04900  0.84750  0.15910  Biso   1.000  C
  C30      1.0000 0.95100  0.15250  0.65910  Biso   1.000  C
  C31      1.0000 0.65250  0.54900  0.90910  Biso   1.000  C
  C32      1.0000 0.34750  0.45100  0.40910  Biso   1.000  C
  C33      1.0000 0.49630  0.54990  0.04340  Biso   1.000  C
  C34      1.0000 0.95010  0.99630  0.79340  Biso   1.000  C
  C35      1.0000 0.50370  0.45010  0.54340  Biso   1.000  C
  C36      1.0000 0.04990  0.00370  0.29340  Biso   1.000  C
  C37      1.0000 0.99630  0.95010  0.20660  Biso   1.000  C
  C38      1.0000 0.00370  0.04990  0.70660  Biso   1.000  C
  C39      1.0000 0.54990  0.49630  0.95660  Biso   1.000  C
  C40      1.0000 0.45010  0.50370  0.45660  Biso   1.000  C
  C41      1.0000 0.35530  0.41040  0.04330  Biso   1.000  C
  C42      1.0000 0.08960  0.85530  0.79330  Biso   1.000  C
  C43      1.0000 0.64470  0.58960  0.54330  Biso   1.000  C
  C44      1.0000 0.91040  0.14470  0.29330  Biso   1.000  C
  C45      1.0000 0.85530  0.08960  0.20670  Biso   1.000  C
  C46      1.0000 0.14470  0.91040  0.70670  Biso   1.000  C
  C47      1.0000 0.41040  0.35530  0.95670  Biso   1.000  C
  C48      1.0000 0.58960  0.64470  0.45670  Biso   1.000  C
  H17      1.0000 0.37770  0.28790  0.92920  Biso   1.000  H
  H18      1.0000 0.21210  0.87770  0.67920  Biso   1.000  H
  H19      1.0000 0.62230  0.71210  0.42920  Biso   1.000  H
  H20      1.0000 0.78790  0.12230  0.17920  Biso   1.000  H
  H21      1.0000 0.87770  0.21210  0.32080  Biso   1.000  H
  H22      1.0000 0.12230  0.78790  0.82080  Biso   1.000  H
  H23      1.0000 0.28790  0.37770  0.07080  Biso   1.000  H
  H24      1.0000 0.71210  0.62230  0.57080  Biso   1.000  H
