data_image0
_cell_length_a       13.3899
_cell_length_b       14.2532
_cell_length_c       37.468
_cell_angle_alpha    90
_cell_angle_beta     90
_cell_angle_gamma    90

_symmetry_space_group_name_H-M    "P 1"
_symmetry_int_tables_number       1

loop_
  _symmetry_equiv_pos_as_xyz
  'x, y, z'

loop_
  _atom_site_label
  _atom_site_occupancy
  _atom_site_fract_x
  _atom_site_fract_y
  _atom_site_fract_z
  _atom_site_thermal_displace_type
  _atom_site_B_iso_or_equiv
  _atom_site_type_symbol
  Sb1      1.0000 0.70253  0.24740  0.45985  Biso   1.000  Sb
  Sb2      1.0000 0.29747  0.75260  0.95985  Biso   1.000  Sb
  Sb3      1.0000 0.79747  0.74740  0.95985  Biso   1.000  Sb
  Sb4      1.0000 0.20253  0.25260  0.45985  Biso   1.000  Sb
  Sb5      1.0000 0.48203  0.67118  0.39164  Biso   1.000  Sb
  Sb6      1.0000 0.51797  0.32882  0.89164  Biso   1.000  Sb
  Sb7      1.0000 0.01797  0.17118  0.89164  Biso   1.000  Sb
  Sb8      1.0000 0.98203  0.82882  0.39164  Biso   1.000  Sb
  Sb9      1.0000 0.28518  0.25177  0.13907  Biso   1.000  Sb
  Sb10     1.0000 0.71482  0.74823  0.63907  Biso   1.000  Sb
  Sb11     1.0000 0.21482  0.75177  0.63907  Biso   1.000  Sb
  Sb12     1.0000 0.78518  0.24823  0.13907  Biso   1.000  Sb
  Sb13     1.0000 0.06176  0.83240  0.20949  Biso   1.000  Sb
  Sb14     1.0000 0.93824  0.16760  0.70949  Biso   1.000  Sb
  Sb15     1.0000 0.43824  0.33240  0.70949  Biso   1.000  Sb
  Sb16     1.0000 0.56176  0.66760  0.20949  Biso   1.000  Sb
  Cu1      1.0000 0.23032  0.75181  0.50903  Biso   1.000  Cu
  Cu2      1.0000 0.76968  0.24819  0.00903  Biso   1.000  Cu
  Cu3      1.0000 0.26968  0.25181  0.00903  Biso   1.000  Cu
  Cu4      1.0000 0.73032  0.74819  0.50903  Biso   1.000  Cu
  Cu5      1.0000 0.98084  0.46690  0.39023  Biso   1.000  Cu
  Cu6      1.0000 0.01916  0.53310  0.89023  Biso   1.000  Cu
  Cu7      1.0000 0.51916  0.96690  0.89023  Biso   1.000  Cu
  Cu8      1.0000 0.48084  0.03310  0.39023  Biso   1.000  Cu
  Cu9      1.0000 0.05248  0.46796  0.21011  Biso   1.000  Cu
  Cu10     1.0000 0.94752  0.53204  0.71011  Biso   1.000  Cu
  Cu11     1.0000 0.44752  0.96796  0.71011  Biso   1.000  Cu
  Cu12     1.0000 0.55248  0.03204  0.21011  Biso   1.000  Cu
  Cu13     1.0000 0.30839  0.74541  0.09123  Biso   1.000  Cu
  Cu14     1.0000 0.69161  0.25459  0.59123  Biso   1.000  Cu
  Cu15     1.0000 0.19161  0.24541  0.59123  Biso   1.000  Cu
  Cu16     1.0000 0.80839  0.75459  0.09123  Biso   1.000  Cu
  F1       1.0000 0.75160  0.13910  0.48110  Biso   1.000  F
  F2       1.0000 0.24840  0.86090  0.98110  Biso   1.000  F
  F3       1.0000 0.74840  0.63910  0.98110  Biso   1.000  F
  F4       1.0000 0.25160  0.36090  0.48110  Biso   1.000  F
  F5       1.0000 0.82780  0.30350  0.45920  Biso   1.000  F
  F6       1.0000 0.17220  0.69650  0.95920  Biso   1.000  F
  F7       1.0000 0.67220  0.80350  0.95920  Biso   1.000  F
  F8       1.0000 0.32780  0.19650  0.45920  Biso   1.000  F
  F9       1.0000 0.68200  0.30010  0.50460  Biso   1.000  F
  F10      1.0000 0.31800  0.69990  0.00460  Biso   1.000  F
  F11      1.0000 0.81800  0.80010  0.00460  Biso   1.000  F
  F12      1.0000 0.18200  0.19990  0.50460  Biso   1.000  F
  F13      1.0000 0.57530  0.19460  0.46000  Biso   1.000  F
  F14      1.0000 0.42470  0.80540  0.96000  Biso   1.000  F
  F15      1.0000 0.92470  0.69460  0.96000  Biso   1.000  F
  F16      1.0000 0.07530  0.30540  0.46000  Biso   1.000  F
  F17      1.0000 0.72460  0.19140  0.41560  Biso   1.000  F
  F18      1.0000 0.27540  0.80860  0.91560  Biso   1.000  F
  F19      1.0000 0.77540  0.69140  0.91560  Biso   1.000  F
  F20      1.0000 0.22460  0.30860  0.41560  Biso   1.000  F
  F21      1.0000 0.65430  0.35210  0.43810  Biso   1.000  F
  F22      1.0000 0.34570  0.64790  0.93810  Biso   1.000  F
  F23      1.0000 0.84570  0.85210  0.93810  Biso   1.000  F
  F24      1.0000 0.15430  0.14790  0.43810  Biso   1.000  F
  F25      1.0000 0.58260  0.58240  0.38441  Biso   1.000  F
  F26      1.0000 0.41740  0.41760  0.88441  Biso   1.000  F
  F27      1.0000 0.91740  0.08240  0.88441  Biso   1.000  F
  F28      1.0000 0.08260  0.91760  0.38441  Biso   1.000  F
  F29      1.0000 0.48770  0.64970  0.44105  Biso   1.000  F
  F30      1.0000 0.51230  0.35030  0.94105  Biso   1.000  F
  F31      1.0000 0.01230  0.14970  0.94105  Biso   1.000  F
  F32      1.0000 0.98770  0.85030  0.44105  Biso   1.000  F
  F33      1.0000 0.57770  0.76520  0.39740  Biso   1.000  F
  F34      1.0000 0.42230  0.23480  0.89740  Biso   1.000  F
  F35      1.0000 0.92230  0.26520  0.89740  Biso   1.000  F
  F36      1.0000 0.07770  0.73480  0.39740  Biso   1.000  F
  F37      1.0000 0.47530  0.69800  0.34273  Biso   1.000  F
  F38      1.0000 0.52470  0.30200  0.84273  Biso   1.000  F
  F39      1.0000 0.02470  0.19800  0.84273  Biso   1.000  F
  F40      1.0000 0.97530  0.80200  0.34273  Biso   1.000  F
  F41      1.0000 0.38910  0.57330  0.38668  Biso   1.000  F
  F42      1.0000 0.61090  0.42670  0.88668  Biso   1.000  F
  F43      1.0000 0.11090  0.07330  0.88668  Biso   1.000  F
  F44      1.0000 0.88910  0.92670  0.38668  Biso   1.000  F
  F45      1.0000 0.37720  0.75390  0.40150  Biso   1.000  F
  F46      1.0000 0.62280  0.24610  0.90150  Biso   1.000  F
  F47      1.0000 0.12280  0.25390  0.90150  Biso   1.000  F
  F48      1.0000 0.87720  0.74610  0.40150  Biso   1.000  F
  F49      1.0000 0.41310  0.20240  0.13810  Biso   1.000  F
  F50      1.0000 0.58690  0.79760  0.63810  Biso   1.000  F
  F51      1.0000 0.08690  0.70240  0.63810  Biso   1.000  F
  F52      1.0000 0.91310  0.29760  0.13810  Biso   1.000  F
  F53      1.0000 0.30280  0.29820  0.18450  Biso   1.000  F
  F54      1.0000 0.69720  0.70180  0.68450  Biso   1.000  F
  F55      1.0000 0.19720  0.79820  0.68450  Biso   1.000  F
  F56      1.0000 0.80280  0.20180  0.18450  Biso   1.000  F
  F57      1.0000 0.34160  0.35530  0.12000  Biso   1.000  F
  F58      1.0000 0.65840  0.64470  0.62000  Biso   1.000  F
  F59      1.0000 0.15840  0.85530  0.62000  Biso   1.000  F
  F60      1.0000 0.84160  0.14470  0.12000  Biso   1.000  F
  F61      1.0000 0.27080  0.21390  0.09330  Biso   1.000  F
  F62      1.0000 0.72920  0.78610  0.59330  Biso   1.000  F
  F63      1.0000 0.22920  0.71390  0.59330  Biso   1.000  F
  F64      1.0000 0.77080  0.28610  0.09330  Biso   1.000  F
  F65      1.0000 0.23560  0.15060  0.16020  Biso   1.000  F
  F66      1.0000 0.76440  0.84940  0.66020  Biso   1.000  F
  F67      1.0000 0.26440  0.65060  0.66020  Biso   1.000  F
  F68      1.0000 0.73560  0.34940  0.16020  Biso   1.000  F
  F69      1.0000 0.16060  0.30240  0.13810  Biso   1.000  F
  F70      1.0000 0.83940  0.69760  0.63810  Biso   1.000  F
  F71      1.0000 0.33940  0.80240  0.63810  Biso   1.000  F
  F72      1.0000 0.66060  0.19760  0.13810  Biso   1.000  F
  F73      1.0000 0.16520  0.74880  0.20280  Biso   1.000  F
  F74      1.0000 0.83480  0.25120  0.70280  Biso   1.000  F
  F75      1.0000 0.33480  0.24880  0.70280  Biso   1.000  F
  F76      1.0000 0.66520  0.75120  0.20280  Biso   1.000  F
  F77      1.0000 0.15040  0.93020  0.21180  Biso   1.000  F
  F78      1.0000 0.84960  0.06980  0.71180  Biso   1.000  F
  F79      1.0000 0.34960  0.43020  0.71180  Biso   1.000  F
  F80      1.0000 0.65040  0.56980  0.21180  Biso   1.000  F
  F81      1.0000 0.06660  0.81850  0.25846  Biso   1.000  F
  F82      1.0000 0.93340  0.18150  0.75846  Biso   1.000  F
  F83      1.0000 0.43340  0.31850  0.75846  Biso   1.000  F
  F84      1.0000 0.56660  0.68150  0.25846  Biso   1.000  F
  F85      1.0000 0.97300  0.73370  0.20590  Biso   1.000  F
  F86      1.0000 0.02700  0.26630  0.70590  Biso   1.000  F
  F87      1.0000 0.52700  0.23370  0.70590  Biso   1.000  F
  F88      1.0000 0.47300  0.76630  0.20590  Biso   1.000  F
  F89      1.0000 0.05530  0.84690  0.15938  Biso   1.000  F
  F90      1.0000 0.94470  0.15310  0.65938  Biso   1.000  F
  F91      1.0000 0.44470  0.34690  0.65938  Biso   1.000  F
  F92      1.0000 0.55530  0.65310  0.15938  Biso   1.000  F
  F93      1.0000 0.95890  0.91930  0.21415  Biso   1.000  F
  F94      1.0000 0.04110  0.08070  0.71415  Biso   1.000  F
  F95      1.0000 0.54110  0.41930  0.71415  Biso   1.000  F
  F96      1.0000 0.45890  0.58070  0.21415  Biso   1.000  F
  N1       1.0000 0.77560  0.63910  0.47280  Biso   1.000  N
  N2       1.0000 0.22440  0.36090  0.97280  Biso   1.000  N
  N3       1.0000 0.72440  0.13910  0.97280  Biso   1.000  N
  N4       1.0000 0.27560  0.86090  0.47280  Biso   1.000  N
  N5       1.0000 0.87540  0.74190  0.52280  Biso   1.000  N
  N6       1.0000 0.12460  0.25810  0.02280  Biso   1.000  N
  N7       1.0000 0.62460  0.24190  0.02280  Biso   1.000  N
  N8       1.0000 0.37540  0.75810  0.52280  Biso   1.000  N
  N9       1.0000 0.08420  0.74400  0.52270  Biso   1.000  N
  N10      1.0000 0.91580  0.25600  0.02270  Biso   1.000  N
  N11      1.0000 0.41580  0.24400  0.02270  Biso   1.000  N
  N12      1.0000 0.58420  0.75600  0.52270  Biso   1.000  N
  N13      1.0000 0.18680  0.64360  0.47261  Biso   1.000  N
  N14      1.0000 0.81320  0.35640  0.97261  Biso   1.000  N
  N15      1.0000 0.31320  0.14360  0.97261  Biso   1.000  N
  N16      1.0000 0.68680  0.85640  0.47261  Biso   1.000  N
  N17      1.0000 0.08260  0.52900  0.42344  Biso   1.000  N
  N18      1.0000 0.91740  0.47100  0.92344  Biso   1.000  N
  N19      1.0000 0.41740  0.02900  0.92344  Biso   1.000  N
  N20      1.0000 0.58260  0.97100  0.42344  Biso   1.000  N
  N21      1.0000 0.88090  0.52870  0.42280  Biso   1.000  N
  N22      1.0000 0.11910  0.47130  0.92280  Biso   1.000  N
  N23      1.0000 0.61910  0.02870  0.92280  Biso   1.000  N
  N24      1.0000 0.38090  0.97130  0.42280  Biso   1.000  N
  N25      1.0000 0.99840  0.49650  0.33697  Biso   1.000  N
  N26      1.0000 0.00160  0.50350  0.83697  Biso   1.000  N
  N27      1.0000 0.50160  0.99650  0.83697  Biso   1.000  N
  N28      1.0000 0.49840  0.00350  0.33697  Biso   1.000  N
  N29      1.0000 0.97490  0.33350  0.37280  Biso   1.000  N
  N30      1.0000 0.02510  0.66650  0.87280  Biso   1.000  N
  N31      1.0000 0.52510  0.83350  0.87280  Biso   1.000  N
  N32      1.0000 0.47490  0.16650  0.37280  Biso   1.000  N
  N33      1.0000 0.96530  0.16190  0.33510  Biso   1.000  N
  N34      1.0000 0.03470  0.83810  0.83510  Biso   1.000  N
  N35      1.0000 0.53470  0.66190  0.83510  Biso   1.000  N
  N36      1.0000 0.46530  0.33810  0.33510  Biso   1.000  N
  N37      1.0000 0.99910  0.16260  0.26160  Biso   1.000  N
  N38      1.0000 0.00090  0.83740  0.76160  Biso   1.000  N
  N39      1.0000 0.50090  0.66260  0.76160  Biso   1.000  N
  N40      1.0000 0.49910  0.33740  0.26160  Biso   1.000  N
  N41      1.0000 0.03520  0.33300  0.22680  Biso   1.000  N
  N42      1.0000 0.96480  0.66700  0.72680  Biso   1.000  N
  N43      1.0000 0.46480  0.83300  0.72680  Biso   1.000  N
  N44      1.0000 0.53520  0.16700  0.22680  Biso   1.000  N
  N45      1.0000 0.03100  0.49740  0.26240  Biso   1.000  N
  N46      1.0000 0.96900  0.50260  0.76240  Biso   1.000  N
  N47      1.0000 0.46900  0.99740  0.76240  Biso   1.000  N
  N48      1.0000 0.53100  0.00260  0.26240  Biso   1.000  N
  N49      1.0000 0.95080  0.53160  0.17630  Biso   1.000  N
  N50      1.0000 0.04920  0.46840  0.67630  Biso   1.000  N
  N51      1.0000 0.54920  0.03160  0.67630  Biso   1.000  N
  N52      1.0000 0.45080  0.96840  0.17630  Biso   1.000  N
  N53      1.0000 0.15430  0.53270  0.17862  Biso   1.000  N
  N54      1.0000 0.84570  0.46730  0.67862  Biso   1.000  N
  N55      1.0000 0.34570  0.03270  0.67862  Biso   1.000  N
  N56      1.0000 0.65430  0.96730  0.17862  Biso   1.000  N
  N57      1.0000 0.26310  0.63930  0.12831  Biso   1.000  N
  N58      1.0000 0.73690  0.36070  0.62831  Biso   1.000  N
  N59      1.0000 0.23690  0.13930  0.62831  Biso   1.000  N
  N60      1.0000 0.76310  0.86070  0.12831  Biso   1.000  N
  N61      1.0000 0.16500  0.74090  0.07793  Biso   1.000  N
  N62      1.0000 0.83500  0.25910  0.57793  Biso   1.000  N
  N63      1.0000 0.33500  0.24090  0.57793  Biso   1.000  N
  N64      1.0000 0.66500  0.75910  0.07793  Biso   1.000  N
  N65      1.0000 0.95190  0.74540  0.07800  Biso   1.000  N
  N66      1.0000 0.04810  0.25460  0.57800  Biso   1.000  N
  N67      1.0000 0.54810  0.24540  0.57800  Biso   1.000  N
  N68      1.0000 0.45190  0.75460  0.07800  Biso   1.000  N
  N69      1.0000 0.84890  0.64430  0.12700  Biso   1.000  N
  N70      1.0000 0.15110  0.35570  0.62700  Biso   1.000  N
  N71      1.0000 0.65110  0.14430  0.62700  Biso   1.000  N
  N72      1.0000 0.34890  0.85570  0.12700  Biso   1.000  N
  C1       1.0000 0.92770  0.78660  0.54690  Biso   1.000  C
  C2       1.0000 0.07230  0.21340  0.04690  Biso   1.000  C
  C3       1.0000 0.57230  0.28660  0.04690  Biso   1.000  C
  C4       1.0000 0.42770  0.71340  0.54690  Biso   1.000  C
  H1       1.0000 0.89430  0.81800  0.56510  Biso   1.000  H
  H2       1.0000 0.10570  0.18200  0.06510  Biso   1.000  H
  H3       1.0000 0.60570  0.31800  0.06510  Biso   1.000  H
  H4       1.0000 0.39430  0.68200  0.56510  Biso   1.000  H
  C5       1.0000 0.03260  0.78880  0.54620  Biso   1.000  C
  C6       1.0000 0.96740  0.21120  0.04620  Biso   1.000  C
  C7       1.0000 0.46740  0.28880  0.04620  Biso   1.000  C
  C8       1.0000 0.53260  0.71120  0.54620  Biso   1.000  C
  H5       1.0000 0.06610  0.82380  0.56340  Biso   1.000  H
  H6       1.0000 0.93390  0.17620  0.06340  Biso   1.000  H
  H7       1.0000 0.43390  0.32380  0.06340  Biso   1.000  H
  H8       1.0000 0.56610  0.67620  0.56340  Biso   1.000  H
  C9       1.0000 0.23250  0.59200  0.44780  Biso   1.000  C
  C10      1.0000 0.76750  0.40800  0.94780  Biso   1.000  C
  C11      1.0000 0.26750  0.09200  0.94780  Biso   1.000  C
  C12      1.0000 0.73250  0.90800  0.44780  Biso   1.000  C
  H9       1.0000 0.30190  0.59340  0.44680  Biso   1.000  H
  H10      1.0000 0.69810  0.40660  0.94680  Biso   1.000  H
  H11      1.0000 0.19810  0.09340  0.94680  Biso   1.000  H
  H12      1.0000 0.80190  0.90660  0.44680  Biso   1.000  H
  C13      1.0000 0.18190  0.53630  0.42350  Biso   1.000  C
  C14      1.0000 0.81810  0.46370  0.92350  Biso   1.000  C
  C15      1.0000 0.31810  0.03630  0.92350  Biso   1.000  C
  C16      1.0000 0.68190  0.96370  0.42350  Biso   1.000  C
  H13      1.0000 0.21840  0.50300  0.40660  Biso   1.000  H
  H14      1.0000 0.78160  0.49700  0.90660  Biso   1.000  H
  H15      1.0000 0.28160  0.00300  0.90660  Biso   1.000  H
  H16      1.0000 0.71840  0.99700  0.40660  Biso   1.000  H
  C17      1.0000 0.78070  0.53400  0.42400  Biso   1.000  C
  C18      1.0000 0.21930  0.46600  0.92400  Biso   1.000  C
  C19      1.0000 0.71930  0.03400  0.92400  Biso   1.000  C
  C20      1.0000 0.28070  0.96600  0.42400  Biso   1.000  C
  H17      1.0000 0.74430  0.50000  0.40730  Biso   1.000  H
  H18      1.0000 0.25570  0.50000  0.90730  Biso   1.000  H
  H19      1.0000 0.75570  0.00000  0.90730  Biso   1.000  H
  H20      1.0000 0.24430  0.00000  0.40730  Biso   1.000  H
  C21      1.0000 0.72840  0.58750  0.44900  Biso   1.000  C
  C22      1.0000 0.27160  0.41250  0.94900  Biso   1.000  C
  C23      1.0000 0.77160  0.08750  0.94900  Biso   1.000  C
  C24      1.0000 0.22840  0.91250  0.44900  Biso   1.000  C
  H21      1.0000 0.65890  0.58690  0.44880  Biso   1.000  H
  H22      1.0000 0.34110  0.41310  0.94880  Biso   1.000  H
  H23      1.0000 0.84110  0.08690  0.94880  Biso   1.000  H
  H24      1.0000 0.15890  0.91310  0.44880  Biso   1.000  H
  C25      1.0000 0.92950  0.69100  0.49950  Biso   1.000  C
  C26      1.0000 0.07050  0.30900  0.99950  Biso   1.000  C
  C27      1.0000 0.57050  0.19100  0.99950  Biso   1.000  C
  C28      1.0000 0.42950  0.80900  0.49950  Biso   1.000  C
  C29      1.0000 0.03270  0.69120  0.49920  Biso   1.000  C
  C30      1.0000 0.96730  0.30880  0.99920  Biso   1.000  C
  C31      1.0000 0.46730  0.19120  0.99920  Biso   1.000  C
  C32      1.0000 0.53270  0.80880  0.49920  Biso   1.000  C
  C33      1.0000 0.08600  0.63640  0.47240  Biso   1.000  C
  C34      1.0000 0.91400  0.36360  0.97240  Biso   1.000  C
  C35      1.0000 0.41400  0.13640  0.97240  Biso   1.000  C
  C36      1.0000 0.58600  0.86360  0.47240  Biso   1.000  C
  C37      1.0000 0.03470  0.58200  0.44880  Biso   1.000  C
  C38      1.0000 0.96530  0.41800  0.94880  Biso   1.000  C
  C39      1.0000 0.46530  0.08200  0.94880  Biso   1.000  C
  C40      1.0000 0.53470  0.91800  0.44880  Biso   1.000  C
  C41      1.0000 0.92730  0.58140  0.44820  Biso   1.000  C
  C42      1.0000 0.07270  0.41860  0.94820  Biso   1.000  C
  C43      1.0000 0.57270  0.08140  0.94820  Biso   1.000  C
  C44      1.0000 0.42730  0.91860  0.44820  Biso   1.000  C
  C45      1.0000 0.87350  0.63480  0.47300  Biso   1.000  C
  C46      1.0000 0.12650  0.36520  0.97300  Biso   1.000  C
  C47      1.0000 0.62650  0.13480  0.97300  Biso   1.000  C
  C48      1.0000 0.37350  0.86520  0.47300  Biso   1.000  C
  C49      1.0000 0.01310  0.57580  0.31920  Biso   1.000  C
  C50      1.0000 0.98690  0.42420  0.81920  Biso   1.000  C
  C51      1.0000 0.48690  0.07580  0.81920  Biso   1.000  C
  C52      1.0000 0.51310  0.92420  0.31920  Biso   1.000  C
  H25      1.0000 0.01380  0.63230  0.33170  Biso   1.000  H
  H26      1.0000 0.98620  0.36770  0.83170  Biso   1.000  H
  H27      1.0000 0.48620  0.13230  0.83170  Biso   1.000  H
  H28      1.0000 0.51380  0.86770  0.33170  Biso   1.000  H
  C53      1.0000 0.02760  0.57680  0.28220  Biso   1.000  C
  C54      1.0000 0.97240  0.42320  0.78220  Biso   1.000  C
  C55      1.0000 0.47240  0.07680  0.78220  Biso   1.000  C
  C56      1.0000 0.52760  0.92320  0.28220  Biso   1.000  C
  H29      1.0000 0.03530  0.63430  0.27080  Biso   1.000  H
  H30      1.0000 0.96470  0.36570  0.77080  Biso   1.000  H
  H31      1.0000 0.46470  0.13430  0.77080  Biso   1.000  H
  H32      1.0000 0.53530  0.86570  0.27080  Biso   1.000  H
  C57      1.0000 0.03740  0.25230  0.20930  Biso   1.000  C
  C58      1.0000 0.96260  0.74770  0.70930  Biso   1.000  C
  C59      1.0000 0.46260  0.75230  0.70930  Biso   1.000  C
  C60      1.0000 0.53740  0.24770  0.20930  Biso   1.000  C
  H33      1.0000 0.05340  0.25170  0.18520  Biso   1.000  H
  H34      1.0000 0.94660  0.74830  0.68520  Biso   1.000  H
  H35      1.0000 0.44660  0.75170  0.68520  Biso   1.000  H
  H36      1.0000 0.55340  0.24830  0.18520  Biso   1.000  H
  C61      1.0000 0.01580  0.16780  0.22670  Biso   1.000  C
  C62      1.0000 0.98420  0.83220  0.72670  Biso   1.000  C
  C63      1.0000 0.48420  0.66780  0.72670  Biso   1.000  C
  C64      1.0000 0.51580  0.33220  0.22670  Biso   1.000  C
  H37      1.0000 0.01310  0.11300  0.21330  Biso   1.000  H
  H38      1.0000 0.98690  0.88700  0.71330  Biso   1.000  H
  H39      1.0000 0.48690  0.61300  0.71330  Biso   1.000  H
  H40      1.0000 0.51310  0.38700  0.21330  Biso   1.000  H
  C65      1.0000 0.95000  0.16750  0.37010  Biso   1.000  C
  C66      1.0000 0.05000  0.83250  0.87010  Biso   1.000  C
  C67      1.0000 0.55000  0.66750  0.87010  Biso   1.000  C
  C68      1.0000 0.45000  0.33250  0.37010  Biso   1.000  C
  H41      1.0000 0.93460  0.11280  0.38250  Biso   1.000  H
  H42      1.0000 0.06540  0.88720  0.88250  Biso   1.000  H
  H43      1.0000 0.56540  0.61280  0.88250  Biso   1.000  H
  H44      1.0000 0.43460  0.38720  0.38250  Biso   1.000  H
  C69      1.0000 0.95590  0.25160  0.38910  Biso   1.000  C
  C70      1.0000 0.04410  0.74840  0.88910  Biso   1.000  C
  C71      1.0000 0.54410  0.75160  0.88910  Biso   1.000  C
  C72      1.0000 0.45590  0.24840  0.38910  Biso   1.000  C
  H45      1.0000 0.94640  0.25080  0.41370  Biso   1.000  H
  H46      1.0000 0.05360  0.74920  0.91370  Biso   1.000  H
  H47      1.0000 0.55360  0.75080  0.91370  Biso   1.000  H
  H48      1.0000 0.44640  0.24920  0.41370  Biso   1.000  H
  C73      1.0000 0.00210  0.41540  0.31830  Biso   1.000  C
  C74      1.0000 0.99790  0.58460  0.81830  Biso   1.000  C
  C75      1.0000 0.49790  0.91540  0.81830  Biso   1.000  C
  C76      1.0000 0.50210  0.08460  0.31830  Biso   1.000  C
  C77      1.0000 0.01810  0.41580  0.28190  Biso   1.000  C
  C78      1.0000 0.98190  0.58420  0.78190  Biso   1.000  C
  C79      1.0000 0.48190  0.91580  0.78190  Biso   1.000  C
  C80      1.0000 0.51810  0.08420  0.28190  Biso   1.000  C
  C81      1.0000 0.01910  0.32820  0.26300  Biso   1.000  C
  C82      1.0000 0.98090  0.67180  0.76300  Biso   1.000  C
  C83      1.0000 0.48090  0.82820  0.76300  Biso   1.000  C
  C84      1.0000 0.51910  0.17180  0.26300  Biso   1.000  C
  C85      1.0000 0.00120  0.24460  0.27930  Biso   1.000  C
  C86      1.0000 0.99880  0.75540  0.77930  Biso   1.000  C
  C87      1.0000 0.49880  0.74460  0.77930  Biso   1.000  C
  C88      1.0000 0.50120  0.25540  0.27930  Biso   1.000  C
  C89      1.0000 0.98260  0.24350  0.31800  Biso   1.000  C
  C90      1.0000 0.01740  0.75650  0.81800  Biso   1.000  C
  C91      1.0000 0.51740  0.74350  0.81800  Biso   1.000  C
  C92      1.0000 0.48260  0.25650  0.31800  Biso   1.000  C
  C93      1.0000 0.98640  0.32860  0.33700  Biso   1.000  C
  C94      1.0000 0.01360  0.67140  0.83700  Biso   1.000  C
  C95      1.0000 0.51360  0.82860  0.83700  Biso   1.000  C
  C96      1.0000 0.48640  0.17140  0.33700  Biso   1.000  C
  C97      1.0000 0.85180  0.53470  0.17540  Biso   1.000  C
  C98      1.0000 0.14820  0.46530  0.67540  Biso   1.000  C
  C99      1.0000 0.64820  0.03470  0.67540  Biso   1.000  C
  C100     1.0000 0.35180  0.96530  0.17540  Biso   1.000  C
  H49      1.0000 0.81480  0.49790  0.19110  Biso   1.000  H
  H50      1.0000 0.18520  0.50210  0.69110  Biso   1.000  H
  H51      1.0000 0.68520  0.99790  0.69110  Biso   1.000  H
  H52      1.0000 0.31480  0.00210  0.19110  Biso   1.000  H
  C101     1.0000 0.80150  0.59420  0.15050  Biso   1.000  C
  C102     1.0000 0.19850  0.40580  0.65050  Biso   1.000  C
  C103     1.0000 0.69850  0.09420  0.65050  Biso   1.000  C
  C104     1.0000 0.30150  0.90580  0.15050  Biso   1.000  C
  H53      1.0000 0.73210  0.59710  0.15110  Biso   1.000  H
  H54      1.0000 0.26790  0.40290  0.65110  Biso   1.000  H
  H55      1.0000 0.76790  0.09710  0.65110  Biso   1.000  H
  H56      1.0000 0.23210  0.90290  0.15110  Biso   1.000  H
  C105     1.0000 0.00690  0.79020  0.05230  Biso   1.000  C
  C106     1.0000 0.99310  0.20980  0.55230  Biso   1.000  C
  C107     1.0000 0.49310  0.29020  0.55230  Biso   1.000  C
  C108     1.0000 0.50690  0.70980  0.05230  Biso   1.000  C
  H57      1.0000 0.97460  0.82500  0.03480  Biso   1.000  H
  H58      1.0000 0.02540  0.17500  0.53480  Biso   1.000  H
  H59      1.0000 0.52540  0.32500  0.53480  Biso   1.000  H
  H60      1.0000 0.47460  0.67500  0.03480  Biso   1.000  H
  C109     1.0000 0.11180  0.78400  0.05220  Biso   1.000  C
  C110     1.0000 0.88820  0.21600  0.55220  Biso   1.000  C
  C111     1.0000 0.38820  0.28400  0.55220  Biso   1.000  C
  C112     1.0000 0.61180  0.71600  0.05220  Biso   1.000  C
  H61      1.0000 0.14630  0.81130  0.03330  Biso   1.000  H
  H62      1.0000 0.85370  0.18870  0.53330  Biso   1.000  H
  H63      1.0000 0.35370  0.31130  0.53330  Biso   1.000  H
  H64      1.0000 0.64630  0.68870  0.03330  Biso   1.000  H
  C113     1.0000 0.30660  0.59030  0.15400  Biso   1.000  C
  C114     1.0000 0.69340  0.40970  0.65400  Biso   1.000  C
  C115     1.0000 0.19340  0.09030  0.65400  Biso   1.000  C
  C116     1.0000 0.80660  0.90970  0.15400  Biso   1.000  C
  H65      1.0000 0.37590  0.59150  0.15580  Biso   1.000  H
  H66      1.0000 0.62410  0.40850  0.65580  Biso   1.000  H
  H67      1.0000 0.12410  0.09150  0.65580  Biso   1.000  H
  H68      1.0000 0.87590  0.90850  0.15580  Biso   1.000  H
  C117     1.0000 0.25280  0.53720  0.17860  Biso   1.000  C
  C118     1.0000 0.74720  0.46280  0.67860  Biso   1.000  C
  C119     1.0000 0.24720  0.03720  0.67860  Biso   1.000  C
  C120     1.0000 0.75280  0.96280  0.17860  Biso   1.000  C
  H69      1.0000 0.28770  0.50330  0.19580  Biso   1.000  H
  H70      1.0000 0.71230  0.49670  0.69580  Biso   1.000  H
  H71      1.0000 0.21230  0.00330  0.69580  Biso   1.000  H
  H72      1.0000 0.78770  0.99670  0.19580  Biso   1.000  H
  C121     1.0000 0.00000  0.58250  0.15200  Biso   1.000  C
  C122     1.0000 0.00000  0.41750  0.65200  Biso   1.000  C
  C123     1.0000 0.50000  0.08250  0.65200  Biso   1.000  C
  C124     1.0000 0.50000  0.91750  0.15200  Biso   1.000  C
  C125     1.0000 0.94960  0.63980  0.12750  Biso   1.000  C
  C126     1.0000 0.05040  0.36020  0.62750  Biso   1.000  C
  C127     1.0000 0.55040  0.13980  0.62750  Biso   1.000  C
  C128     1.0000 0.44960  0.86020  0.12750  Biso   1.000  C
  C129     1.0000 0.00330  0.69450  0.10150  Biso   1.000  C
  C130     1.0000 0.99670  0.30550  0.60150  Biso   1.000  C
  C131     1.0000 0.49670  0.19450  0.60150  Biso   1.000  C
  C132     1.0000 0.50330  0.80550  0.10150  Biso   1.000  C
  C133     1.0000 0.10930  0.69180  0.10184  Biso   1.000  C
  C134     1.0000 0.89070  0.30820  0.60184  Biso   1.000  C
  C135     1.0000 0.39070  0.19180  0.60184  Biso   1.000  C
  C136     1.0000 0.60930  0.80820  0.10184  Biso   1.000  C
  C137     1.0000 0.16190  0.63720  0.12810  Biso   1.000  C
  C138     1.0000 0.83810  0.36280  0.62810  Biso   1.000  C
  C139     1.0000 0.33810  0.13720  0.62810  Biso   1.000  C
  C140     1.0000 0.66190  0.86280  0.12810  Biso   1.000  C
  C141     1.0000 0.10870  0.58250  0.15290  Biso   1.000  C
  C142     1.0000 0.89130  0.41750  0.65290  Biso   1.000  C
  C143     1.0000 0.39130  0.08250  0.65290  Biso   1.000  C
  C144     1.0000 0.60870  0.91750  0.15290  Biso   1.000  C
  C145     1.0000 0.36360  0.50150  0.53600  Biso   1.000  C
  C146     1.0000 0.63640  0.49850  0.03600  Biso   1.000  C
  C147     1.0000 0.13640  0.00150  0.03600  Biso   1.000  C
  C148     1.0000 0.86360  0.99850  0.53600  Biso   1.000  C
  H73      1.0000 0.29880  0.50200  0.52710  Biso   1.000  H
  H74      1.0000 0.70120  0.49800  0.02710  Biso   1.000  H
  H75      1.0000 0.20120  0.00200  0.02710  Biso   1.000  H
  H76      1.0000 0.79880  0.99800  0.52710  Biso   1.000  H
  C149     1.0000 0.37980  0.50160  0.57260  Biso   1.000  C
  C150     1.0000 0.62020  0.49840  0.07260  Biso   1.000  C
  C151     1.0000 0.12020  0.00160  0.07260  Biso   1.000  C
  C152     1.0000 0.87980  0.99840  0.57260  Biso   1.000  C
  H77      1.0000 0.32570  0.50220  0.58820  Biso   1.000  H
  H78      1.0000 0.67430  0.49780  0.08820  Biso   1.000  H
  H79      1.0000 0.17430  0.00220  0.08820  Biso   1.000  H
  H80      1.0000 0.82570  0.99780  0.58820  Biso   1.000  H
  C153     1.0000 0.47660  0.50080  0.58600  Biso   1.000  C
  C154     1.0000 0.52340  0.49920  0.08600  Biso   1.000  C
  C155     1.0000 0.02340  0.00080  0.08600  Biso   1.000  C
  C156     1.0000 0.97660  0.99920  0.58600  Biso   1.000  C
  H81      1.0000 0.48740  0.50080  0.61050  Biso   1.000  H
  H82      1.0000 0.51260  0.49920  0.11050  Biso   1.000  H
  H83      1.0000 0.01260  0.00080  0.11050  Biso   1.000  H
  H84      1.0000 0.98740  0.99920  0.61050  Biso   1.000  H
  C157     1.0000 0.55740  0.49990  0.56260  Biso   1.000  C
  C158     1.0000 0.44260  0.50010  0.06260  Biso   1.000  C
  C159     1.0000 0.94260  0.99990  0.06260  Biso   1.000  C
  C160     1.0000 0.05740  0.00010  0.56260  Biso   1.000  C
  H85      1.0000 0.62220  0.49930  0.57160  Biso   1.000  H
  H86      1.0000 0.37780  0.50070  0.07160  Biso   1.000  H
  H87      1.0000 0.87780  0.99930  0.07160  Biso   1.000  H
  H88      1.0000 0.12220  0.00070  0.57160  Biso   1.000  H
  C161     1.0000 0.54120  0.49980  0.52600  Biso   1.000  C
  C162     1.0000 0.45880  0.50020  0.02600  Biso   1.000  C
  C163     1.0000 0.95880  0.99980  0.02600  Biso   1.000  C
  C164     1.0000 0.04120  0.00020  0.52600  Biso   1.000  C
  H89      1.0000 0.59520  0.49920  0.51040  Biso   1.000  H
  H90      1.0000 0.40480  0.50080  0.01040  Biso   1.000  H
  H91      1.0000 0.90480  0.99920  0.01040  Biso   1.000  H
  H92      1.0000 0.09520  0.00080  0.51040  Biso   1.000  H
  C165     1.0000 0.44440  0.50060  0.51270  Biso   1.000  C
  C166     1.0000 0.55560  0.49940  0.01270  Biso   1.000  C
  C167     1.0000 0.05560  0.00060  0.01270  Biso   1.000  C
  C168     1.0000 0.94440  0.99940  0.51270  Biso   1.000  C
  H93      1.0000 0.43360  0.50050  0.48810  Biso   1.000  H
  H94      1.0000 0.56640  0.49950  0.98810  Biso   1.000  H
  H95      1.0000 0.06640  0.00050  0.98810  Biso   1.000  H
  H96      1.0000 0.93360  0.99950  0.48810  Biso   1.000  H
  C169     1.0000 0.74040  0.44540  0.28490  Biso   1.000  C
  C170     1.0000 0.25960  0.55460  0.78490  Biso   1.000  C
  C171     1.0000 0.75960  0.94540  0.78490  Biso   1.000  C
  C172     1.0000 0.24040  0.05460  0.28490  Biso   1.000  C
  H97      1.0000 0.74260  0.50450  0.27440  Biso   1.000  H
  H98      1.0000 0.25740  0.49550  0.77440  Biso   1.000  H
  H99      1.0000 0.75740  0.00450  0.77440  Biso   1.000  H
  H100     1.0000 0.24260  0.99550  0.27440  Biso   1.000  H
  C173     1.0000 0.75700  0.36570  0.26440  Biso   1.000  C
  C174     1.0000 0.24300  0.63430  0.76440  Biso   1.000  C
  C175     1.0000 0.74300  0.86570  0.76440  Biso   1.000  C
  C176     1.0000 0.25700  0.13430  0.26440  Biso   1.000  C
  H101     1.0000 0.77020  0.37150  0.24010  Biso   1.000  H
  H102     1.0000 0.22980  0.62850  0.74010  Biso   1.000  H
  H103     1.0000 0.72980  0.87150  0.74010  Biso   1.000  H
  H104     1.0000 0.27020  0.12850  0.24010  Biso   1.000  H
  C177     1.0000 0.75370  0.27740  0.28010  Biso   1.000  C
  C178     1.0000 0.24630  0.72260  0.78010  Biso   1.000  C
  C179     1.0000 0.74630  0.77740  0.78010  Biso   1.000  C
  C180     1.0000 0.25370  0.22260  0.28010  Biso   1.000  C
  H105     1.0000 0.76480  0.22410  0.26630  Biso   1.000  H
  H106     1.0000 0.23520  0.77590  0.76630  Biso   1.000  H
  H107     1.0000 0.73520  0.72410  0.76630  Biso   1.000  H
  H108     1.0000 0.26480  0.27590  0.26630  Biso   1.000  H
  C181     1.0000 0.73390  0.26870  0.31630  Biso   1.000  C
  C182     1.0000 0.26610  0.73130  0.81630  Biso   1.000  C
  C183     1.0000 0.76610  0.76870  0.81630  Biso   1.000  C
  C184     1.0000 0.23390  0.23130  0.31630  Biso   1.000  C
  H109     1.0000 0.73170  0.20970  0.32680  Biso   1.000  H
  H110     1.0000 0.26830  0.79030  0.82680  Biso   1.000  H
  H111     1.0000 0.76830  0.70970  0.82680  Biso   1.000  H
  H112     1.0000 0.23170  0.29030  0.32680  Biso   1.000  H
  C185     1.0000 0.71740  0.34840  0.33690  Biso   1.000  C
  C186     1.0000 0.28260  0.65160  0.83690  Biso   1.000  C
  C187     1.0000 0.78260  0.84840  0.83690  Biso   1.000  C
  C188     1.0000 0.21740  0.15160  0.33690  Biso   1.000  C
  H113     1.0000 0.70420  0.34260  0.36120  Biso   1.000  H
  H114     1.0000 0.29580  0.65740  0.86120  Biso   1.000  H
  H115     1.0000 0.79580  0.84260  0.86120  Biso   1.000  H
  H116     1.0000 0.20420  0.15740  0.36120  Biso   1.000  H
  C189     1.0000 0.72070  0.43670  0.32120  Biso   1.000  C
  C190     1.0000 0.27930  0.56330  0.82120  Biso   1.000  C
  C191     1.0000 0.77930  0.93670  0.82120  Biso   1.000  C
  C192     1.0000 0.22070  0.06330  0.32120  Biso   1.000  C
  H117     1.0000 0.70960  0.49000  0.33500  Biso   1.000  H
  H118     1.0000 0.29040  0.51000  0.83500  Biso   1.000  H
  H119     1.0000 0.79040  0.99000  0.83500  Biso   1.000  H
  H120     1.0000 0.20960  0.01000  0.33500  Biso   1.000  H
  C193     1.0000 0.54190  0.93810  0.02185  Biso   1.000  C
  C194     1.0000 0.45810  0.06190  0.52185  Biso   1.000  C
  C195     1.0000 0.95810  0.43810  0.52185  Biso   1.000  C
  C196     1.0000 0.04190  0.56190  0.02185  Biso   1.000  C
  H121     1.0000 0.54410  0.89680  0.00270  Biso   1.000  H
  H122     1.0000 0.45590  0.10320  0.50270  Biso   1.000  H
  H123     1.0000 0.95590  0.39680  0.50270  Biso   1.000  H
  H124     1.0000 0.04410  0.60320  0.00270  Biso   1.000  H
  C197     1.0000 0.63010  0.96980  0.03724  Biso   1.000  C
  C198     1.0000 0.36990  0.03020  0.53724  Biso   1.000  C
  C199     1.0000 0.86990  0.46980  0.53724  Biso   1.000  C
  C200     1.0000 0.13010  0.53020  0.03724  Biso   1.000  C
  H125     1.0000 0.69130  0.94980  0.02830  Biso   1.000  H
  H126     1.0000 0.30870  0.05020  0.52830  Biso   1.000  H
  H127     1.0000 0.80870  0.44980  0.52830  Biso   1.000  H
  H128     1.0000 0.19130  0.55020  0.02830  Biso   1.000  H
  C201     1.0000 0.62680  0.03150  0.06595  Biso   1.000  C
  C202     1.0000 0.37320  0.96850  0.56595  Biso   1.000  C
  C203     1.0000 0.87320  0.53150  0.56595  Biso   1.000  C
  C204     1.0000 0.12680  0.46850  0.06595  Biso   1.000  C
  H129     1.0000 0.68580  0.05280  0.07620  Biso   1.000  H
  H130     1.0000 0.31420  0.94720  0.57620  Biso   1.000  H
  H131     1.0000 0.81420  0.55280  0.57620  Biso   1.000  H
  H132     1.0000 0.18580  0.44720  0.07620  Biso   1.000  H
  C205     1.0000 0.53530  0.06150  0.07926  Biso   1.000  C
  C206     1.0000 0.46470  0.93850  0.57926  Biso   1.000  C
  C207     1.0000 0.96470  0.56150  0.57926  Biso   1.000  C
  C208     1.0000 0.03530  0.43850  0.07926  Biso   1.000  C
  H133     1.0000 0.53310  0.10280  0.09850  Biso   1.000  H
  H134     1.0000 0.46690  0.89720  0.59850  Biso   1.000  H
  H135     1.0000 0.96690  0.60280  0.59850  Biso   1.000  H
  H136     1.0000 0.03310  0.39720  0.09850  Biso   1.000  H
  C209     1.0000 0.44710  0.02970  0.06386  Biso   1.000  C
  C210     1.0000 0.55290  0.97030  0.56386  Biso   1.000  C
  C211     1.0000 0.05290  0.52970  0.56386  Biso   1.000  C
  C212     1.0000 0.94710  0.47030  0.06386  Biso   1.000  C
  H137     1.0000 0.38590  0.04980  0.07280  Biso   1.000  H
  H138     1.0000 0.61410  0.95020  0.57280  Biso   1.000  H
  H139     1.0000 0.11410  0.54980  0.57280  Biso   1.000  H
  H140     1.0000 0.88590  0.45020  0.07280  Biso   1.000  H
  C213     1.0000 0.45040  0.96800  0.03516  Biso   1.000  C
  C214     1.0000 0.54960  0.03200  0.53516  Biso   1.000  C
  C215     1.0000 0.04960  0.46800  0.53516  Biso   1.000  C
  C216     1.0000 0.95040  0.53200  0.03516  Biso   1.000  C
  H141     1.0000 0.39140  0.94680  0.02490  Biso   1.000  H
  H142     1.0000 0.60860  0.05320  0.52490  Biso   1.000  H
  H143     1.0000 0.10860  0.44680  0.52490  Biso   1.000  H
  H144     1.0000 0.89140  0.55320  0.02490  Biso   1.000  H
  N73      1.0000 0.29050  0.48720  0.29294  Biso   1.000  N
  N74      1.0000 0.70950  0.51280  0.79294  Biso   1.000  N
  N75      1.0000 0.20950  0.98720  0.79294  Biso   1.000  N
  N76      1.0000 0.79050  0.01280  0.29294  Biso   1.000  N
  O1       1.0000 0.23830  0.47970  0.32057  Biso   1.000  O
  O2       1.0000 0.76170  0.52030  0.82057  Biso   1.000  O
  O3       1.0000 0.26170  0.97970  0.82057  Biso   1.000  O
  O4       1.0000 0.73830  0.02030  0.32057  Biso   1.000  O
  O5       1.0000 0.26310  0.45410  0.26360  Biso   1.000  O
  O6       1.0000 0.73690  0.54590  0.76360  Biso   1.000  O
  O7       1.0000 0.23690  0.95410  0.76360  Biso   1.000  O
  O8       1.0000 0.76310  0.04590  0.26360  Biso   1.000  O
  C217     1.0000 0.38870  0.53490  0.29310  Biso   1.000  C
  C218     1.0000 0.61130  0.46510  0.79310  Biso   1.000  C
  C219     1.0000 0.11130  0.03490  0.79310  Biso   1.000  C
  C220     1.0000 0.88870  0.96510  0.29310  Biso   1.000  C
  H145     1.0000 0.43450  0.50100  0.27820  Biso   1.000  H
  H146     1.0000 0.56550  0.49900  0.77820  Biso   1.000  H
  H147     1.0000 0.06550  0.00100  0.77820  Biso   1.000  H
  H148     1.0000 0.93450  0.99900  0.27820  Biso   1.000  H
  H149     1.0000 0.41420  0.53690  0.31700  Biso   1.000  H
  H150     1.0000 0.58580  0.46310  0.81700  Biso   1.000  H
  H151     1.0000 0.08580  0.03690  0.81700  Biso   1.000  H
  H152     1.0000 0.91420  0.96310  0.31700  Biso   1.000  H
  H153     1.0000 0.38120  0.59760  0.28420  Biso   1.000  H
  H154     1.0000 0.61880  0.40240  0.78420  Biso   1.000  H
  H155     1.0000 0.11880  0.09760  0.78420  Biso   1.000  H
  H156     1.0000 0.88120  0.90240  0.28420  Biso   1.000  H
  N77      1.0000 0.27480  0.76070  0.29160  Biso   1.000  N
  N78      1.0000 0.72520  0.23930  0.79160  Biso   1.000  N
  N79      1.0000 0.22520  0.26070  0.79160  Biso   1.000  N
  N80      1.0000 0.77480  0.73930  0.29160  Biso   1.000  N
  O9       1.0000 0.25000  0.68380  0.27530  Biso   1.000  O
  O10      1.0000 0.75000  0.31620  0.77530  Biso   1.000  O
  O11      1.0000 0.25000  0.18380  0.77530  Biso   1.000  O
  O12      1.0000 0.75000  0.81620  0.27530  Biso   1.000  O
  O13      1.0000 0.32790  0.81930  0.27910  Biso   1.000  O
  O14      1.0000 0.67210  0.18070  0.77910  Biso   1.000  O
  O15      1.0000 0.17210  0.31930  0.77910  Biso   1.000  O
  O16      1.0000 0.82790  0.68070  0.27910  Biso   1.000  O
  C221     1.0000 0.22610  0.77120  0.32620  Biso   1.000  C
  C222     1.0000 0.77390  0.22880  0.82620  Biso   1.000  C
  C223     1.0000 0.27390  0.27120  0.82620  Biso   1.000  C
  C224     1.0000 0.72610  0.72880  0.32620  Biso   1.000  C
  H157     1.0000 0.26400  0.81380  0.34070  Biso   1.000  H
  H158     1.0000 0.73600  0.18620  0.84070  Biso   1.000  H
  H159     1.0000 0.23600  0.31380  0.84070  Biso   1.000  H
  H160     1.0000 0.76400  0.68620  0.34070  Biso   1.000  H
  H161     1.0000 0.22250  0.71120  0.33780  Biso   1.000  H
  H162     1.0000 0.77750  0.28880  0.83780  Biso   1.000  H
  H163     1.0000 0.27750  0.21120  0.83780  Biso   1.000  H
  H164     1.0000 0.72250  0.78880  0.33780  Biso   1.000  H
  H165     1.0000 0.15990  0.79550  0.32280  Biso   1.000  H
  H166     1.0000 0.84010  0.20450  0.82280  Biso   1.000  H
  H167     1.0000 0.34010  0.29550  0.82280  Biso   1.000  H
  H168     1.0000 0.65990  0.70450  0.32280  Biso   1.000  H
