data_image0
_cell_length_a       16.766
_cell_length_b       13.565
_cell_length_c       24.967
_cell_angle_alpha    90
_cell_angle_beta     103.8
_cell_angle_gamma    90

_symmetry_space_group_name_H-M    "P 1"
_symmetry_int_tables_number       1

loop_
  _symmetry_equiv_pos_as_xyz
  'x, y, z'

loop_
  _atom_site_label
  _atom_site_occupancy
  _atom_site_fract_x
  _atom_site_fract_y
  _atom_site_fract_z
  _atom_site_thermal_displace_type
  _atom_site_B_iso_or_equiv
  _atom_site_type_symbol
  Cu1      1.0000 0.33539  0.64558  0.14048  Biso   1.000  Cu
  Cu2      1.0000 0.66461  0.14558  0.35952  Biso   1.000  Cu
  Cu3      1.0000 0.66461  0.35442  0.85952  Biso   1.000  Cu
  Cu4      1.0000 0.33539  0.85442  0.64048  Biso   1.000  Cu
  Cu5      1.0000 0.28384  0.13268  0.07970  Biso   1.000  Cu
  Cu6      1.0000 0.71616  0.63268  0.42030  Biso   1.000  Cu
  Cu7      1.0000 0.71616  0.86732  0.92030  Biso   1.000  Cu
  Cu8      1.0000 0.28384  0.36732  0.57970  Biso   1.000  Cu
  Cu9      1.0000 0.17122  0.33987  0.30028  Biso   1.000  Cu
  Cu10     1.0000 0.82878  0.83987  0.19972  Biso   1.000  Cu
  Cu11     1.0000 0.82878  0.66013  0.69972  Biso   1.000  Cu
  Cu12     1.0000 0.17122  0.16013  0.80028  Biso   1.000  Cu
  F1       1.0000 0.36960  0.97900  0.25150  Biso   1.000  F
  F2       1.0000 0.63040  0.47900  0.24850  Biso   1.000  F
  F3       1.0000 0.63040  0.02100  0.74850  Biso   1.000  F
  F4       1.0000 0.36960  0.52100  0.75150  Biso   1.000  F
  F5       1.0000 0.27640  0.86850  0.21350  Biso   1.000  F
  F6       1.0000 0.72360  0.36850  0.28650  Biso   1.000  F
  F7       1.0000 0.72360  0.13150  0.78650  Biso   1.000  F
  F8       1.0000 0.27640  0.63150  0.71350  Biso   1.000  F
  F9       1.0000 0.35750  0.83750  0.29380  Biso   1.000  F
  F10      1.0000 0.64250  0.33750  0.20620  Biso   1.000  F
  F11      1.0000 0.64250  0.16250  0.70620  Biso   1.000  F
  F12      1.0000 0.35750  0.66250  0.79380  Biso   1.000  F
  F13      1.0000 0.26580  0.94880  0.28720  Biso   1.000  F
  F14      1.0000 0.73420  0.44880  0.21280  Biso   1.000  F
  F15      1.0000 0.73420  0.05120  0.71280  Biso   1.000  F
  F16      1.0000 0.26580  0.55120  0.78720  Biso   1.000  F
  F17      1.0000 0.01810  0.21570  0.17960  Biso   1.000  F
  F18      1.0000 0.98190  0.71570  0.32040  Biso   1.000  F
  F19      1.0000 0.98190  0.78430  0.82040  Biso   1.000  F
  F20      1.0000 0.01810  0.28430  0.67960  Biso   1.000  F
  F21      1.0000 0.89900  0.20550  0.19970  Biso   1.000  F
  F22      1.0000 0.10100  0.70550  0.30030  Biso   1.000  F
  F23      1.0000 0.10100  0.79450  0.80030  Biso   1.000  F
  F24      1.0000 0.89900  0.29450  0.69970  Biso   1.000  F
  F25      1.0000 0.99510  0.11220  0.24340  Biso   1.000  F
  F26      1.0000 0.00490  0.61220  0.25660  Biso   1.000  F
  F27      1.0000 0.00490  0.88780  0.75660  Biso   1.000  F
  F28      1.0000 0.99510  0.38780  0.74340  Biso   1.000  F
  F29      1.0000 0.93720  0.08120  0.15620  Biso   1.000  F
  F30      1.0000 0.06280  0.58120  0.34380  Biso   1.000  F
  F31      1.0000 0.06280  0.91880  0.84380  Biso   1.000  F
  F32      1.0000 0.93720  0.41880  0.65620  Biso   1.000  F
  F33      1.0000 0.57120  0.35330  0.98910  Biso   1.000  F
  F34      1.0000 0.42880  0.85330  0.51090  Biso   1.000  F
  F35      1.0000 0.42880  0.64670  0.01090  Biso   1.000  F
  F36      1.0000 0.57120  0.14670  0.48910  Biso   1.000  F
  F37      1.0000 0.50130  0.23250  0.02330  Biso   1.000  F
  F38      1.0000 0.49870  0.73250  0.47670  Biso   1.000  F
  F39      1.0000 0.49870  0.76750  0.97670  Biso   1.000  F
  F40      1.0000 0.50130  0.26750  0.52330  Biso   1.000  F
  F41      1.0000 0.60200  0.19650  0.98510  Biso   1.000  F
  F42      1.0000 0.39800  0.69650  0.51490  Biso   1.000  F
  F43      1.0000 0.39800  0.80350  0.01490  Biso   1.000  F
  F44      1.0000 0.60200  0.30350  0.48510  Biso   1.000  F
  F45      1.0000 0.47730  0.25670  0.93290  Biso   1.000  F
  F46      1.0000 0.52270  0.75670  0.56710  Biso   1.000  F
  F47      1.0000 0.52270  0.74330  0.06710  Biso   1.000  F
  F48      1.0000 0.47730  0.24330  0.43290  Biso   1.000  F
  F49      1.0000 0.48640  0.37690  0.97920  Biso   1.000  F
  F50      1.0000 0.51360  0.87690  0.52080  Biso   1.000  F
  F51      1.0000 0.51360  0.62310  0.02080  Biso   1.000  F
  F52      1.0000 0.48640  0.12310  0.47920  Biso   1.000  F
  F53      1.0000 0.59570  0.29810  0.97570  Biso   1.000  F
  F54      1.0000 0.40430  0.79810  0.52430  Biso   1.000  F
  F55      1.0000 0.40430  0.70190  0.02430  Biso   1.000  F
  F56      1.0000 0.59570  0.20190  0.47570  Biso   1.000  F
  F57      1.0000 0.48040  0.22100  0.93350  Biso   1.000  F
  F58      1.0000 0.51960  0.72100  0.56650  Biso   1.000  F
  F59      1.0000 0.51960  0.77900  0.06650  Biso   1.000  F
  F60      1.0000 0.48040  0.27900  0.43350  Biso   1.000  F
  F61      1.0000 0.50650  0.25470  0.03010  Biso   1.000  F
  F62      1.0000 0.49350  0.75470  0.46990  Biso   1.000  F
  F63      1.0000 0.49350  0.74530  0.96990  Biso   1.000  F
  F64      1.0000 0.50650  0.24530  0.53010  Biso   1.000  F
  O1       1.0000 0.17570  0.97520  0.43450  Biso   1.000  O
  O2       1.0000 0.82430  0.47520  0.06550  Biso   1.000  O
  O3       1.0000 0.82430  0.02480  0.56550  Biso   1.000  O
  O4       1.0000 0.17570  0.52480  0.93450  Biso   1.000  O
  O5       1.0000 0.15320  0.12410  0.44130  Biso   1.000  O
  O6       1.0000 0.84680  0.62410  0.05870  Biso   1.000  O
  O7       1.0000 0.84680  0.87590  0.55870  Biso   1.000  O
  O8       1.0000 0.15320  0.37590  0.94130  Biso   1.000  O
  O9       1.0000 0.32980  0.08290  0.43230  Biso   1.000  O
  O10      1.0000 0.67020  0.58290  0.06770  Biso   1.000  O
  O11      1.0000 0.67020  0.91710  0.56770  Biso   1.000  O
  O12      1.0000 0.32980  0.41710  0.93230  Biso   1.000  O
  O13      1.0000 0.34180  0.13010  0.35560  Biso   1.000  O
  O14      1.0000 0.65820  0.63010  0.14440  Biso   1.000  O
  O15      1.0000 0.65820  0.86990  0.64440  Biso   1.000  O
  O16      1.0000 0.34180  0.36990  0.85560  Biso   1.000  O
  O17      1.0000 0.44130  0.49850  0.43530  Biso   1.000  O
  O18      1.0000 0.55870  0.99850  0.06470  Biso   1.000  O
  O19      1.0000 0.55870  0.50150  0.56470  Biso   1.000  O
  O20      1.0000 0.44130  0.00150  0.93530  Biso   1.000  O
  O21      1.0000 0.40280  0.53180  0.50640  Biso   1.000  O
  O22      1.0000 0.59720  0.03180  0.99360  Biso   1.000  O
  O23      1.0000 0.59720  0.46820  0.49360  Biso   1.000  O
  O24      1.0000 0.40280  0.96820  0.00640  Biso   1.000  O
  O25      1.0000 0.22080  0.59190  0.45490  Biso   1.000  O
  O26      1.0000 0.77920  0.09190  0.04510  Biso   1.000  O
  O27      1.0000 0.77920  0.40810  0.54510  Biso   1.000  O
  O28      1.0000 0.22080  0.90810  0.95490  Biso   1.000  O
  O29      1.0000 0.29390  0.59080  0.39660  Biso   1.000  O
  O30      1.0000 0.70610  0.09080  0.10340  Biso   1.000  O
  O31      1.0000 0.70610  0.40920  0.60340  Biso   1.000  O
  O32      1.0000 0.29390  0.90920  0.89660  Biso   1.000  O
  O33      1.0000 0.20270  0.72520  0.45710  Biso   1.000  O
  O34      1.0000 0.79730  0.22520  0.04290  Biso   1.000  O
  O35      1.0000 0.79730  0.27480  0.54290  Biso   1.000  O
  O36      1.0000 0.20270  0.77480  0.95710  Biso   1.000  O
  O37      1.0000 0.22360  0.56720  0.43480  Biso   1.000  O
  O38      1.0000 0.77640  0.06720  0.06520  Biso   1.000  O
  O39      1.0000 0.77640  0.43280  0.56520  Biso   1.000  O
  O40      1.0000 0.22360  0.93280  0.93480  Biso   1.000  O
  O41      1.0000 0.50900  0.91300  0.34110  Biso   1.000  O
  O42      1.0000 0.49100  0.41300  0.15890  Biso   1.000  O
  O43      1.0000 0.49100  0.08700  0.65890  Biso   1.000  O
  O44      1.0000 0.50900  0.58700  0.84110  Biso   1.000  O
  N1       1.0000 0.27620  0.58330  0.19448  Biso   1.000  N
  N2       1.0000 0.72380  0.08330  0.30552  Biso   1.000  N
  N3       1.0000 0.72380  0.41670  0.80552  Biso   1.000  N
  N4       1.0000 0.27620  0.91670  0.69448  Biso   1.000  N
  N5       1.0000 0.32770  0.51200  0.10780  Biso   1.000  N
  N6       1.0000 0.67230  0.01200  0.39220  Biso   1.000  N
  N7       1.0000 0.67230  0.48800  0.89220  Biso   1.000  N
  N8       1.0000 0.32770  0.98800  0.60780  Biso   1.000  N
  N9       1.0000 0.44730  0.70580  0.17410  Biso   1.000  N
  N10      1.0000 0.55270  0.20580  0.32590  Biso   1.000  N
  N11      1.0000 0.55270  0.29420  0.82590  Biso   1.000  N
  N12      1.0000 0.44730  0.79420  0.67410  Biso   1.000  N
  N13      1.0000 0.30810  0.77970  0.11200  Biso   1.000  N
  N14      1.0000 0.69190  0.27970  0.38800  Biso   1.000  N
  N15      1.0000 0.69190  0.22030  0.88800  Biso   1.000  N
  N16      1.0000 0.30810  0.72030  0.61200  Biso   1.000  N
  N17      1.0000 0.58450  0.82580  0.21380  Biso   1.000  N
  N18      1.0000 0.41550  0.32580  0.28620  Biso   1.000  N
  N19      1.0000 0.41550  0.17420  0.78620  Biso   1.000  N
  N20      1.0000 0.58450  0.67420  0.71380  Biso   1.000  N
  N21      1.0000 0.57190  0.02960  0.19180  Biso   1.000  N
  N22      1.0000 0.42810  0.52960  0.30820  Biso   1.000  N
  N23      1.0000 0.42810  0.97040  0.80820  Biso   1.000  N
  N24      1.0000 0.57190  0.47040  0.69180  Biso   1.000  N
  N25      1.0000 0.29230  0.98230  0.09010  Biso   1.000  N
  N26      1.0000 0.70770  0.48230  0.40990  Biso   1.000  N
  N27      1.0000 0.70770  0.01770  0.90990  Biso   1.000  N
  N28      1.0000 0.29230  0.51770  0.59010  Biso   1.000  N
  N29      1.0000 0.42430  0.10340  0.12460  Biso   1.000  N
  N30      1.0000 0.57570  0.60340  0.37540  Biso   1.000  N
  N31      1.0000 0.57570  0.89660  0.87540  Biso   1.000  N
  N32      1.0000 0.42430  0.39660  0.62460  Biso   1.000  N
  N33      1.0000 0.25340  0.18280  0.15000  Biso   1.000  N
  N34      1.0000 0.74660  0.68280  0.35000  Biso   1.000  N
  N35      1.0000 0.74660  0.81720  0.85000  Biso   1.000  N
  N36      1.0000 0.25340  0.31720  0.65000  Biso   1.000  N
  N37      1.0000 0.32180  0.30840  0.08550  Biso   1.000  N
  N38      1.0000 0.67820  0.80840  0.41450  Biso   1.000  N
  N39      1.0000 0.67820  0.69160  0.91450  Biso   1.000  N
  N40      1.0000 0.32180  0.19160  0.58550  Biso   1.000  N
  N41      1.0000 0.25130  0.15280  0.99770  Biso   1.000  N
  N42      1.0000 0.74870  0.65280  0.50230  Biso   1.000  N
  N43      1.0000 0.74870  0.84720  0.00230  Biso   1.000  N
  N44      1.0000 0.25130  0.34720  0.49770  Biso   1.000  N
  N45      1.0000 0.12210  0.12750  0.04810  Biso   1.000  N
  N46      1.0000 0.87790  0.62750  0.45190  Biso   1.000  N
  N47      1.0000 0.87790  0.87250  0.95190  Biso   1.000  N
  N48      1.0000 0.12210  0.37250  0.54810  Biso   1.000  N
  N49      1.0000 0.96040  0.12500  0.98430  Biso   1.000  N
  N50      1.0000 0.03960  0.62500  0.51570  Biso   1.000  N
  N51      1.0000 0.03960  0.87500  0.01570  Biso   1.000  N
  N52      1.0000 0.96040  0.37500  0.48430  Biso   1.000  N
  N53      1.0000 0.92990  0.13050  0.87020  Biso   1.000  N
  N54      1.0000 0.07010  0.63050  0.62980  Biso   1.000  N
  N55      1.0000 0.07010  0.86950  0.12980  Biso   1.000  N
  N56      1.0000 0.92990  0.36950  0.37020  Biso   1.000  N
  N57      1.0000 0.06330  0.15190  0.82080  Biso   1.000  N
  N58      1.0000 0.93670  0.65190  0.67920  Biso   1.000  N
  N59      1.0000 0.93670  0.84810  0.17920  Biso   1.000  N
  N60      1.0000 0.06330  0.34810  0.32080  Biso   1.000  N
  N61      1.0000 0.21670  0.16360  0.88230  Biso   1.000  N
  N62      1.0000 0.78330  0.66360  0.61770  Biso   1.000  N
  N63      1.0000 0.78330  0.83640  0.11770  Biso   1.000  N
  N64      1.0000 0.21670  0.33640  0.38230  Biso   1.000  N
  N65      1.0000 0.21130  0.45580  0.26180  Biso   1.000  N
  N66      1.0000 0.78870  0.95580  0.23820  Biso   1.000  N
  N67      1.0000 0.78870  0.54420  0.73820  Biso   1.000  N
  N68      1.0000 0.21130  0.04420  0.76180  Biso   1.000  N
  N69      1.0000 0.20190  0.26070  0.24140  Biso   1.000  N
  N70      1.0000 0.79810  0.76070  0.25860  Biso   1.000  N
  N71      1.0000 0.79810  0.73930  0.75860  Biso   1.000  N
  N72      1.0000 0.20190  0.23930  0.74140  Biso   1.000  N
  N73      1.0000 0.16370  0.06090  0.41360  Biso   1.000  N
  N74      1.0000 0.83630  0.56090  0.08640  Biso   1.000  N
  N75      1.0000 0.83630  0.93910  0.58640  Biso   1.000  N
  N76      1.0000 0.16370  0.43910  0.91360  Biso   1.000  N
  N77      1.0000 0.36520  0.07880  0.39310  Biso   1.000  N
  N78      1.0000 0.63480  0.57880  0.10690  Biso   1.000  N
  N79      1.0000 0.63480  0.92120  0.60690  Biso   1.000  N
  N80      1.0000 0.36520  0.42120  0.89310  Biso   1.000  N
  N81      1.0000 0.46090  0.50650  0.48070  Biso   1.000  N
  N82      1.0000 0.53910  0.00650  0.01930  Biso   1.000  N
  N83      1.0000 0.53910  0.49350  0.51930  Biso   1.000  N
  N84      1.0000 0.46090  0.99350  0.98070  Biso   1.000  N
  N85      1.0000 0.25410  0.63840  0.42140  Biso   1.000  N
  N86      1.0000 0.74590  0.13840  0.07860  Biso   1.000  N
  N87      1.0000 0.74590  0.36160  0.57860  Biso   1.000  N
  N88      1.0000 0.25410  0.86160  0.92140  Biso   1.000  N
  N89      1.0000 0.23310  0.65870  0.43720  Biso   1.000  N
  N90      1.0000 0.76690  0.15870  0.06280  Biso   1.000  N
  N91      1.0000 0.76690  0.34130  0.56280  Biso   1.000  N
  N92      1.0000 0.23310  0.84130  0.93720  Biso   1.000  N
  C1       1.0000 0.24740  0.61640  0.23650  Biso   1.000  C
  C2       1.0000 0.75260  0.11640  0.26350  Biso   1.000  C
  C3       1.0000 0.75260  0.38360  0.76350  Biso   1.000  C
  C4       1.0000 0.24740  0.88360  0.73650  Biso   1.000  C
  H1       1.0000 0.24840  0.68380  0.24350  Biso   1.000  H
  H2       1.0000 0.75160  0.18380  0.25650  Biso   1.000  H
  H3       1.0000 0.75160  0.31620  0.75650  Biso   1.000  H
  H4       1.0000 0.24840  0.81620  0.74350  Biso   1.000  H
  C5       1.0000 0.27050  0.48540  0.18510  Biso   1.000  C
  C6       1.0000 0.72950  0.98540  0.31490  Biso   1.000  C
  C7       1.0000 0.72950  0.51460  0.81490  Biso   1.000  C
  C8       1.0000 0.27050  0.01460  0.68510  Biso   1.000  C
  C9       1.0000 0.29840  0.44680  0.13900  Biso   1.000  C
  C10      1.0000 0.70160  0.94680  0.36100  Biso   1.000  C
  C11      1.0000 0.70160  0.55320  0.86100  Biso   1.000  C
  C12      1.0000 0.29840  0.05320  0.63900  Biso   1.000  C
  C13      1.0000 0.29450  0.34630  0.12790  Biso   1.000  C
  C14      1.0000 0.70550  0.84630  0.37210  Biso   1.000  C
  C15      1.0000 0.70550  0.65370  0.87210  Biso   1.000  C
  C16      1.0000 0.29450  0.15370  0.62790  Biso   1.000  C
  C17      1.0000 0.34950  0.37280  0.05480  Biso   1.000  C
  C18      1.0000 0.65050  0.87280  0.44520  Biso   1.000  C
  C19      1.0000 0.65050  0.62720  0.94520  Biso   1.000  C
  C20      1.0000 0.34950  0.12720  0.55480  Biso   1.000  C
  H5       1.0000 0.36830  0.34960  0.02500  Biso   1.000  H
  H6       1.0000 0.63170  0.84960  0.47500  Biso   1.000  H
  H7       1.0000 0.63170  0.65040  0.97500  Biso   1.000  H
  H8       1.0000 0.36830  0.15040  0.52500  Biso   1.000  H
  C21      1.0000 0.35220  0.47460  0.06490  Biso   1.000  C
  C22      1.0000 0.64780  0.97460  0.43510  Biso   1.000  C
  C23      1.0000 0.64780  0.52540  0.93510  Biso   1.000  C
  C24      1.0000 0.35220  0.02540  0.56490  Biso   1.000  C
  H9       1.0000 0.37130  0.51670  0.04130  Biso   1.000  H
  H10      1.0000 0.62870  0.01670  0.45870  Biso   1.000  H
  H11      1.0000 0.62870  0.48330  0.95870  Biso   1.000  H
  H12      1.0000 0.37130  0.98330  0.54130  Biso   1.000  H
  C25      1.0000 0.51620  0.66930  0.20350  Biso   1.000  C
  C26      1.0000 0.48380  0.16930  0.29650  Biso   1.000  C
  C27      1.0000 0.48380  0.33070  0.79650  Biso   1.000  C
  C28      1.0000 0.51620  0.83070  0.70350  Biso   1.000  C
  H13      1.0000 0.52000  0.60230  0.21180  Biso   1.000  H
  H14      1.0000 0.48000  0.10230  0.28820  Biso   1.000  H
  H15      1.0000 0.48000  0.39770  0.78820  Biso   1.000  H
  H16      1.0000 0.52000  0.89770  0.71180  Biso   1.000  H
  C29      1.0000 0.58320  0.73000  0.22240  Biso   1.000  C
  C30      1.0000 0.41680  0.23000  0.27760  Biso   1.000  C
  C31      1.0000 0.41680  0.27000  0.77760  Biso   1.000  C
  C32      1.0000 0.58320  0.77000  0.72240  Biso   1.000  C
  H17      1.0000 0.63120  0.70090  0.24260  Biso   1.000  H
  H18      1.0000 0.36880  0.20090  0.25740  Biso   1.000  H
  H19      1.0000 0.36880  0.29910  0.75740  Biso   1.000  H
  H20      1.0000 0.63120  0.79910  0.74260  Biso   1.000  H
  C33      1.0000 0.23890  0.81990  0.08270  Biso   1.000  C
  C34      1.0000 0.76110  0.31990  0.41730  Biso   1.000  C
  C35      1.0000 0.76110  0.18010  0.91730  Biso   1.000  C
  C36      1.0000 0.23890  0.68010  0.58270  Biso   1.000  C
  H21      1.0000 0.19420  0.77930  0.06850  Biso   1.000  H
  H22      1.0000 0.80580  0.27930  0.43150  Biso   1.000  H
  H23      1.0000 0.80580  0.22070  0.93150  Biso   1.000  H
  H24      1.0000 0.19420  0.72070  0.56850  Biso   1.000  H
  C37      1.0000 0.23160  0.92040  0.07280  Biso   1.000  C
  C38      1.0000 0.76840  0.42040  0.42720  Biso   1.000  C
  C39      1.0000 0.76840  0.07960  0.92720  Biso   1.000  C
  C40      1.0000 0.23160  0.57960  0.57280  Biso   1.000  C
  H25      1.0000 0.18140  0.94500  0.05310  Biso   1.000  H
  H26      1.0000 0.81860  0.44500  0.44690  Biso   1.000  H
  H27      1.0000 0.81860  0.05500  0.94690  Biso   1.000  H
  H28      1.0000 0.18140  0.55500  0.55310  Biso   1.000  H
  C41      1.0000 0.37070  0.84410  0.13010  Biso   1.000  C
  C42      1.0000 0.62930  0.34410  0.36990  Biso   1.000  C
  C43      1.0000 0.62930  0.15590  0.86990  Biso   1.000  C
  C44      1.0000 0.37070  0.65590  0.63010  Biso   1.000  C
  C45      1.0000 0.44600  0.80350  0.16350  Biso   1.000  C
  C46      1.0000 0.55400  0.30350  0.33650  Biso   1.000  C
  C47      1.0000 0.55400  0.19650  0.83650  Biso   1.000  C
  C48      1.0000 0.44600  0.69650  0.66350  Biso   1.000  C
  C49      1.0000 0.51330  0.86400  0.18350  Biso   1.000  C
  C50      1.0000 0.48670  0.36400  0.31650  Biso   1.000  C
  C51      1.0000 0.48670  0.13600  0.81650  Biso   1.000  C
  C52      1.0000 0.51330  0.63600  0.68350  Biso   1.000  C
  C53      1.0000 0.50770  0.96980  0.17140  Biso   1.000  C
  C54      1.0000 0.49230  0.46980  0.32860  Biso   1.000  C
  C55      1.0000 0.49230  0.03020  0.82860  Biso   1.000  C
  C56      1.0000 0.50770  0.53020  0.67140  Biso   1.000  C
  C57      1.0000 0.43340  0.00750  0.13880  Biso   1.000  C
  C58      1.0000 0.56660  0.50750  0.36120  Biso   1.000  C
  C59      1.0000 0.56660  0.99250  0.86120  Biso   1.000  C
  C60      1.0000 0.43340  0.49250  0.63880  Biso   1.000  C
  C61      1.0000 0.36470  0.94360  0.11910  Biso   1.000  C
  C62      1.0000 0.63530  0.44360  0.38090  Biso   1.000  C
  C63      1.0000 0.63530  0.05640  0.88090  Biso   1.000  C
  C64      1.0000 0.36470  0.55640  0.61910  Biso   1.000  C
  C65      1.0000 0.56070  0.12380  0.17750  Biso   1.000  C
  C66      1.0000 0.43930  0.62380  0.32250  Biso   1.000  C
  C67      1.0000 0.43930  0.87620  0.82250  Biso   1.000  C
  C68      1.0000 0.56070  0.37620  0.67750  Biso   1.000  C
  H29      1.0000 0.60330  0.16790  0.19090  Biso   1.000  H
  H30      1.0000 0.39670  0.66790  0.30910  Biso   1.000  H
  H31      1.0000 0.39670  0.83210  0.80910  Biso   1.000  H
  H32      1.0000 0.60330  0.33210  0.69090  Biso   1.000  H
  C69      1.0000 0.48850  0.16000  0.14370  Biso   1.000  C
  C70      1.0000 0.51150  0.66000  0.35630  Biso   1.000  C
  C71      1.0000 0.51150  0.84000  0.85630  Biso   1.000  C
  C72      1.0000 0.48850  0.34000  0.64370  Biso   1.000  C
  H33      1.0000 0.48550  0.22640  0.13410  Biso   1.000  H
  H34      1.0000 0.51450  0.72640  0.36590  Biso   1.000  H
  H35      1.0000 0.51450  0.77360  0.86590  Biso   1.000  H
  H36      1.0000 0.48550  0.27360  0.63410  Biso   1.000  H
  C73      1.0000 0.05820  0.11980  0.07030  Biso   1.000  C
  C74      1.0000 0.94180  0.61980  0.42970  Biso   1.000  C
  C75      1.0000 0.94180  0.88020  0.92970  Biso   1.000  C
  C76      1.0000 0.05820  0.38020  0.57030  Biso   1.000  C
  H37      1.0000 0.06720  0.11440  0.10840  Biso   1.000  H
  H38      1.0000 0.93280  0.61440  0.39160  Biso   1.000  H
  H39      1.0000 0.93280  0.88560  0.89160  Biso   1.000  H
  H40      1.0000 0.06720  0.38560  0.60840  Biso   1.000  H
  C77      1.0000 0.97870  0.11950  0.03860  Biso   1.000  C
  C78      1.0000 0.02130  0.61950  0.46140  Biso   1.000  C
  C79      1.0000 0.02130  0.88050  0.96140  Biso   1.000  C
  C80      1.0000 0.97870  0.38050  0.53860  Biso   1.000  C
  H41      1.0000 0.93600  0.11530  0.05640  Biso   1.000  H
  H42      1.0000 0.06400  0.61530  0.44360  Biso   1.000  H
  H43      1.0000 0.06400  0.88470  0.94360  Biso   1.000  H
  H44      1.0000 0.93600  0.38470  0.55640  Biso   1.000  H
  C81      1.0000 0.30920  0.16530  0.97070  Biso   1.000  C
  C82      1.0000 0.69080  0.66530  0.52930  Biso   1.000  C
  C83      1.0000 0.69080  0.83470  0.02930  Biso   1.000  C
  C84      1.0000 0.30920  0.33470  0.47070  Biso   1.000  C
  H45      1.0000 0.36330  0.17110  0.99080  Biso   1.000  H
  H46      1.0000 0.63670  0.67110  0.50920  Biso   1.000  H
  H47      1.0000 0.63670  0.82890  0.00920  Biso   1.000  H
  H48      1.0000 0.36330  0.32890  0.49080  Biso   1.000  H
  C85      1.0000 0.29270  0.17030  0.91320  Biso   1.000  C
  C86      1.0000 0.70730  0.67030  0.58680  Biso   1.000  C
  C87      1.0000 0.70730  0.82970  0.08680  Biso   1.000  C
  C88      1.0000 0.29270  0.32970  0.41320  Biso   1.000  C
  H49      1.0000 0.33600  0.17840  0.89620  Biso   1.000  H
  H50      1.0000 0.66400  0.67840  0.60380  Biso   1.000  H
  H51      1.0000 0.66400  0.82160  0.10380  Biso   1.000  H
  H52      1.0000 0.33600  0.32160  0.39620  Biso   1.000  H
  C89      1.0000 0.10550  0.13540  0.99270  Biso   1.000  C
  C90      1.0000 0.89450  0.63540  0.50730  Biso   1.000  C
  C91      1.0000 0.89450  0.86460  0.00730  Biso   1.000  C
  C92      1.0000 0.10550  0.36460  0.49270  Biso   1.000  C
  C93      1.0000 0.17340  0.14550  0.96670  Biso   1.000  C
  C94      1.0000 0.82660  0.64550  0.53330  Biso   1.000  C
  C95      1.0000 0.82660  0.85450  0.03330  Biso   1.000  C
  C96      1.0000 0.17340  0.35450  0.46670  Biso   1.000  C
  C97      1.0000 0.15730  0.15210  0.90960  Biso   1.000  C
  C98      1.0000 0.84270  0.65210  0.59040  Biso   1.000  C
  C99      1.0000 0.84270  0.84790  0.09040  Biso   1.000  C
  C100     1.0000 0.15730  0.34790  0.40960  Biso   1.000  C
  C101     1.0000 0.07400  0.14700  0.87640  Biso   1.000  C
  C102     1.0000 0.92600  0.64700  0.62360  Biso   1.000  C
  C103     1.0000 0.92600  0.85300  0.12360  Biso   1.000  C
  C104     1.0000 0.07400  0.35300  0.37640  Biso   1.000  C
  C105     1.0000 0.00810  0.13670  0.90070  Biso   1.000  C
  C106     1.0000 0.99190  0.63670  0.59930  Biso   1.000  C
  C107     1.0000 0.99190  0.86330  0.09930  Biso   1.000  C
  C108     1.0000 0.00810  0.36330  0.40070  Biso   1.000  C
  C109     1.0000 0.02460  0.13190  0.96020  Biso   1.000  C
  C110     1.0000 0.97540  0.63190  0.53980  Biso   1.000  C
  C111     1.0000 0.97540  0.86810  0.03980  Biso   1.000  C
  C112     1.0000 0.02460  0.36810  0.46020  Biso   1.000  C
  C113     1.0000 0.92110  0.13580  0.81660  Biso   1.000  C
  C114     1.0000 0.07890  0.63580  0.68340  Biso   1.000  C
  C115     1.0000 0.07890  0.86420  0.18340  Biso   1.000  C
  C116     1.0000 0.92110  0.36420  0.31660  Biso   1.000  C
  H53      1.0000 0.86830  0.13220  0.79410  Biso   1.000  H
  H54      1.0000 0.13170  0.63220  0.70590  Biso   1.000  H
  H55      1.0000 0.13170  0.86780  0.20590  Biso   1.000  H
  H56      1.0000 0.86830  0.36780  0.29410  Biso   1.000  H
  C117     1.0000 0.98690  0.14670  0.79120  Biso   1.000  C
  C118     1.0000 0.01310  0.64670  0.70880  Biso   1.000  C
  C119     1.0000 0.01310  0.85330  0.20880  Biso   1.000  C
  C120     1.0000 0.98690  0.35330  0.29120  Biso   1.000  C
  H57      1.0000 0.97650  0.15030  0.75290  Biso   1.000  H
  H58      1.0000 0.02350  0.65030  0.74710  Biso   1.000  H
  H59      1.0000 0.02350  0.84970  0.24710  Biso   1.000  H
  H60      1.0000 0.97650  0.34970  0.25290  Biso   1.000  H
  C121     1.0000 0.21590  0.55290  0.27040  Biso   1.000  C
  C122     1.0000 0.78410  0.05290  0.22960  Biso   1.000  C
  C123     1.0000 0.78410  0.44710  0.72960  Biso   1.000  C
  C124     1.0000 0.21590  0.94710  0.77040  Biso   1.000  C
  H61      1.0000 0.19760  0.57900  0.29980  Biso   1.000  H
  H62      1.0000 0.80240  0.07900  0.20020  Biso   1.000  H
  H63      1.0000 0.80240  0.42100  0.70020  Biso   1.000  H
  H64      1.0000 0.19760  0.92100  0.79980  Biso   1.000  H
  C125     1.0000 0.23890  0.42240  0.21860  Biso   1.000  C
  C126     1.0000 0.76110  0.92240  0.28140  Biso   1.000  C
  C127     1.0000 0.76110  0.57760  0.78140  Biso   1.000  C
  C128     1.0000 0.23890  0.07760  0.71860  Biso   1.000  C
  C129     1.0000 0.23350  0.31850  0.20720  Biso   1.000  C
  C130     1.0000 0.76650  0.81850  0.29280  Biso   1.000  C
  C131     1.0000 0.76650  0.68150  0.79280  Biso   1.000  C
  C132     1.0000 0.23350  0.18150  0.70720  Biso   1.000  C
  C133     1.0000 0.26010  0.28080  0.16200  Biso   1.000  C
  C134     1.0000 0.73990  0.78080  0.33800  Biso   1.000  C
  C135     1.0000 0.73990  0.71920  0.83800  Biso   1.000  C
  C136     1.0000 0.26010  0.21920  0.66200  Biso   1.000  C
  C137     1.0000 0.19700  0.16510  0.22920  Biso   1.000  C
  C138     1.0000 0.80300  0.66510  0.27080  Biso   1.000  C
  C139     1.0000 0.80300  0.83490  0.77080  Biso   1.000  C
  C140     1.0000 0.19700  0.33490  0.72920  Biso   1.000  C
  H65      1.0000 0.17670  0.12210  0.25180  Biso   1.000  H
  H66      1.0000 0.82330  0.62210  0.24820  Biso   1.000  H
  H67      1.0000 0.82330  0.87790  0.74820  Biso   1.000  H
  H68      1.0000 0.17670  0.37790  0.75180  Biso   1.000  H
  C141     1.0000 0.22170  0.12710  0.18330  Biso   1.000  C
  C142     1.0000 0.77830  0.62710  0.31670  Biso   1.000  C
  C143     1.0000 0.77830  0.87290  0.81670  Biso   1.000  C
  C144     1.0000 0.22170  0.37290  0.68330  Biso   1.000  C
  H69      1.0000 0.21560  0.05990  0.17600  Biso   1.000  H
  H70      1.0000 0.78440  0.55990  0.32400  Biso   1.000  H
  H71      1.0000 0.78440  0.94010  0.82400  Biso   1.000  H
  H72      1.0000 0.21560  0.44010  0.67600  Biso   1.000  H
  C145     1.0000 0.06110  0.56480  0.13620  Biso   1.000  C
  C146     1.0000 0.93890  0.06480  0.36380  Biso   1.000  C
  C147     1.0000 0.93890  0.43520  0.86380  Biso   1.000  C
  C148     1.0000 0.06110  0.93520  0.63620  Biso   1.000  C
  H73      1.0000 0.05070  0.60790  0.16270  Biso   1.000  H
  H74      1.0000 0.94930  0.10790  0.33730  Biso   1.000  H
  H75      1.0000 0.94930  0.39210  0.83730  Biso   1.000  H
  H76      1.0000 0.05070  0.89210  0.66270  Biso   1.000  H
  C149     1.0000 0.05200  0.46700  0.14220  Biso   1.000  C
  C150     1.0000 0.94800  0.96700  0.35780  Biso   1.000  C
  C151     1.0000 0.94800  0.53300  0.85780  Biso   1.000  C
  C152     1.0000 0.05200  0.03300  0.64220  Biso   1.000  C
  H77      1.0000 0.03440  0.44410  0.17250  Biso   1.000  H
  H78      1.0000 0.96560  0.94410  0.32750  Biso   1.000  H
  H79      1.0000 0.96560  0.55590  0.82750  Biso   1.000  H
  H80      1.0000 0.03440  0.05590  0.67250  Biso   1.000  H
  C153     1.0000 0.06730  0.40240  0.10620  Biso   1.000  C
  C154     1.0000 0.93270  0.90240  0.39380  Biso   1.000  C
  C155     1.0000 0.93270  0.59760  0.89380  Biso   1.000  C
  C156     1.0000 0.06730  0.09760  0.60620  Biso   1.000  C
  H81      1.0000 0.06150  0.33540  0.11200  Biso   1.000  H
  H82      1.0000 0.93850  0.83540  0.38800  Biso   1.000  H
  H83      1.0000 0.93850  0.66460  0.88800  Biso   1.000  H
  H84      1.0000 0.06150  0.16460  0.61200  Biso   1.000  H
  C157     1.0000 0.09200  0.43390  0.06010  Biso   1.000  C
  C158     1.0000 0.90800  0.93390  0.43990  Biso   1.000  C
  C159     1.0000 0.90800  0.56610  0.93990  Biso   1.000  C
  C160     1.0000 0.09200  0.06610  0.56010  Biso   1.000  C
  H85      1.0000 0.10170  0.38930  0.03410  Biso   1.000  H
  H86      1.0000 0.89830  0.88930  0.46590  Biso   1.000  H
  H87      1.0000 0.89830  0.61070  0.96590  Biso   1.000  H
  H88      1.0000 0.10170  0.11070  0.53410  Biso   1.000  H
  C161     1.0000 0.10200  0.53690  0.05390  Biso   1.000  C
  C162     1.0000 0.89800  0.03690  0.44610  Biso   1.000  C
  C163     1.0000 0.89800  0.46310  0.94610  Biso   1.000  C
  C164     1.0000 0.10200  0.96310  0.55390  Biso   1.000  C
  H89      1.0000 0.12000  0.56120  0.02390  Biso   1.000  H
  H90      1.0000 0.88000  0.06120  0.47610  Biso   1.000  H
  H91      1.0000 0.88000  0.43880  0.97610  Biso   1.000  H
  H92      1.0000 0.12000  0.93880  0.52390  Biso   1.000  H
  C165     1.0000 0.08490  0.60040  0.09250  Biso   1.000  C
  C166     1.0000 0.91510  0.10040  0.40750  Biso   1.000  C
  C167     1.0000 0.91510  0.39960  0.90750  Biso   1.000  C
  C168     1.0000 0.08490  0.89960  0.59250  Biso   1.000  C
  H93      1.0000 0.08980  0.66810  0.08840  Biso   1.000  H
  H94      1.0000 0.91020  0.16810  0.41160  Biso   1.000  H
  H95      1.0000 0.91020  0.33190  0.91160  Biso   1.000  H
  H96      1.0000 0.08980  0.83190  0.58840  Biso   1.000  H
  C169     1.0000 0.14920  0.06890  0.36000  Biso   1.000  C
  C170     1.0000 0.85080  0.56890  0.14000  Biso   1.000  C
  C171     1.0000 0.85080  0.93110  0.64000  Biso   1.000  C
  C172     1.0000 0.14920  0.43110  0.86000  Biso   1.000  C
  H97      1.0000 0.13590  0.00530  0.34350  Biso   1.000  H
  H98      1.0000 0.86410  0.50530  0.15650  Biso   1.000  H
  H99      1.0000 0.86410  0.99470  0.65650  Biso   1.000  H
  H100     1.0000 0.13590  0.49470  0.84350  Biso   1.000  H
  H101     1.0000 0.19710  0.09440  0.35000  Biso   1.000  H
  H102     1.0000 0.80290  0.59440  0.15000  Biso   1.000  H
  H103     1.0000 0.80290  0.90560  0.65000  Biso   1.000  H
  H104     1.0000 0.19710  0.40560  0.85000  Biso   1.000  H
  H105     1.0000 0.10390  0.11310  0.34720  Biso   1.000  H
  H106     1.0000 0.89610  0.61310  0.15280  Biso   1.000  H
  H107     1.0000 0.89610  0.88690  0.65280  Biso   1.000  H
  H108     1.0000 0.10390  0.38690  0.84720  Biso   1.000  H
  C173     1.0000 0.42850  0.99440  0.40010  Biso   1.000  C
  C174     1.0000 0.57150  0.49440  0.09990  Biso   1.000  C
  C175     1.0000 0.57150  0.00560  0.59990  Biso   1.000  C
  C176     1.0000 0.42850  0.50560  0.90010  Biso   1.000  C
  H109     1.0000 0.41400  0.94370  0.42280  Biso   1.000  H
  H110     1.0000 0.58600  0.44370  0.07720  Biso   1.000  H
  H111     1.0000 0.58600  0.05630  0.57720  Biso   1.000  H
  H112     1.0000 0.41400  0.55630  0.92280  Biso   1.000  H
  H113     1.0000 0.48210  0.01940  0.41710  Biso   1.000  H
  H114     1.0000 0.51790  0.51940  0.08290  Biso   1.000  H
  H115     1.0000 0.51790  0.98060  0.58290  Biso   1.000  H
  H116     1.0000 0.48210  0.48060  0.91710  Biso   1.000  H
  H117     1.0000 0.42880  0.96750  0.36450  Biso   1.000  H
  H118     1.0000 0.57120  0.46750  0.13550  Biso   1.000  H
  H119     1.0000 0.57120  0.03250  0.63550  Biso   1.000  H
  H120     1.0000 0.42880  0.53250  0.86450  Biso   1.000  H
  C177     1.0000 0.24820  0.74370  0.41450  Biso   1.000  C
  C178     1.0000 0.75180  0.24370  0.08550  Biso   1.000  C
  C179     1.0000 0.75180  0.25630  0.58550  Biso   1.000  C
  C180     1.0000 0.24820  0.75630  0.91450  Biso   1.000  C
  H121     1.0000 0.30050  0.77320  0.43060  Biso   1.000  H
  H122     1.0000 0.69950  0.27320  0.06940  Biso   1.000  H
  H123     1.0000 0.69950  0.22680  0.56940  Biso   1.000  H
  H124     1.0000 0.30050  0.72680  0.93060  Biso   1.000  H
  H125     1.0000 0.20770  0.76890  0.43240  Biso   1.000  H
  H126     1.0000 0.79230  0.26890  0.06760  Biso   1.000  H
  H127     1.0000 0.79230  0.23110  0.56760  Biso   1.000  H
  H128     1.0000 0.20770  0.73110  0.93240  Biso   1.000  H
  H129     1.0000 0.23250  0.75930  0.37590  Biso   1.000  H
  H130     1.0000 0.76750  0.25930  0.12410  Biso   1.000  H
  H131     1.0000 0.76750  0.24070  0.62410  Biso   1.000  H
  H132     1.0000 0.23250  0.74070  0.87590  Biso   1.000  H
  C181     1.0000 0.29450  0.69460  0.40320  Biso   1.000  C
  C182     1.0000 0.70550  0.19460  0.09680  Biso   1.000  C
  C183     1.0000 0.70550  0.30540  0.59680  Biso   1.000  C
  C184     1.0000 0.29450  0.80540  0.90320  Biso   1.000  C
  H133     1.0000 0.27610  0.75660  0.38600  Biso   1.000  H
  H134     1.0000 0.72390  0.25660  0.11400  Biso   1.000  H
  H135     1.0000 0.72390  0.24340  0.61400  Biso   1.000  H
  H136     1.0000 0.27610  0.74340  0.88600  Biso   1.000  H
  H137     1.0000 0.29700  0.64680  0.37530  Biso   1.000  H
  H138     1.0000 0.70300  0.14680  0.12470  Biso   1.000  H
  H139     1.0000 0.70300  0.35320  0.62470  Biso   1.000  H
  H140     1.0000 0.29700  0.85320  0.87530  Biso   1.000  H
  H141     1.0000 0.34800  0.70250  0.42720  Biso   1.000  H
  H142     1.0000 0.65200  0.20250  0.07280  Biso   1.000  H
  H143     1.0000 0.65200  0.29750  0.57280  Biso   1.000  H
  H144     1.0000 0.34800  0.79750  0.92720  Biso   1.000  H
  B1       1.0000 0.32050  0.90470  0.26210  Biso   1.000  B
  B2       1.0000 0.67950  0.40470  0.23790  Biso   1.000  B
  B3       1.0000 0.67950  0.09530  0.73790  Biso   1.000  B
  B4       1.0000 0.32050  0.59530  0.76210  Biso   1.000  B
  B5       1.0000 0.96560  0.14890  0.19370  Biso   1.000  B
  B6       1.0000 0.03440  0.64890  0.30630  Biso   1.000  B
  B7       1.0000 0.03440  0.85110  0.80630  Biso   1.000  B
  B8       1.0000 0.96560  0.35110  0.69370  Biso   1.000  B
  B9       1.0000 0.53470  0.26270  0.98280  Biso   1.000  B
  B10      1.0000 0.46530  0.76270  0.51720  Biso   1.000  B
  B11      1.0000 0.46530  0.73730  0.01720  Biso   1.000  B
  B12      1.0000 0.53470  0.23730  0.48280  Biso   1.000  B
  B13      1.0000 0.50700  0.28300  0.97450  Biso   1.000  B
  B14      1.0000 0.49300  0.78300  0.52550  Biso   1.000  B
  B15      1.0000 0.49300  0.71700  0.02550  Biso   1.000  B
  B16      1.0000 0.50700  0.21700  0.47450  Biso   1.000  B
