data_image0
_cell_length_a       11.5768
_cell_length_b       12.7908
_cell_length_c       15.2079
_cell_angle_alpha    99.393
_cell_angle_beta     101.457
_cell_angle_gamma    109.878

_symmetry_space_group_name_H-M    "P 1"
_symmetry_int_tables_number       1

loop_
  _symmetry_equiv_pos_as_xyz
  'x, y, z'

loop_
  _atom_site_label
  _atom_site_occupancy
  _atom_site_fract_x
  _atom_site_fract_y
  _atom_site_fract_z
  _atom_site_thermal_displace_type
  _atom_site_B_iso_or_equiv
  _atom_site_type_symbol
  I1       1.0000 0.00714  0.96901  0.73807  Biso   1.000  I
  I2       1.0000 0.99286  0.03099  0.26193  Biso   1.000  I
  I3       1.0000 0.58753  0.82653  0.67297  Biso   1.000  I
  I4       1.0000 0.41247  0.17347  0.32704  Biso   1.000  I
  Cu1      1.0000 0.79513  0.01793  0.71325  Biso   1.000  Cu
  Cu2      1.0000 0.20487  0.98207  0.28675  Biso   1.000  Cu
  Cu3      1.0000 0.80371  0.78398  0.71270  Biso   1.000  Cu
  Cu4      1.0000 0.19629  0.21602  0.28730  Biso   1.000  Cu
  N1       1.0000 0.79660  0.09159  0.60371  Biso   1.000  N
  N2       1.0000 0.20340  0.90841  0.39629  Biso   1.000  N
  S1       1.0000 0.99141  0.64579  0.70302  Biso   1.000  S
  S2       1.0000 0.00859  0.35421  0.29698  Biso   1.000  S
  S3       1.0000 0.95982  0.29329  0.80498  Biso   1.000  S
  S4       1.0000 0.04018  0.70671  0.19502  Biso   1.000  S
  S5       1.0000 0.61619  0.15101  0.64709  Biso   1.000  S
  S6       1.0000 0.38381  0.84899  0.35291  Biso   1.000  S
  S7       1.0000 0.65328  0.54217  0.75512  Biso   1.000  S
  S8       1.0000 0.34672  0.45783  0.24488  Biso   1.000  S
  N3       1.0000 0.78370  0.65560  0.60404  Biso   1.000  N
  N4       1.0000 0.21630  0.34440  0.39596  Biso   1.000  N
  N5       1.0000 0.80480  0.75175  0.84196  Biso   1.000  N
  N6       1.0000 0.19520  0.24825  0.15804  Biso   1.000  N
  N7       1.0000 0.81040  0.11123  0.84245  Biso   1.000  N
  N8       1.0000 0.18960  0.88877  0.15755  Biso   1.000  N
  C1       1.0000 0.73310  0.65240  0.85570  Biso   1.000  C
  C2       1.0000 0.26690  0.34760  0.14430  Biso   1.000  C
  N9       1.0000 0.71490  0.63390  0.93624  Biso   1.000  N
  N10      1.0000 0.28510  0.36610  0.06376  Biso   1.000  N
  N11      1.0000 0.83310  0.49590  0.54693  Biso   1.000  N
  N12      1.0000 0.16690  0.50410  0.45307  Biso   1.000  N
  N13      1.0000 0.89370  0.28300  0.96250  Biso   1.000  N
  N14      1.0000 0.10630  0.71700  0.03750  Biso   1.000  N
  C3       1.0000 0.87960  0.22420  0.87840  Biso   1.000  C
  C4       1.0000 0.12040  0.77580  0.12160  Biso   1.000  C
  C5       1.0000 0.85600  0.59300  0.60712  Biso   1.000  C
  C6       1.0000 0.14400  0.40700  0.39288  Biso   1.000  C
  C7       1.0000 0.68210  0.61740  0.52980  Biso   1.000  C
  C8       1.0000 0.31790  0.38260  0.47020  Biso   1.000  C
  H1       1.0000 0.63090  0.65960  0.52300  Biso   1.000  H
  H2       1.0000 0.36910  0.34040  0.47700  Biso   1.000  H
  C9       1.0000 0.75270  0.05580  0.89880  Biso   1.000  C
  C10      1.0000 0.24730  0.94420  0.10120  Biso   1.000  C
  H3       1.0000 0.70430  0.97740  0.87720  Biso   1.000  H
  H4       1.0000 0.29570  0.02260  0.12280  Biso   1.000  H
  C11      1.0000 0.72920  0.15680  0.58550  Biso   1.000  C
  C12      1.0000 0.27080  0.84320  0.41450  Biso   1.000  C
  C13      1.0000 0.45590  0.26470  0.65020  Biso   1.000  C
  C14      1.0000 0.54410  0.73530  0.34980  Biso   1.000  C
  C15      1.0000 0.15560  0.55440  0.77457  Biso   1.000  C
  C16      1.0000 0.84440  0.44560  0.22543  Biso   1.000  C
  C17      1.0000 0.14110  0.51330  0.85270  Biso   1.000  C
  C18      1.0000 0.85890  0.48670  0.14730  Biso   1.000  C
  C19      1.0000 0.87950  0.09100  0.55380  Biso   1.000  C
  C20      1.0000 0.12050  0.90900  0.44620  Biso   1.000  C
  H5       1.0000 0.92710  0.04600  0.56310  Biso   1.000  H
  H6       1.0000 0.07290  0.95400  0.43690  Biso   1.000  H
  C21      1.0000 0.72730  0.45840  0.47610  Biso   1.000  C
  C22      1.0000 0.27270  0.54160  0.52390  Biso   1.000  C
  H7       1.0000 0.70530  0.38860  0.43400  Biso   1.000  H
  H8       1.0000 0.29470  0.61140  0.56600  Biso   1.000  H
  C23      1.0000 0.04470  0.52690  0.69160  Biso   1.000  C
  C24      1.0000 0.95530  0.47310  0.30840  Biso   1.000  C
  H9       1.0000 0.97580  0.45620  0.68900  Biso   1.000  H
  H10      1.0000 0.02420  0.54380  0.31100  Biso   1.000  H
  H11      1.0000 0.07090  0.51710  0.63510  Biso   1.000  H
  H12      1.0000 0.92910  0.48290  0.36490  Biso   1.000  H
  N15      1.0000 0.74160  0.22120  0.52570  Biso   1.000  N
  N16      1.0000 0.25840  0.77880  0.47430  Biso   1.000  N
  C25      1.0000 0.86380  0.83860  0.91720  Biso   1.000  C
  C26      1.0000 0.13620  0.16140  0.08280  Biso   1.000  C
  H13      1.0000 0.91540  0.90930  0.91100  Biso   1.000  H
  H14      1.0000 0.08460  0.09070  0.08900  Biso   1.000  H
  C27      1.0000 0.65100  0.51830  0.46350  Biso   1.000  C
  C28      1.0000 0.34900  0.48170  0.53650  Biso   1.000  C
  H15      1.0000 0.58060  0.49320  0.41200  Biso   1.000  H
  H16      1.0000 0.41940  0.50680  0.58800  Biso   1.000  H
  C29      1.0000 0.27730  0.62390  0.77380  Biso   1.000  C
  C30      1.0000 0.72270  0.37610  0.22620  Biso   1.000  C
  H17      1.0000 0.28750  0.65260  0.72220  Biso   1.000  H
  H18      1.0000 0.71250  0.34740  0.27780  Biso   1.000  H
  C31      1.0000 0.57150  0.26660  0.61780  Biso   1.000  C
  C32      1.0000 0.42850  0.73340  0.38220  Biso   1.000  C
  H19      1.0000 0.64200  0.33980  0.64720  Biso   1.000  H
  H20      1.0000 0.35800  0.66020  0.35280  Biso   1.000  H
  H21      1.0000 0.55230  0.25740  0.55120  Biso   1.000  H
  H22      1.0000 0.44770  0.74260  0.44880  Biso   1.000  H
  C33      1.0000 0.89680  0.15430  0.48930  Biso   1.000  C
  C34      1.0000 0.10320  0.84570  0.51070  Biso   1.000  C
  H23      1.0000 0.95410  0.15260  0.45460  Biso   1.000  H
  H24      1.0000 0.04590  0.84740  0.54540  Biso   1.000  H
  C35      1.0000 0.77420  0.72280  0.00920  Biso   1.000  C
  C36      1.0000 0.22580  0.27720  0.99080  Biso   1.000  C
  H25      1.0000 0.76280  0.71370  0.06670  Biso   1.000  H
  H26      1.0000 0.23720  0.28630  0.93330  Biso   1.000  H
  C37      1.0000 0.01320  0.44520  0.86350  Biso   1.000  C
  C38      1.0000 0.98680  0.55480  0.13650  Biso   1.000  C
  H27      1.0000 0.95130  0.47520  0.83770  Biso   1.000  H
  H28      1.0000 0.04870  0.52480  0.16230  Biso   1.000  H
  H29      1.0000 0.01850  0.45290  0.92890  Biso   1.000  H
  H30      1.0000 0.98150  0.54710  0.07110  Biso   1.000  H
  C39      1.0000 0.46150  0.33600  0.73170  Biso   1.000  C
  C40      1.0000 0.53850  0.66400  0.26830  Biso   1.000  C
  C41      1.0000 0.24930  0.54190  0.92460  Biso   1.000  C
  C42      1.0000 0.75070  0.45810  0.07540  Biso   1.000  C
  H31      1.0000 0.24070  0.51360  0.97650  Biso   1.000  H
  H32      1.0000 0.75930  0.48640  0.02350  Biso   1.000  H
  C43      1.0000 0.33880  0.18950  0.59340  Biso   1.000  C
  C44      1.0000 0.66120  0.81050  0.40660  Biso   1.000  C
  H33      1.0000 0.33510  0.14010  0.53980  Biso   1.000  H
  H34      1.0000 0.66490  0.85990  0.46020  Biso   1.000  H
  C45      1.0000 0.36840  0.61010  0.92250  Biso   1.000  C
  C46      1.0000 0.63160  0.38990  0.07750  Biso   1.000  C
  H35      1.0000 0.43900  0.62780  0.97230  Biso   1.000  H
  H36      1.0000 0.56100  0.37220  0.02770  Biso   1.000  H
  C47      1.0000 0.85180  0.82820  0.00290  Biso   1.000  C
  C48      1.0000 0.14820  0.17180  0.99710  Biso   1.000  C
  H37      1.0000 0.89420  0.88970  0.05490  Biso   1.000  H
  H38      1.0000 0.10580  0.11030  0.94510  Biso   1.000  H
  C49      1.0000 0.38230  0.65160  0.84640  Biso   1.000  C
  C50      1.0000 0.61770  0.34840  0.15360  Biso   1.000  C
  H39      1.0000 0.46250  0.69840  0.84410  Biso   1.000  H
  H40      1.0000 0.53750  0.30160  0.15590  Biso   1.000  H
  C51      1.0000 0.22850  0.18510  0.61330  Biso   1.000  C
  C52      1.0000 0.77150  0.81490  0.38670  Biso   1.000  C
  H41      1.0000 0.15060  0.13340  0.57340  Biso   1.000  H
  H42      1.0000 0.84940  0.86660  0.42660  Biso   1.000  H
  C53      1.0000 0.34600  0.33110  0.75000  Biso   1.000  C
  C54      1.0000 0.65400  0.66890  0.25000  Biso   1.000  C
  H43      1.0000 0.34700  0.37960  0.80310  Biso   1.000  H
  H44      1.0000 0.65300  0.62040  0.19690  Biso   1.000  H
  C55      1.0000 0.76140  0.10920  0.98640  Biso   1.000  C
  C56      1.0000 0.23860  0.89080  0.01360  Biso   1.000  C
  H45      1.0000 0.72040  0.06930  0.02460  Biso   1.000  H
  H46      1.0000 0.27960  0.93070  0.97540  Biso   1.000  H
  C57      1.0000 0.82690  0.21910  0.47880  Biso   1.000  C
  C58      1.0000 0.17310  0.78090  0.52120  Biso   1.000  C
  H47      1.0000 0.83870  0.26450  0.43680  Biso   1.000  H
  H48      1.0000 0.16130  0.73550  0.56320  Biso   1.000  H
  C59      1.0000 0.58560  0.41660  0.79910  Biso   1.000  C
  C60      1.0000 0.41440  0.58340  0.20090  Biso   1.000  C
  H49      1.0000 0.64460  0.37810  0.80760  Biso   1.000  H
  H50      1.0000 0.35540  0.62190  0.19240  Biso   1.000  H
  H51      1.0000 0.57170  0.44050  0.85870  Biso   1.000  H
  H52      1.0000 0.42830  0.55950  0.14130  Biso   1.000  H
  C61      1.0000 0.23130  0.25510  0.69010  Biso   1.000  C
  C62      1.0000 0.76870  0.74490  0.30990  Biso   1.000  C
  H53      1.0000 0.15520  0.25230  0.70300  Biso   1.000  H
  H54      1.0000 0.84480  0.74770  0.29700  Biso   1.000  H
  C63      1.0000 0.83280  0.22310  0.01500  Biso   1.000  C
  C64      1.0000 0.16720  0.77690  0.98500  Biso   1.000  C
  H55      1.0000 0.83970  0.26170  0.07440  Biso   1.000  H
  H56      1.0000 0.16030  0.73830  0.92560  Biso   1.000  H
  C65      1.0000 0.59760  0.92940  0.14710  Biso   1.000  C
  C66      1.0000 0.40240  0.07060  0.85290  Biso   1.000  C
  C67      1.0000 0.63430  0.01080  0.23350  Biso   1.000  C
  C68      1.0000 0.36570  0.98920  0.76650  Biso   1.000  C
  H57      1.0000 0.66920  0.08710  0.22530  Biso   1.000  H
  H58      1.0000 0.33080  0.91290  0.77470  Biso   1.000  H
  H59      1.0000 0.69750  0.99840  0.27720  Biso   1.000  H
  H60      1.0000 0.30250  0.00160  0.72280  Biso   1.000  H
  H61      1.0000 0.56090  0.00200  0.25650  Biso   1.000  H
  H62      1.0000 0.43910  0.99800  0.74350  Biso   1.000  H
  N17      1.0000 0.57500  0.86830  0.07980  Biso   1.000  N
  N18      1.0000 0.42500  0.13170  0.92020  Biso   1.000  N
