data_image0
_cell_length_a       29.755
_cell_length_b       13.4624
_cell_length_c       8.9729
_cell_angle_alpha    90
_cell_angle_beta     99.333
_cell_angle_gamma    90

_symmetry_space_group_name_H-M    "P 1"
_symmetry_int_tables_number       1

loop_
  _symmetry_equiv_pos_as_xyz
  'x, y, z'

loop_
  _atom_site_label
  _atom_site_occupancy
  _atom_site_fract_x
  _atom_site_fract_y
  _atom_site_fract_z
  _atom_site_thermal_displace_type
  _atom_site_B_iso_or_equiv
  _atom_site_type_symbol
  I1       1.0000 0.99993  0.72205  0.01157  Biso   1.000  I
  I2       1.0000 0.49993  0.22205  0.01157  Biso   1.000  I
  I3       1.0000 0.00007  0.72205  0.48843  Biso   1.000  I
  I4       1.0000 0.50007  0.22205  0.48843  Biso   1.000  I
  I5       1.0000 0.00007  0.27795  0.98843  Biso   1.000  I
  I6       1.0000 0.50007  0.77795  0.98843  Biso   1.000  I
  I7       1.0000 0.99993  0.27795  0.51157  Biso   1.000  I
  I8       1.0000 0.49993  0.77795  0.51157  Biso   1.000  I
  Cu1      1.0000 0.94125  0.74395  0.22983  Biso   1.000  Cu
  Cu2      1.0000 0.44125  0.24395  0.22983  Biso   1.000  Cu
  Cu3      1.0000 0.05875  0.74395  0.27017  Biso   1.000  Cu
  Cu4      1.0000 0.55875  0.24395  0.27017  Biso   1.000  Cu
  Cu5      1.0000 0.05875  0.25605  0.77017  Biso   1.000  Cu
  Cu6      1.0000 0.55875  0.75605  0.77017  Biso   1.000  Cu
  Cu7      1.0000 0.94125  0.25605  0.72983  Biso   1.000  Cu
  Cu8      1.0000 0.44125  0.75605  0.72983  Biso   1.000  Cu
  S1       1.0000 0.85337  0.71212  0.98498  Biso   1.000  S
  S2       1.0000 0.35337  0.21212  0.98498  Biso   1.000  S
  S3       1.0000 0.14663  0.71212  0.51502  Biso   1.000  S
  S4       1.0000 0.64663  0.21212  0.51502  Biso   1.000  S
  S5       1.0000 0.14663  0.28788  0.01502  Biso   1.000  S
  S6       1.0000 0.64663  0.78788  0.01502  Biso   1.000  S
  S7       1.0000 0.85337  0.28788  0.48498  Biso   1.000  S
  S8       1.0000 0.35337  0.78788  0.48498  Biso   1.000  S
  S9       1.0000 0.85561  0.84330  0.36726  Biso   1.000  S
  S10      1.0000 0.35561  0.34330  0.36726  Biso   1.000  S
  S11      1.0000 0.14439  0.84330  0.13274  Biso   1.000  S
  S12      1.0000 0.64439  0.34330  0.13274  Biso   1.000  S
  S13      1.0000 0.14439  0.15670  0.63274  Biso   1.000  S
  S14      1.0000 0.64439  0.65670  0.63274  Biso   1.000  S
  S15      1.0000 0.85561  0.15670  0.86726  Biso   1.000  S
  S16      1.0000 0.35561  0.65670  0.86726  Biso   1.000  S
  C1       1.0000 0.78681  0.75610  0.75290  Biso   1.000  C
  C2       1.0000 0.28681  0.25610  0.75290  Biso   1.000  C
  C3       1.0000 0.21319  0.75610  0.74710  Biso   1.000  C
  C4       1.0000 0.71319  0.25610  0.74710  Biso   1.000  C
  C5       1.0000 0.21319  0.24390  0.24710  Biso   1.000  C
  C6       1.0000 0.71319  0.74390  0.24710  Biso   1.000  C
  C7       1.0000 0.78681  0.24390  0.25290  Biso   1.000  C
  C8       1.0000 0.28681  0.74390  0.25290  Biso   1.000  C
  N1       1.0000 0.91081  0.61190  0.17950  Biso   1.000  N
  N2       1.0000 0.41081  0.11190  0.17950  Biso   1.000  N
  N3       1.0000 0.08919  0.61190  0.32050  Biso   1.000  N
  N4       1.0000 0.58919  0.11190  0.32050  Biso   1.000  N
  N5       1.0000 0.08919  0.38810  0.82050  Biso   1.000  N
  N6       1.0000 0.58919  0.88810  0.82050  Biso   1.000  N
  N7       1.0000 0.91081  0.38810  0.67950  Biso   1.000  N
  N8       1.0000 0.41081  0.88810  0.67950  Biso   1.000  N
  C9       1.0000 0.93017  0.52830  0.23980  Biso   1.000  C
  C10      1.0000 0.43017  0.02830  0.23980  Biso   1.000  C
  C11      1.0000 0.06983  0.52830  0.26020  Biso   1.000  C
  C12      1.0000 0.56983  0.02830  0.26020  Biso   1.000  C
  C13      1.0000 0.06983  0.47170  0.76020  Biso   1.000  C
  C14      1.0000 0.56983  0.97170  0.76020  Biso   1.000  C
  C15      1.0000 0.93017  0.47170  0.73980  Biso   1.000  C
  C16      1.0000 0.43017  0.97170  0.73980  Biso   1.000  C
  H1       1.0000 0.95350  0.53280  0.32210  Biso   1.000  H
  H2       1.0000 0.45350  0.03280  0.32210  Biso   1.000  H
  H3       1.0000 0.04650  0.53280  0.17790  Biso   1.000  H
  H4       1.0000 0.54650  0.03280  0.17790  Biso   1.000  H
  H5       1.0000 0.04650  0.46720  0.67790  Biso   1.000  H
  H6       1.0000 0.54650  0.96720  0.67790  Biso   1.000  H
  H7       1.0000 0.95350  0.46720  0.82210  Biso   1.000  H
  H8       1.0000 0.45350  0.96720  0.82210  Biso   1.000  H
  N9       1.0000 0.86117  0.51470  0.00230  Biso   1.000  N
  N10      1.0000 0.36117  0.01470  0.00230  Biso   1.000  N
  N11      1.0000 0.13883  0.51470  0.49770  Biso   1.000  N
  N12      1.0000 0.63883  0.01470  0.49770  Biso   1.000  N
  N13      1.0000 0.13883  0.48530  0.99770  Biso   1.000  N
  N14      1.0000 0.63883  0.98530  0.99770  Biso   1.000  N
  N15      1.0000 0.86117  0.48530  0.50230  Biso   1.000  N
  N16      1.0000 0.36117  0.98530  0.50230  Biso   1.000  N
  C17      1.0000 0.80976  0.79770  0.64530  Biso   1.000  C
  C18      1.0000 0.30976  0.29770  0.64530  Biso   1.000  C
  C19      1.0000 0.19024  0.79770  0.85470  Biso   1.000  C
  C20      1.0000 0.69024  0.29770  0.85470  Biso   1.000  C
  C21      1.0000 0.19024  0.20230  0.35470  Biso   1.000  C
  C22      1.0000 0.69024  0.70230  0.35470  Biso   1.000  C
  C23      1.0000 0.80976  0.20230  0.14530  Biso   1.000  C
  C24      1.0000 0.30976  0.70230  0.14530  Biso   1.000  C
  H9       1.0000 0.83780  0.77150  0.63230  Biso   1.000  H
  H10      1.0000 0.33780  0.27150  0.63230  Biso   1.000  H
  H11      1.0000 0.16220  0.77150  0.86770  Biso   1.000  H
  H12      1.0000 0.66220  0.27150  0.86770  Biso   1.000  H
  H13      1.0000 0.16220  0.22850  0.36770  Biso   1.000  H
  H14      1.0000 0.66220  0.72850  0.36770  Biso   1.000  H
  H15      1.0000 0.83780  0.22850  0.13230  Biso   1.000  H
  H16      1.0000 0.33780  0.72850  0.13230  Biso   1.000  H
  C25      1.0000 0.79221  0.87640  0.55770  Biso   1.000  C
  C26      1.0000 0.29221  0.37640  0.55770  Biso   1.000  C
  C27      1.0000 0.20779  0.87640  0.94230  Biso   1.000  C
  C28      1.0000 0.70779  0.37640  0.94230  Biso   1.000  C
  C29      1.0000 0.20779  0.12360  0.44230  Biso   1.000  C
  C30      1.0000 0.70779  0.62360  0.44230  Biso   1.000  C
  C31      1.0000 0.79221  0.12360  0.05770  Biso   1.000  C
  C32      1.0000 0.29221  0.62360  0.05770  Biso   1.000  C
  C33      1.0000 0.87671  0.60020  0.06270  Biso   1.000  C
  C34      1.0000 0.37671  0.10020  0.06270  Biso   1.000  C
  C35      1.0000 0.12329  0.60020  0.43730  Biso   1.000  C
  C36      1.0000 0.62329  0.10020  0.43730  Biso   1.000  C
  C37      1.0000 0.12329  0.39980  0.93730  Biso   1.000  C
  C38      1.0000 0.62329  0.89980  0.93730  Biso   1.000  C
  C39      1.0000 0.87671  0.39980  0.56270  Biso   1.000  C
  C40      1.0000 0.37671  0.89980  0.56270  Biso   1.000  C
  C41      1.0000 0.89117  0.92890  0.29680  Biso   1.000  C
  C42      1.0000 0.39117  0.42890  0.29680  Biso   1.000  C
  C43      1.0000 0.10883  0.92890  0.20320  Biso   1.000  C
  C44      1.0000 0.60883  0.42890  0.20320  Biso   1.000  C
  C45      1.0000 0.10883  0.07110  0.70320  Biso   1.000  C
  C46      1.0000 0.60883  0.57110  0.70320  Biso   1.000  C
  C47      1.0000 0.89117  0.07110  0.79680  Biso   1.000  C
  C48      1.0000 0.39117  0.57110  0.79680  Biso   1.000  C
  C49      1.0000 0.74586  0.79750  0.77480  Biso   1.000  C
  C50      1.0000 0.24586  0.29750  0.77480  Biso   1.000  C
  C51      1.0000 0.25414  0.79750  0.72520  Biso   1.000  C
  C52      1.0000 0.75414  0.29750  0.72520  Biso   1.000  C
  C53      1.0000 0.25414  0.20250  0.22520  Biso   1.000  C
  C54      1.0000 0.75414  0.70250  0.22520  Biso   1.000  C
  C55      1.0000 0.74586  0.20250  0.27480  Biso   1.000  C
  C56      1.0000 0.24586  0.70250  0.27480  Biso   1.000  C
  H17      1.0000 0.73030  0.77200  0.84820  Biso   1.000  H
  H18      1.0000 0.23030  0.27200  0.84820  Biso   1.000  H
  H19      1.0000 0.26970  0.77200  0.65180  Biso   1.000  H
  H20      1.0000 0.76970  0.27200  0.65180  Biso   1.000  H
  H21      1.0000 0.26970  0.22800  0.15180  Biso   1.000  H
  H22      1.0000 0.76970  0.72800  0.15180  Biso   1.000  H
  H23      1.0000 0.73030  0.22800  0.34820  Biso   1.000  H
  H24      1.0000 0.23030  0.72800  0.34820  Biso   1.000  H
  C57      1.0000 0.91671  0.43580  0.18400  Biso   1.000  C
  C58      1.0000 0.41671  0.93580  0.18400  Biso   1.000  C
  C59      1.0000 0.08329  0.43580  0.31600  Biso   1.000  C
  C60      1.0000 0.58329  0.93580  0.31600  Biso   1.000  C
  C61      1.0000 0.08329  0.56420  0.81600  Biso   1.000  C
  C62      1.0000 0.58329  0.06420  0.81600  Biso   1.000  C
  C63      1.0000 0.91671  0.56420  0.68400  Biso   1.000  C
  C64      1.0000 0.41671  0.06420  0.68400  Biso   1.000  C
  H25      1.0000 0.93050  0.37810  0.22620  Biso   1.000  H
  H26      1.0000 0.43050  0.87810  0.22620  Biso   1.000  H
  H27      1.0000 0.06950  0.37810  0.27380  Biso   1.000  H
  H28      1.0000 0.56950  0.87810  0.27380  Biso   1.000  H
  H29      1.0000 0.06950  0.62190  0.77380  Biso   1.000  H
  H30      1.0000 0.56950  0.12190  0.77380  Biso   1.000  H
  H31      1.0000 0.93050  0.62190  0.72620  Biso   1.000  H
  H32      1.0000 0.43050  0.12190  0.72620  Biso   1.000  H
  C65      1.0000 0.75061  0.91540  0.57920  Biso   1.000  C
  C66      1.0000 0.25061  0.41540  0.57920  Biso   1.000  C
  C67      1.0000 0.24939  0.91540  0.92080  Biso   1.000  C
  C68      1.0000 0.74939  0.41540  0.92080  Biso   1.000  C
  C69      1.0000 0.24939  0.08460  0.42080  Biso   1.000  C
  C70      1.0000 0.74939  0.58460  0.42080  Biso   1.000  C
  C71      1.0000 0.75061  0.08460  0.07920  Biso   1.000  C
  C72      1.0000 0.25061  0.58460  0.07920  Biso   1.000  C
  H33      1.0000 0.73790  0.96820  0.51990  Biso   1.000  H
  H34      1.0000 0.23790  0.46820  0.51990  Biso   1.000  H
  H35      1.0000 0.26210  0.96820  0.98010  Biso   1.000  H
  H36      1.0000 0.76210  0.46820  0.98010  Biso   1.000  H
  H37      1.0000 0.26210  0.03180  0.48010  Biso   1.000  H
  H38      1.0000 0.76210  0.53180  0.48010  Biso   1.000  H
  H39      1.0000 0.73790  0.03180  0.01990  Biso   1.000  H
  H40      1.0000 0.23790  0.53180  0.01990  Biso   1.000  H
  C73      1.0000 0.91335  0.08590  0.26120  Biso   1.000  C
  C74      1.0000 0.41335  0.58590  0.26120  Biso   1.000  C
  C75      1.0000 0.08665  0.08590  0.23880  Biso   1.000  C
  C76      1.0000 0.58665  0.58590  0.23880  Biso   1.000  C
  C77      1.0000 0.08665  0.91410  0.73880  Biso   1.000  C
  C78      1.0000 0.58665  0.41410  0.73880  Biso   1.000  C
  C79      1.0000 0.91335  0.91410  0.76120  Biso   1.000  C
  C80      1.0000 0.41335  0.41410  0.76120  Biso   1.000  C
  H41      1.0000 0.91150  0.15360  0.27930  Biso   1.000  H
  H42      1.0000 0.41150  0.65360  0.27930  Biso   1.000  H
  H43      1.0000 0.08850  0.15360  0.22070  Biso   1.000  H
  H44      1.0000 0.58850  0.65360  0.22070  Biso   1.000  H
  H45      1.0000 0.08850  0.84640  0.72070  Biso   1.000  H
  H46      1.0000 0.58850  0.34640  0.72070  Biso   1.000  H
  H47      1.0000 0.91150  0.84640  0.77930  Biso   1.000  H
  H48      1.0000 0.41150  0.34640  0.77930  Biso   1.000  H
  C81      1.0000 0.80679  0.66820  0.84420  Biso   1.000  C
  C82      1.0000 0.30679  0.16820  0.84420  Biso   1.000  C
  C83      1.0000 0.19321  0.66820  0.65580  Biso   1.000  C
  C84      1.0000 0.69321  0.16820  0.65580  Biso   1.000  C
  C85      1.0000 0.19321  0.33180  0.15580  Biso   1.000  C
  C86      1.0000 0.69321  0.83180  0.15580  Biso   1.000  C
  C87      1.0000 0.80679  0.33180  0.34420  Biso   1.000  C
  C88      1.0000 0.30679  0.83180  0.34420  Biso   1.000  C
  H49      1.0000 0.81790  0.61980  0.77890  Biso   1.000  H
  H50      1.0000 0.31790  0.11980  0.77890  Biso   1.000  H
  H51      1.0000 0.18210  0.61980  0.72110  Biso   1.000  H
  H52      1.0000 0.68210  0.11980  0.72110  Biso   1.000  H
  H53      1.0000 0.18210  0.38020  0.22110  Biso   1.000  H
  H54      1.0000 0.68210  0.88020  0.22110  Biso   1.000  H
  H55      1.0000 0.81790  0.38020  0.27890  Biso   1.000  H
  H56      1.0000 0.31790  0.88020  0.27890  Biso   1.000  H
  H57      1.0000 0.78370  0.63680  0.89320  Biso   1.000  H
  H58      1.0000 0.28370  0.13680  0.89320  Biso   1.000  H
  H59      1.0000 0.21630  0.63680  0.60680  Biso   1.000  H
  H60      1.0000 0.71630  0.13680  0.60680  Biso   1.000  H
  H61      1.0000 0.21630  0.36320  0.10680  Biso   1.000  H
  H62      1.0000 0.71630  0.86320  0.10680  Biso   1.000  H
  H63      1.0000 0.78370  0.36320  0.39320  Biso   1.000  H
  H64      1.0000 0.28370  0.86320  0.39320  Biso   1.000  H
  N17      1.0000 0.88586  0.02480  0.32060  Biso   1.000  N
  N18      1.0000 0.38586  0.52480  0.32060  Biso   1.000  N
  N19      1.0000 0.11414  0.02480  0.17940  Biso   1.000  N
  N20      1.0000 0.61414  0.52480  0.17940  Biso   1.000  N
  N21      1.0000 0.11414  0.97520  0.67940  Biso   1.000  N
  N22      1.0000 0.61414  0.47520  0.67940  Biso   1.000  N
  N23      1.0000 0.88586  0.97520  0.82060  Biso   1.000  N
  N24      1.0000 0.38586  0.47520  0.82060  Biso   1.000  N
  C89      1.0000 0.72820  0.87650  0.68740  Biso   1.000  C
  C90      1.0000 0.22820  0.37650  0.68740  Biso   1.000  C
  C91      1.0000 0.27180  0.87650  0.81260  Biso   1.000  C
  C92      1.0000 0.77180  0.37650  0.81260  Biso   1.000  C
  C93      1.0000 0.27180  0.12350  0.31260  Biso   1.000  C
  C94      1.0000 0.77180  0.62350  0.31260  Biso   1.000  C
  C95      1.0000 0.72820  0.12350  0.18740  Biso   1.000  C
  C96      1.0000 0.22820  0.62350  0.18740  Biso   1.000  C
  H65      1.0000 0.70060  0.90390  0.70210  Biso   1.000  H
  H66      1.0000 0.20060  0.40390  0.70210  Biso   1.000  H
  H67      1.0000 0.29940  0.90390  0.79790  Biso   1.000  H
  H68      1.0000 0.79940  0.40390  0.79790  Biso   1.000  H
  H69      1.0000 0.29940  0.09610  0.29790  Biso   1.000  H
  H70      1.0000 0.79940  0.59610  0.29790  Biso   1.000  H
  H71      1.0000 0.70060  0.09610  0.20210  Biso   1.000  H
  H72      1.0000 0.20060  0.59610  0.20210  Biso   1.000  H
  C97      1.0000 0.94795  0.95310  0.15990  Biso   1.000  C
  C98      1.0000 0.44795  0.45310  0.15990  Biso   1.000  C
  C99      1.0000 0.05205  0.95310  0.34010  Biso   1.000  C
  C100     1.0000 0.55205  0.45310  0.34010  Biso   1.000  C
  C101     1.0000 0.05205  0.04690  0.84010  Biso   1.000  C
  C102     1.0000 0.55205  0.54690  0.84010  Biso   1.000  C
  C103     1.0000 0.94795  0.04690  0.65990  Biso   1.000  C
  C104     1.0000 0.44795  0.54690  0.65990  Biso   1.000  C
  H73      1.0000 0.96920  0.92910  0.10350  Biso   1.000  H
  H74      1.0000 0.46920  0.42910  0.10350  Biso   1.000  H
  H75      1.0000 0.03080  0.92910  0.39650  Biso   1.000  H
  H76      1.0000 0.53080  0.42910  0.39650  Biso   1.000  H
  H77      1.0000 0.03080  0.07090  0.89650  Biso   1.000  H
  H78      1.0000 0.53080  0.57090  0.89650  Biso   1.000  H
  H79      1.0000 0.96920  0.07090  0.60350  Biso   1.000  H
  H80      1.0000 0.46920  0.57090  0.60350  Biso   1.000  H
  C105     1.0000 0.94392  0.05360  0.17540  Biso   1.000  C
  C106     1.0000 0.44392  0.55360  0.17540  Biso   1.000  C
  C107     1.0000 0.05608  0.05360  0.32460  Biso   1.000  C
  C108     1.0000 0.55608  0.55360  0.32460  Biso   1.000  C
  C109     1.0000 0.05608  0.94640  0.82460  Biso   1.000  C
  C110     1.0000 0.55608  0.44640  0.82460  Biso   1.000  C
  C111     1.0000 0.94392  0.94640  0.67540  Biso   1.000  C
  C112     1.0000 0.44392  0.44640  0.67540  Biso   1.000  C
  H81      1.0000 0.96140  0.09770  0.12910  Biso   1.000  H
  H82      1.0000 0.46140  0.59770  0.12910  Biso   1.000  H
  H83      1.0000 0.03860  0.09770  0.37090  Biso   1.000  H
  H84      1.0000 0.53860  0.59770  0.37090  Biso   1.000  H
  H85      1.0000 0.03860  0.90230  0.87090  Biso   1.000  H
  H86      1.0000 0.53860  0.40230  0.87090  Biso   1.000  H
  H87      1.0000 0.96140  0.90230  0.62910  Biso   1.000  H
  H88      1.0000 0.46140  0.40230  0.62910  Biso   1.000  H
  C113     1.0000 0.88213  0.43310  0.06360  Biso   1.000  C
  C114     1.0000 0.38213  0.93310  0.06360  Biso   1.000  C
  C115     1.0000 0.11787  0.43310  0.43640  Biso   1.000  C
  C116     1.0000 0.61787  0.93310  0.43640  Biso   1.000  C
  C117     1.0000 0.11787  0.56690  0.93640  Biso   1.000  C
  C118     1.0000 0.61787  0.06690  0.93640  Biso   1.000  C
  C119     1.0000 0.88213  0.56690  0.56360  Biso   1.000  C
  C120     1.0000 0.38213  0.06690  0.56360  Biso   1.000  C
  H89      1.0000 0.87270  0.37170  0.02240  Biso   1.000  H
  H90      1.0000 0.37270  0.87170  0.02240  Biso   1.000  H
  H91      1.0000 0.12730  0.37170  0.47760  Biso   1.000  H
  H92      1.0000 0.62730  0.87170  0.47760  Biso   1.000  H
  H93      1.0000 0.12730  0.62830  0.97760  Biso   1.000  H
  H94      1.0000 0.62730  0.12830  0.97760  Biso   1.000  H
  H95      1.0000 0.87270  0.62830  0.52240  Biso   1.000  H
  H96      1.0000 0.37270  0.12830  0.52240  Biso   1.000  H
  N25      1.0000 0.92269  0.88790  0.22220  Biso   1.000  N
  N26      1.0000 0.42269  0.38790  0.22220  Biso   1.000  N
  N27      1.0000 0.07731  0.88790  0.27780  Biso   1.000  N
  N28      1.0000 0.57731  0.38790  0.27780  Biso   1.000  N
  N29      1.0000 0.07731  0.11210  0.77780  Biso   1.000  N
  N30      1.0000 0.57731  0.61210  0.77780  Biso   1.000  N
  N31      1.0000 0.92269  0.11210  0.72220  Biso   1.000  N
  N32      1.0000 0.42269  0.61210  0.72220  Biso   1.000  N
  C121     1.0000 0.81813  0.92730  0.44660  Biso   1.000  C
  C122     1.0000 0.31813  0.42730  0.44660  Biso   1.000  C
  C123     1.0000 0.18187  0.92730  0.05340  Biso   1.000  C
  C124     1.0000 0.68187  0.42730  0.05340  Biso   1.000  C
  C125     1.0000 0.18187  0.07270  0.55340  Biso   1.000  C
  C126     1.0000 0.68187  0.57270  0.55340  Biso   1.000  C
  C127     1.0000 0.81813  0.07270  0.94660  Biso   1.000  C
  C128     1.0000 0.31813  0.57270  0.94660  Biso   1.000  C
  H97      1.0000 0.83600  0.98120  0.49760  Biso   1.000  H
  H98      1.0000 0.33600  0.48120  0.49760  Biso   1.000  H
  H99      1.0000 0.16400  0.98120  0.00240  Biso   1.000  H
  H100     1.0000 0.66400  0.48120  0.00240  Biso   1.000  H
  H101     1.0000 0.16400  0.01880  0.50240  Biso   1.000  H
  H102     1.0000 0.66400  0.51880  0.50240  Biso   1.000  H
  H103     1.0000 0.83600  0.01880  0.99760  Biso   1.000  H
  H104     1.0000 0.33600  0.51880  0.99760  Biso   1.000  H
  H105     1.0000 0.79650  0.95580  0.36530  Biso   1.000  H
  H106     1.0000 0.29650  0.45580  0.36530  Biso   1.000  H
  H107     1.0000 0.20350  0.95580  0.13470  Biso   1.000  H
  H108     1.0000 0.70350  0.45580  0.13470  Biso   1.000  H
  H109     1.0000 0.20350  0.04420  0.63470  Biso   1.000  H
  H110     1.0000 0.70350  0.54420  0.63470  Biso   1.000  H
  H111     1.0000 0.79650  0.04420  0.86530  Biso   1.000  H
  H112     1.0000 0.29650  0.54420  0.86530  Biso   1.000  H
