data_image0
_cell_length_a       29.83
_cell_length_b       13.1418
_cell_length_c       8.784
_cell_angle_alpha    90
_cell_angle_beta     98.868
_cell_angle_gamma    90

_symmetry_space_group_name_H-M    "P 1"
_symmetry_int_tables_number       1

loop_
  _symmetry_equiv_pos_as_xyz
  'x, y, z'

loop_
  _atom_site_label
  _atom_site_occupancy
  _atom_site_fract_x
  _atom_site_fract_y
  _atom_site_fract_z
  _atom_site_thermal_displace_type
  _atom_site_B_iso_or_equiv
  _atom_site_type_symbol
  N1       1.0000 0.91509  0.10890  0.18430  Biso   1.000  N
  N2       1.0000 0.41509  0.60890  0.18430  Biso   1.000  N
  N3       1.0000 0.08491  0.10890  0.31570  Biso   1.000  N
  N4       1.0000 0.58491  0.60890  0.31570  Biso   1.000  N
  N5       1.0000 0.08491  0.89110  0.81570  Biso   1.000  N
  N6       1.0000 0.58491  0.39110  0.81570  Biso   1.000  N
  N7       1.0000 0.91509  0.89110  0.68430  Biso   1.000  N
  N8       1.0000 0.41509  0.39110  0.68430  Biso   1.000  N
  N9       1.0000 0.92405  0.39266  0.22291  Biso   1.000  N
  N10      1.0000 0.42405  0.89266  0.22291  Biso   1.000  N
  N11      1.0000 0.07595  0.39266  0.27709  Biso   1.000  N
  N12      1.0000 0.57595  0.89266  0.27709  Biso   1.000  N
  N13      1.0000 0.07595  0.60734  0.77709  Biso   1.000  N
  N14      1.0000 0.57595  0.10734  0.77709  Biso   1.000  N
  N15      1.0000 0.92405  0.60734  0.72291  Biso   1.000  N
  N16      1.0000 0.42405  0.10734  0.72291  Biso   1.000  N
  Cu1      1.0000 0.94186  0.24667  0.23220  Biso   1.000  Cu
  Cu2      1.0000 0.44186  0.74667  0.23220  Biso   1.000  Cu
  Cu3      1.0000 0.05814  0.24667  0.26780  Biso   1.000  Cu
  Cu4      1.0000 0.55814  0.74667  0.26780  Biso   1.000  Cu
  Cu5      1.0000 0.05814  0.75333  0.76780  Biso   1.000  Cu
  Cu6      1.0000 0.55814  0.25333  0.76780  Biso   1.000  Cu
  Cu7      1.0000 0.94186  0.75333  0.73220  Biso   1.000  Cu
  Cu8      1.0000 0.44186  0.25333  0.73220  Biso   1.000  Cu
  Br1      1.0000 0.99980  0.22822  0.02594  Biso   1.000  Br
  Br2      1.0000 0.49980  0.72822  0.02594  Biso   1.000  Br
  Br3      1.0000 0.00020  0.22822  0.47406  Biso   1.000  Br
  Br4      1.0000 0.50020  0.72822  0.47406  Biso   1.000  Br
  Br5      1.0000 0.00020  0.77178  0.97406  Biso   1.000  Br
  Br6      1.0000 0.50020  0.27178  0.97406  Biso   1.000  Br
  Br7      1.0000 0.99980  0.77178  0.52594  Biso   1.000  Br
  Br8      1.0000 0.49980  0.27178  0.52594  Biso   1.000  Br
  S1       1.0000 0.85547  0.20721  0.99061  Biso   1.000  S
  S2       1.0000 0.35547  0.70721  0.99061  Biso   1.000  S
  S3       1.0000 0.14453  0.20721  0.50939  Biso   1.000  S
  S4       1.0000 0.64453  0.70721  0.50939  Biso   1.000  S
  S5       1.0000 0.14453  0.79279  0.00939  Biso   1.000  S
  S6       1.0000 0.64453  0.29279  0.00939  Biso   1.000  S
  S7       1.0000 0.85547  0.79279  0.49061  Biso   1.000  S
  S8       1.0000 0.35547  0.29279  0.49061  Biso   1.000  S
  S9       1.0000 0.85608  0.34749  0.36673  Biso   1.000  S
  S10      1.0000 0.35608  0.84749  0.36673  Biso   1.000  S
  S11      1.0000 0.14392  0.34749  0.13327  Biso   1.000  S
  S12      1.0000 0.64392  0.84749  0.13327  Biso   1.000  S
  S13      1.0000 0.14392  0.65251  0.63327  Biso   1.000  S
  S14      1.0000 0.64392  0.15251  0.63327  Biso   1.000  S
  S15      1.0000 0.85608  0.65251  0.86673  Biso   1.000  S
  S16      1.0000 0.35608  0.15251  0.86673  Biso   1.000  S
  N17      1.0000 0.86688  0.00500  0.00780  Biso   1.000  N
  N18      1.0000 0.36688  0.50500  0.00780  Biso   1.000  N
  N19      1.0000 0.13312  0.00500  0.49220  Biso   1.000  N
  N20      1.0000 0.63312  0.50500  0.49220  Biso   1.000  N
  N21      1.0000 0.13312  0.99500  0.99220  Biso   1.000  N
  N22      1.0000 0.63312  0.49500  0.99220  Biso   1.000  N
  N23      1.0000 0.86688  0.99500  0.50780  Biso   1.000  N
  N24      1.0000 0.36688  0.49500  0.50780  Biso   1.000  N
  C1       1.0000 0.89263  0.43487  0.29920  Biso   1.000  C
  C2       1.0000 0.39263  0.93487  0.29920  Biso   1.000  C
  C3       1.0000 0.10737  0.43487  0.20080  Biso   1.000  C
  C4       1.0000 0.60737  0.93487  0.20080  Biso   1.000  C
  C5       1.0000 0.10737  0.56513  0.70080  Biso   1.000  C
  C6       1.0000 0.60737  0.06513  0.70080  Biso   1.000  C
  C7       1.0000 0.89263  0.56513  0.79920  Biso   1.000  C
  C8       1.0000 0.39263  0.06513  0.79920  Biso   1.000  C
  N25      1.0000 0.88772  0.53319  0.32490  Biso   1.000  N
  N26      1.0000 0.38772  0.03319  0.32490  Biso   1.000  N
  N27      1.0000 0.11228  0.53319  0.17510  Biso   1.000  N
  N28      1.0000 0.61228  0.03319  0.17510  Biso   1.000  N
  N29      1.0000 0.11228  0.46681  0.67510  Biso   1.000  N
  N30      1.0000 0.61228  0.96681  0.67510  Biso   1.000  N
  N31      1.0000 0.88772  0.46681  0.82490  Biso   1.000  N
  N32      1.0000 0.38772  0.96681  0.82490  Biso   1.000  N
  C9       1.0000 0.78818  0.24973  0.75830  Biso   1.000  C
  C10      1.0000 0.28818  0.74973  0.75830  Biso   1.000  C
  C11      1.0000 0.21182  0.24973  0.74170  Biso   1.000  C
  C12      1.0000 0.71182  0.74973  0.74170  Biso   1.000  C
  C13      1.0000 0.21182  0.75027  0.24170  Biso   1.000  C
  C14      1.0000 0.71182  0.25027  0.24170  Biso   1.000  C
  C15      1.0000 0.78818  0.75027  0.25830  Biso   1.000  C
  C16      1.0000 0.28818  0.25027  0.25830  Biso   1.000  C
  C17      1.0000 0.79300  0.37687  0.56230  Biso   1.000  C
  C18      1.0000 0.29300  0.87687  0.56230  Biso   1.000  C
  C19      1.0000 0.20700  0.37687  0.93770  Biso   1.000  C
  C20      1.0000 0.70700  0.87687  0.93770  Biso   1.000  C
  C21      1.0000 0.20700  0.62313  0.43770  Biso   1.000  C
  C22      1.0000 0.70700  0.12313  0.43770  Biso   1.000  C
  C23      1.0000 0.79300  0.62313  0.06230  Biso   1.000  C
  C24      1.0000 0.29300  0.12313  0.06230  Biso   1.000  C
  C25      1.0000 0.81116  0.29636  0.65210  Biso   1.000  C
  C26      1.0000 0.31116  0.79636  0.65210  Biso   1.000  C
  C27      1.0000 0.18884  0.29636  0.84790  Biso   1.000  C
  C28      1.0000 0.68884  0.79636  0.84790  Biso   1.000  C
  C29      1.0000 0.18884  0.70364  0.34790  Biso   1.000  C
  C30      1.0000 0.68884  0.20364  0.34790  Biso   1.000  C
  C31      1.0000 0.81116  0.70364  0.15210  Biso   1.000  C
  C32      1.0000 0.31116  0.20364  0.15210  Biso   1.000  C
  H1       1.0000 0.83980  0.27260  0.64090  Biso   1.000  H
  H2       1.0000 0.33980  0.77260  0.64090  Biso   1.000  H
  H3       1.0000 0.16020  0.27260  0.85910  Biso   1.000  H
  H4       1.0000 0.66020  0.77260  0.85910  Biso   1.000  H
  H5       1.0000 0.16020  0.72740  0.35910  Biso   1.000  H
  H6       1.0000 0.66020  0.22740  0.35910  Biso   1.000  H
  H7       1.0000 0.83980  0.72740  0.14090  Biso   1.000  H
  H8       1.0000 0.33980  0.22740  0.14090  Biso   1.000  H
  C33      1.0000 0.88103  0.09434  0.06780  Biso   1.000  C
  C34      1.0000 0.38103  0.59434  0.06780  Biso   1.000  C
  C35      1.0000 0.11897  0.09434  0.43220  Biso   1.000  C
  C36      1.0000 0.61897  0.59434  0.43220  Biso   1.000  C
  C37      1.0000 0.11897  0.90566  0.93220  Biso   1.000  C
  C38      1.0000 0.61897  0.40566  0.93220  Biso   1.000  C
  C39      1.0000 0.88103  0.90566  0.56780  Biso   1.000  C
  C40      1.0000 0.38103  0.40566  0.56780  Biso   1.000  C
  C41      1.0000 0.81900  0.43239  0.45320  Biso   1.000  C
  C42      1.0000 0.31900  0.93239  0.45320  Biso   1.000  C
  C43      1.0000 0.18100  0.43239  0.04680  Biso   1.000  C
  C44      1.0000 0.68100  0.93239  0.04680  Biso   1.000  C
  C45      1.0000 0.18100  0.56761  0.54680  Biso   1.000  C
  C46      1.0000 0.68100  0.06761  0.54680  Biso   1.000  C
  C47      1.0000 0.81900  0.56761  0.95320  Biso   1.000  C
  C48      1.0000 0.31900  0.06761  0.95320  Biso   1.000  C
  H9       1.0000 0.83700  0.48590  0.50880  Biso   1.000  H
  H10      1.0000 0.33700  0.98590  0.50880  Biso   1.000  H
  H11      1.0000 0.16300  0.48590  0.99120  Biso   1.000  H
  H12      1.0000 0.66300  0.98590  0.99120  Biso   1.000  H
  H13      1.0000 0.16300  0.51410  0.49120  Biso   1.000  H
  H14      1.0000 0.66300  0.01410  0.49120  Biso   1.000  H
  H15      1.0000 0.83700  0.51410  0.00880  Biso   1.000  H
  H16      1.0000 0.33700  0.01410  0.00880  Biso   1.000  H
  H17      1.0000 0.79770  0.46400  0.37240  Biso   1.000  H
  H18      1.0000 0.29770  0.96400  0.37240  Biso   1.000  H
  H19      1.0000 0.20230  0.46400  0.12760  Biso   1.000  H
  H20      1.0000 0.70230  0.96400  0.12760  Biso   1.000  H
  H21      1.0000 0.20230  0.53600  0.62760  Biso   1.000  H
  H22      1.0000 0.70230  0.03600  0.62760  Biso   1.000  H
  H23      1.0000 0.79770  0.53600  0.87240  Biso   1.000  H
  H24      1.0000 0.29770  0.03600  0.87240  Biso   1.000  H
  C49      1.0000 0.75000  0.41111  0.58010  Biso   1.000  C
  C50      1.0000 0.25000  0.91111  0.58010  Biso   1.000  C
  C51      1.0000 0.25000  0.41111  0.91990  Biso   1.000  C
  C52      1.0000 0.75000  0.91111  0.91990  Biso   1.000  C
  C53      1.0000 0.25000  0.58889  0.41990  Biso   1.000  C
  C54      1.0000 0.75000  0.08889  0.41990  Biso   1.000  C
  C55      1.0000 0.75000  0.58889  0.08010  Biso   1.000  C
  C56      1.0000 0.25000  0.08889  0.08010  Biso   1.000  C
  H25      1.0000 0.73670  0.46420  0.51920  Biso   1.000  H
  H26      1.0000 0.23670  0.96420  0.51920  Biso   1.000  H
  H27      1.0000 0.26330  0.46420  0.98080  Biso   1.000  H
  H28      1.0000 0.76330  0.96420  0.98080  Biso   1.000  H
  H29      1.0000 0.26330  0.53580  0.48080  Biso   1.000  H
  H30      1.0000 0.76330  0.03580  0.48080  Biso   1.000  H
  H31      1.0000 0.73670  0.53580  0.01920  Biso   1.000  H
  H32      1.0000 0.23670  0.03580  0.01920  Biso   1.000  H
  C57      1.0000 0.94954  0.45884  0.15820  Biso   1.000  C
  C58      1.0000 0.44954  0.95884  0.15820  Biso   1.000  C
  C59      1.0000 0.05046  0.45884  0.34180  Biso   1.000  C
  C60      1.0000 0.55046  0.95884  0.34180  Biso   1.000  C
  C61      1.0000 0.05046  0.54116  0.84180  Biso   1.000  C
  C62      1.0000 0.55046  0.04116  0.84180  Biso   1.000  C
  C63      1.0000 0.94954  0.54116  0.65820  Biso   1.000  C
  C64      1.0000 0.44954  0.04116  0.65820  Biso   1.000  C
  H33      1.0000 0.97060  0.43380  0.09970  Biso   1.000  H
  H34      1.0000 0.47060  0.93380  0.09970  Biso   1.000  H
  H35      1.0000 0.02940  0.43380  0.40030  Biso   1.000  H
  H36      1.0000 0.52940  0.93380  0.40030  Biso   1.000  H
  H37      1.0000 0.02940  0.56620  0.90030  Biso   1.000  H
  H38      1.0000 0.52940  0.06620  0.90030  Biso   1.000  H
  H39      1.0000 0.97060  0.56620  0.59970  Biso   1.000  H
  H40      1.0000 0.47060  0.06620  0.59970  Biso   1.000  H
  C65      1.0000 0.91526  0.59602  0.26460  Biso   1.000  C
  C66      1.0000 0.41526  0.09602  0.26460  Biso   1.000  C
  C67      1.0000 0.08474  0.59602  0.23540  Biso   1.000  C
  C68      1.0000 0.58474  0.09602  0.23540  Biso   1.000  C
  C69      1.0000 0.08474  0.40398  0.73540  Biso   1.000  C
  C70      1.0000 0.58474  0.90398  0.73540  Biso   1.000  C
  C71      1.0000 0.91526  0.40398  0.76460  Biso   1.000  C
  C72      1.0000 0.41526  0.90398  0.76460  Biso   1.000  C
  H41      1.0000 0.91360  0.66530  0.28420  Biso   1.000  H
  H42      1.0000 0.41360  0.16530  0.28420  Biso   1.000  H
  H43      1.0000 0.08640  0.66530  0.21580  Biso   1.000  H
  H44      1.0000 0.58640  0.16530  0.21580  Biso   1.000  H
  H45      1.0000 0.08640  0.33470  0.71580  Biso   1.000  H
  H46      1.0000 0.58640  0.83470  0.71580  Biso   1.000  H
  H47      1.0000 0.91360  0.33470  0.78420  Biso   1.000  H
  H48      1.0000 0.41360  0.83470  0.78420  Biso   1.000  H
  C73      1.0000 0.80915  0.16018  0.84990  Biso   1.000  C
  C74      1.0000 0.30915  0.66018  0.84990  Biso   1.000  C
  C75      1.0000 0.19085  0.16018  0.65010  Biso   1.000  C
  C76      1.0000 0.69085  0.66018  0.65010  Biso   1.000  C
  C77      1.0000 0.19085  0.83982  0.15010  Biso   1.000  C
  C78      1.0000 0.69085  0.33982  0.15010  Biso   1.000  C
  C79      1.0000 0.80915  0.83982  0.34990  Biso   1.000  C
  C80      1.0000 0.30915  0.33982  0.34990  Biso   1.000  C
  H49      1.0000 0.82040  0.11130  0.78220  Biso   1.000  H
  H50      1.0000 0.32040  0.61130  0.78220  Biso   1.000  H
  H51      1.0000 0.17960  0.11130  0.71780  Biso   1.000  H
  H52      1.0000 0.67960  0.61130  0.71780  Biso   1.000  H
  H53      1.0000 0.17960  0.88870  0.21780  Biso   1.000  H
  H54      1.0000 0.67960  0.38870  0.21780  Biso   1.000  H
  H55      1.0000 0.82040  0.88870  0.28220  Biso   1.000  H
  H56      1.0000 0.32040  0.38870  0.28220  Biso   1.000  H
  H57      1.0000 0.78670  0.12670  0.90160  Biso   1.000  H
  H58      1.0000 0.28670  0.62670  0.90160  Biso   1.000  H
  H59      1.0000 0.21330  0.12670  0.59840  Biso   1.000  H
  H60      1.0000 0.71330  0.62670  0.59840  Biso   1.000  H
  H61      1.0000 0.21330  0.87330  0.09840  Biso   1.000  H
  H62      1.0000 0.71330  0.37330  0.09840  Biso   1.000  H
  H63      1.0000 0.78670  0.87330  0.40160  Biso   1.000  H
  H64      1.0000 0.28670  0.37330  0.40160  Biso   1.000  H
  C81      1.0000 0.93656  0.02536  0.24500  Biso   1.000  C
  C82      1.0000 0.43656  0.52536  0.24500  Biso   1.000  C
  C83      1.0000 0.06344  0.02536  0.25500  Biso   1.000  C
  C84      1.0000 0.56344  0.52536  0.25500  Biso   1.000  C
  C85      1.0000 0.06344  0.97464  0.75500  Biso   1.000  C
  C86      1.0000 0.56344  0.47464  0.75500  Biso   1.000  C
  C87      1.0000 0.93656  0.97464  0.74500  Biso   1.000  C
  C88      1.0000 0.43656  0.47464  0.74500  Biso   1.000  C
  H65      1.0000 0.96010  0.03220  0.32710  Biso   1.000  H
  H66      1.0000 0.46010  0.53220  0.32710  Biso   1.000  H
  H67      1.0000 0.03990  0.03220  0.17290  Biso   1.000  H
  H68      1.0000 0.53990  0.53220  0.17290  Biso   1.000  H
  H69      1.0000 0.03990  0.96780  0.67290  Biso   1.000  H
  H70      1.0000 0.53990  0.46780  0.67290  Biso   1.000  H
  H71      1.0000 0.96010  0.96780  0.82710  Biso   1.000  H
  H72      1.0000 0.46010  0.46780  0.82710  Biso   1.000  H
  C89      1.0000 0.74589  0.28640  0.77680  Biso   1.000  C
  C90      1.0000 0.24589  0.78640  0.77680  Biso   1.000  C
  C91      1.0000 0.25411  0.28640  0.72320  Biso   1.000  C
  C92      1.0000 0.75411  0.78640  0.72320  Biso   1.000  C
  C93      1.0000 0.25411  0.71360  0.22320  Biso   1.000  C
  C94      1.0000 0.75411  0.21360  0.22320  Biso   1.000  C
  C95      1.0000 0.74589  0.71360  0.27680  Biso   1.000  C
  C96      1.0000 0.24589  0.21360  0.27680  Biso   1.000  C
  H73      1.0000 0.73010  0.25710  0.84920  Biso   1.000  H
  H74      1.0000 0.23010  0.75710  0.84920  Biso   1.000  H
  H75      1.0000 0.26990  0.25710  0.65080  Biso   1.000  H
  H76      1.0000 0.76990  0.75710  0.65080  Biso   1.000  H
  H77      1.0000 0.26990  0.74290  0.15080  Biso   1.000  H
  H78      1.0000 0.76990  0.24290  0.15080  Biso   1.000  H
  H79      1.0000 0.73010  0.74290  0.34920  Biso   1.000  H
  H80      1.0000 0.23010  0.24290  0.34920  Biso   1.000  H
  C97      1.0000 0.89006  0.92402  0.06920  Biso   1.000  C
  C98      1.0000 0.39006  0.42402  0.06920  Biso   1.000  C
  C99      1.0000 0.10994  0.92402  0.43080  Biso   1.000  C
  C100     1.0000 0.60994  0.42402  0.43080  Biso   1.000  C
  C101     1.0000 0.10994  0.07598  0.93080  Biso   1.000  C
  C102     1.0000 0.60994  0.57598  0.93080  Biso   1.000  C
  C103     1.0000 0.89006  0.07598  0.56920  Biso   1.000  C
  C104     1.0000 0.39006  0.57598  0.56920  Biso   1.000  C
  H81      1.0000 0.88200  0.86030  0.02780  Biso   1.000  H
  H82      1.0000 0.38200  0.36030  0.02780  Biso   1.000  H
  H83      1.0000 0.11800  0.86030  0.47220  Biso   1.000  H
  H84      1.0000 0.61800  0.36030  0.47220  Biso   1.000  H
  H85      1.0000 0.11800  0.13970  0.97220  Biso   1.000  H
  H86      1.0000 0.61800  0.63970  0.97220  Biso   1.000  H
  H87      1.0000 0.88200  0.13970  0.52780  Biso   1.000  H
  H88      1.0000 0.38200  0.63970  0.52780  Biso   1.000  H
  C105     1.0000 0.94587  0.56276  0.17490  Biso   1.000  C
  C106     1.0000 0.44587  0.06276  0.17490  Biso   1.000  C
  C107     1.0000 0.05413  0.56276  0.32510  Biso   1.000  C
  C108     1.0000 0.55413  0.06276  0.32510  Biso   1.000  C
  C109     1.0000 0.05413  0.43724  0.82510  Biso   1.000  C
  C110     1.0000 0.55413  0.93724  0.82510  Biso   1.000  C
  C111     1.0000 0.94587  0.43724  0.67490  Biso   1.000  C
  C112     1.0000 0.44587  0.93724  0.67490  Biso   1.000  C
  H89      1.0000 0.96340  0.60790  0.12750  Biso   1.000  H
  H90      1.0000 0.46340  0.10790  0.12750  Biso   1.000  H
  H91      1.0000 0.03660  0.60790  0.37250  Biso   1.000  H
  H92      1.0000 0.53660  0.10790  0.37250  Biso   1.000  H
  H93      1.0000 0.03660  0.39210  0.87250  Biso   1.000  H
  H94      1.0000 0.53660  0.89210  0.87250  Biso   1.000  H
  H95      1.0000 0.96340  0.39210  0.62750  Biso   1.000  H
  H96      1.0000 0.46340  0.89210  0.62750  Biso   1.000  H
  C113     1.0000 0.92479  0.92999  0.18910  Biso   1.000  C
  C114     1.0000 0.42479  0.42999  0.18910  Biso   1.000  C
  C115     1.0000 0.07521  0.92999  0.31090  Biso   1.000  C
  C116     1.0000 0.57521  0.42999  0.31090  Biso   1.000  C
  C117     1.0000 0.07521  0.07001  0.81090  Biso   1.000  C
  C118     1.0000 0.57521  0.57001  0.81090  Biso   1.000  C
  C119     1.0000 0.92479  0.07001  0.68910  Biso   1.000  C
  C120     1.0000 0.42479  0.57001  0.68910  Biso   1.000  C
  H97      1.0000 0.93980  0.87210  0.23120  Biso   1.000  H
  H98      1.0000 0.43980  0.37210  0.23120  Biso   1.000  H
  H99      1.0000 0.06020  0.87210  0.26880  Biso   1.000  H
  H100     1.0000 0.56020  0.37210  0.26880  Biso   1.000  H
  H101     1.0000 0.06020  0.12790  0.76880  Biso   1.000  H
  H102     1.0000 0.56020  0.62790  0.76880  Biso   1.000  H
  H103     1.0000 0.93980  0.12790  0.73120  Biso   1.000  H
  H104     1.0000 0.43980  0.62790  0.73120  Biso   1.000  H
  C121     1.0000 0.72705  0.36710  0.68690  Biso   1.000  C
  C122     1.0000 0.22705  0.86710  0.68690  Biso   1.000  C
  C123     1.0000 0.27295  0.36710  0.81310  Biso   1.000  C
  C124     1.0000 0.77295  0.86710  0.81310  Biso   1.000  C
  C125     1.0000 0.27295  0.63290  0.31310  Biso   1.000  C
  C126     1.0000 0.77295  0.13290  0.31310  Biso   1.000  C
  C127     1.0000 0.72705  0.63290  0.18690  Biso   1.000  C
  C128     1.0000 0.22705  0.13290  0.18690  Biso   1.000  C
  H105     1.0000 0.69860  0.39150  0.69920  Biso   1.000  H
  H106     1.0000 0.19860  0.89150  0.69920  Biso   1.000  H
  H107     1.0000 0.30140  0.39150  0.80080  Biso   1.000  H
  H108     1.0000 0.80140  0.89150  0.80080  Biso   1.000  H
  H109     1.0000 0.30140  0.60850  0.30080  Biso   1.000  H
  H110     1.0000 0.80140  0.10850  0.30080  Biso   1.000  H
  H111     1.0000 0.69860  0.60850  0.19920  Biso   1.000  H
  H112     1.0000 0.19860  0.10850  0.19920  Biso   1.000  H
