data_image0
_cell_length_a       12.3143
_cell_length_b       4.8205
_cell_length_c       28.265
_cell_angle_alpha    90
_cell_angle_beta     90
_cell_angle_gamma    90

_symmetry_space_group_name_H-M    "P 1"
_symmetry_int_tables_number       1

loop_
  _symmetry_equiv_pos_as_xyz
  'x, y, z'

loop_
  _atom_site_label
  _atom_site_occupancy
  _atom_site_fract_x
  _atom_site_fract_y
  _atom_site_fract_z
  _atom_site_thermal_displace_type
  _atom_site_B_iso_or_equiv
  _atom_site_type_symbol
  C1       1.0000 0.08520  0.81200  0.52460  Biso   1.000  C
  C2       1.0000 0.91480  0.18800  0.02460  Biso   1.000  C
  C3       1.0000 0.58520  0.18800  0.52460  Biso   1.000  C
  C4       1.0000 0.41480  0.81200  0.02460  Biso   1.000  C
  Cu1      1.0000 0.22278  0.72920  0.63192  Biso   1.000  Cu
  Cu2      1.0000 0.77722  0.27080  0.13192  Biso   1.000  Cu
  Cu3      1.0000 0.72278  0.27080  0.63192  Biso   1.000  Cu
  Cu4      1.0000 0.27722  0.72920  0.13192  Biso   1.000  Cu
  S1       1.0000 0.18890  0.05080  0.51262  Biso   1.000  S
  S2       1.0000 0.81110  0.94920  0.01262  Biso   1.000  S
  S3       1.0000 0.68890  0.94920  0.51262  Biso   1.000  S
  S4       1.0000 0.31110  0.05080  0.01262  Biso   1.000  S
  S5       1.0000 0.30681  0.44540  0.25026  Biso   1.000  S
  S6       1.0000 0.69319  0.55460  0.75026  Biso   1.000  S
  S7       1.0000 0.80681  0.55460  0.25026  Biso   1.000  S
  S8       1.0000 0.19319  0.44540  0.75026  Biso   1.000  S
  C5       1.0000 0.28860  0.56360  0.34790  Biso   1.000  C
  C6       1.0000 0.71140  0.43640  0.84790  Biso   1.000  C
  C7       1.0000 0.78860  0.43640  0.34790  Biso   1.000  C
  C8       1.0000 0.21140  0.56360  0.84790  Biso   1.000  C
  C9       1.0000 0.20670  0.93680  0.41580  Biso   1.000  C
  C10      1.0000 0.79330  0.06320  0.91580  Biso   1.000  C
  C11      1.0000 0.70670  0.06320  0.41580  Biso   1.000  C
  C12      1.0000 0.29330  0.93680  0.91580  Biso   1.000  C
  N1       1.0000 0.48060  0.75830  0.27350  Biso   1.000  N
  N2       1.0000 0.51940  0.24170  0.77350  Biso   1.000  N
  N3       1.0000 0.98060  0.24170  0.27350  Biso   1.000  N
  N4       1.0000 0.01940  0.75830  0.77350  Biso   1.000  N
  N5       1.0000 0.01640  0.74060  0.49190  Biso   1.000  N
  N6       1.0000 0.98360  0.25940  0.99190  Biso   1.000  N
  N7       1.0000 0.51640  0.25940  0.49190  Biso   1.000  N
  N8       1.0000 0.48360  0.74060  0.99190  Biso   1.000  N
  C13      1.0000 0.31620  0.88870  0.41080  Biso   1.000  C
  C14      1.0000 0.68380  0.11130  0.91080  Biso   1.000  C
  C15      1.0000 0.81620  0.11130  0.41080  Biso   1.000  C
  C16      1.0000 0.18380  0.88870  0.91080  Biso   1.000  C
  H1       1.0000 0.36460  0.98150  0.43050  Biso   1.000  H
  H2       1.0000 0.63540  0.01850  0.93050  Biso   1.000  H
  H3       1.0000 0.86460  0.01850  0.43050  Biso   1.000  H
  H4       1.0000 0.13540  0.98150  0.93050  Biso   1.000  H
  C17      1.0000 0.17740  0.60780  0.35200  Biso   1.000  C
  C18      1.0000 0.82260  0.39220  0.85200  Biso   1.000  C
  C19      1.0000 0.67740  0.39220  0.35200  Biso   1.000  C
  C20      1.0000 0.32260  0.60780  0.85200  Biso   1.000  C
  H5       1.0000 0.13010  0.51230  0.33220  Biso   1.000  H
  H6       1.0000 0.86990  0.48770  0.83220  Biso   1.000  H
  H7       1.0000 0.63010  0.48770  0.33220  Biso   1.000  H
  H8       1.0000 0.36990  0.51230  0.83220  Biso   1.000  H
  N9       1.0000 0.08220  0.71590  0.56710  Biso   1.000  N
  N10      1.0000 0.91780  0.28410  0.06710  Biso   1.000  N
  N11      1.0000 0.58220  0.28410  0.56710  Biso   1.000  N
  N12      1.0000 0.41780  0.71590  0.06710  Biso   1.000  N
  N13      1.0000 0.40720  0.77580  0.19140  Biso   1.000  N
  N14      1.0000 0.59280  0.22420  0.69140  Biso   1.000  N
  N15      1.0000 0.90720  0.22420  0.19140  Biso   1.000  N
  N16      1.0000 0.09280  0.77580  0.69140  Biso   1.000  N
  C21      1.0000 0.13520  0.79410  0.38550  Biso   1.000  C
  C22      1.0000 0.86480  0.20590  0.88550  Biso   1.000  C
  C23      1.0000 0.63520  0.20590  0.38550  Biso   1.000  C
  C24      1.0000 0.36480  0.79410  0.88550  Biso   1.000  C
  H9       1.0000 0.06060  0.82280  0.38770  Biso   1.000  H
  H10      1.0000 0.93940  0.17720  0.88770  Biso   1.000  H
  H11      1.0000 0.56060  0.17720  0.38770  Biso   1.000  H
  H12      1.0000 0.43940  0.82280  0.88770  Biso   1.000  H
  C25      1.0000 0.35560  0.70880  0.37790  Biso   1.000  C
  C26      1.0000 0.64440  0.29120  0.87790  Biso   1.000  C
  C27      1.0000 0.85560  0.29120  0.37790  Biso   1.000  C
  C28      1.0000 0.14440  0.70880  0.87790  Biso   1.000  C
  H13      1.0000 0.43020  0.68330  0.37560  Biso   1.000  H
  H14      1.0000 0.56980  0.31670  0.87560  Biso   1.000  H
  H15      1.0000 0.93020  0.31670  0.37560  Biso   1.000  H
  H16      1.0000 0.06980  0.68330  0.87560  Biso   1.000  H
  C29      1.0000 0.00630  0.53090  0.57920  Biso   1.000  C
  C30      1.0000 0.99370  0.46910  0.07920  Biso   1.000  C
  C31      1.0000 0.50630  0.46910  0.57920  Biso   1.000  C
  C32      1.0000 0.49370  0.53090  0.07920  Biso   1.000  C
  H17      1.0000 0.00370  0.46420  0.61000  Biso   1.000  H
  H18      1.0000 0.99630  0.53580  0.11000  Biso   1.000  H
  H19      1.0000 0.50370  0.53580  0.61000  Biso   1.000  H
  H20      1.0000 0.49630  0.46420  0.11000  Biso   1.000  H
  C33      1.0000 0.94110  0.55500  0.50270  Biso   1.000  C
  C34      1.0000 0.05890  0.44500  0.00270  Biso   1.000  C
  C35      1.0000 0.44110  0.44500  0.50270  Biso   1.000  C
  C36      1.0000 0.55890  0.55500  0.00270  Biso   1.000  C
  H21      1.0000 0.89210  0.50170  0.47940  Biso   1.000  H
  H22      1.0000 0.10790  0.49830  0.97940  Biso   1.000  H
  H23      1.0000 0.39210  0.49830  0.47940  Biso   1.000  H
  H24      1.0000 0.60790  0.50170  0.97940  Biso   1.000  H
  C37      1.0000 0.16360  0.13610  0.45130  Biso   1.000  C
  C38      1.0000 0.83640  0.86390  0.95130  Biso   1.000  C
  C39      1.0000 0.66360  0.86390  0.45130  Biso   1.000  C
  C40      1.0000 0.33640  0.13610  0.95130  Biso   1.000  C
  H25      1.0000 0.19480  0.31700  0.44490  Biso   1.000  H
  H26      1.0000 0.80520  0.68300  0.94490  Biso   1.000  H
  H27      1.0000 0.69480  0.68300  0.44490  Biso   1.000  H
  H28      1.0000 0.30520  0.31700  0.94490  Biso   1.000  H
  H29      1.0000 0.08570  0.15150  0.44680  Biso   1.000  H
  H30      1.0000 0.91430  0.84850  0.94680  Biso   1.000  H
  H31      1.0000 0.58570  0.84850  0.44680  Biso   1.000  H
  H32      1.0000 0.41430  0.15150  0.94680  Biso   1.000  H
  C41      1.0000 0.48660  0.95840  0.18310  Biso   1.000  C
  C42      1.0000 0.51340  0.04160  0.68310  Biso   1.000  C
  C43      1.0000 0.98660  0.04160  0.18310  Biso   1.000  C
  C44      1.0000 0.01340  0.95840  0.68310  Biso   1.000  C
  H33      1.0000 0.49160  0.02840  0.15250  Biso   1.000  H
  H34      1.0000 0.50840  0.97160  0.65250  Biso   1.000  H
  H35      1.0000 0.99160  0.97160  0.15250  Biso   1.000  H
  H36      1.0000 0.00840  0.02840  0.65250  Biso   1.000  H
  C45      1.0000 0.33180  0.35690  0.31200  Biso   1.000  C
  C46      1.0000 0.66820  0.64310  0.81200  Biso   1.000  C
  C47      1.0000 0.83180  0.64310  0.31200  Biso   1.000  C
  C48      1.0000 0.16820  0.35690  0.81200  Biso   1.000  C
  H37      1.0000 0.40950  0.33830  0.31660  Biso   1.000  H
  H38      1.0000 0.59050  0.66170  0.81660  Biso   1.000  H
  H39      1.0000 0.90950  0.66170  0.31660  Biso   1.000  H
  H40      1.0000 0.09050  0.33830  0.81660  Biso   1.000  H
  H41      1.0000 0.29920  0.17740  0.31830  Biso   1.000  H
  H42      1.0000 0.70080  0.82260  0.81830  Biso   1.000  H
  H43      1.0000 0.79920  0.82260  0.31830  Biso   1.000  H
  H44      1.0000 0.20080  0.17740  0.81830  Biso   1.000  H
  C49      1.0000 0.55450  0.94570  0.25940  Biso   1.000  C
  C50      1.0000 0.44550  0.05430  0.75940  Biso   1.000  C
  C51      1.0000 0.05450  0.05430  0.25940  Biso   1.000  C
  C52      1.0000 0.94550  0.94570  0.75940  Biso   1.000  C
  H45      1.0000 0.60490  0.00690  0.28150  Biso   1.000  H
  H46      1.0000 0.39510  0.99310  0.78150  Biso   1.000  H
  H47      1.0000 0.10490  0.99310  0.28150  Biso   1.000  H
  H48      1.0000 0.89510  0.00690  0.78150  Biso   1.000  H
  C53      1.0000 0.56080  0.05190  0.21500  Biso   1.000  C
  C54      1.0000 0.43920  0.94810  0.71500  Biso   1.000  C
  C55      1.0000 0.06080  0.94810  0.21500  Biso   1.000  C
  C56      1.0000 0.93920  0.05190  0.71500  Biso   1.000  C
  H49      1.0000 0.61320  0.18210  0.20680  Biso   1.000  H
  H50      1.0000 0.38680  0.81790  0.70680  Biso   1.000  H
  H51      1.0000 0.11320  0.81790  0.20680  Biso   1.000  H
  H52      1.0000 0.88680  0.18210  0.70680  Biso   1.000  H
  C57      1.0000 0.93220  0.43830  0.54650  Biso   1.000  C
  C58      1.0000 0.06780  0.56170  0.04650  Biso   1.000  C
  C59      1.0000 0.43220  0.56170  0.54650  Biso   1.000  C
  C60      1.0000 0.56780  0.43830  0.04650  Biso   1.000  C
  H53      1.0000 0.87980  0.30590  0.55370  Biso   1.000  H
  H54      1.0000 0.12020  0.69410  0.05370  Biso   1.000  H
  H55      1.0000 0.37980  0.69410  0.55370  Biso   1.000  H
  H56      1.0000 0.62020  0.30590  0.05370  Biso   1.000  H
  C61      1.0000 0.41140  0.68990  0.23810  Biso   1.000  C
  C62      1.0000 0.58860  0.31010  0.73810  Biso   1.000  C
  C63      1.0000 0.91140  0.31010  0.23810  Biso   1.000  C
  C64      1.0000 0.08860  0.68990  0.73810  Biso   1.000  C
  C65      1.0000 0.25720  0.11110  0.63120  Biso   1.000  C
  C66      1.0000 0.74280  0.88890  0.13120  Biso   1.000  C
  C67      1.0000 0.75720  0.88890  0.63120  Biso   1.000  C
  C68      1.0000 0.24280  0.11110  0.13120  Biso   1.000  C
  C69      1.0000 0.25460  0.34980  0.63260  Biso   1.000  C
  C70      1.0000 0.74540  0.65020  0.13260  Biso   1.000  C
  C71      1.0000 0.75460  0.65020  0.63260  Biso   1.000  C
  C72      1.0000 0.24540  0.34980  0.13260  Biso   1.000  C
