data_image0
_cell_length_a       14.056
_cell_length_b       4.8159
_cell_length_c       12.5757
_cell_angle_alpha    90
_cell_angle_beta     90
_cell_angle_gamma    90

_symmetry_space_group_name_H-M    "P 1"
_symmetry_int_tables_number       1

loop_
  _symmetry_equiv_pos_as_xyz
  'x, y, z'

loop_
  _atom_site_label
  _atom_site_occupancy
  _atom_site_fract_x
  _atom_site_fract_y
  _atom_site_fract_z
  _atom_site_thermal_displace_type
  _atom_site_B_iso_or_equiv
  _atom_site_type_symbol
  Cu1      1.0000 0.50000  0.00000  0.50000  Biso   1.000  Cu
  Cu2      1.0000 0.50000  0.50000  0.00000  Biso   1.000  Cu
  S1       1.0000 0.74161  0.27780  0.46780  Biso   1.000  S
  S2       1.0000 0.25839  0.72220  0.46780  Biso   1.000  S
  S3       1.0000 0.25839  0.77780  0.96780  Biso   1.000  S
  S4       1.0000 0.74161  0.22220  0.96780  Biso   1.000  S
  N1       1.0000 0.62320  0.95250  0.36560  Biso   1.000  N
  N2       1.0000 0.37680  0.04750  0.36560  Biso   1.000  N
  N3       1.0000 0.37680  0.45250  0.86560  Biso   1.000  N
  N4       1.0000 0.62320  0.54750  0.86560  Biso   1.000  N
  N5       1.0000 0.78240  0.95070  0.29980  Biso   1.000  N
  N6       1.0000 0.21760  0.04930  0.29980  Biso   1.000  N
  N7       1.0000 0.21760  0.45070  0.79980  Biso   1.000  N
  N8       1.0000 0.78240  0.54930  0.79980  Biso   1.000  N
  C1       1.0000 0.60020  0.77700  0.28940  Biso   1.000  C
  C2       1.0000 0.39980  0.22300  0.28940  Biso   1.000  C
  C3       1.0000 0.39980  0.27700  0.78940  Biso   1.000  C
  C4       1.0000 0.60020  0.72300  0.78940  Biso   1.000  C
  H1       1.0000 0.53710  0.71970  0.28430  Biso   1.000  H
  H2       1.0000 0.46290  0.28030  0.28430  Biso   1.000  H
  H3       1.0000 0.46290  0.21970  0.78430  Biso   1.000  H
  H4       1.0000 0.53710  0.78030  0.78430  Biso   1.000  H
  C5       1.0000 0.66400  0.67540  0.21780  Biso   1.000  C
  C6       1.0000 0.33600  0.32460  0.21780  Biso   1.000  C
  C7       1.0000 0.33600  0.17540  0.71780  Biso   1.000  C
  C8       1.0000 0.66400  0.82460  0.71780  Biso   1.000  C
  H5       1.0000 0.64680  0.54630  0.16630  Biso   1.000  H
  H6       1.0000 0.35320  0.45370  0.16630  Biso   1.000  H
  H7       1.0000 0.35320  0.04630  0.66630  Biso   1.000  H
  H8       1.0000 0.64680  0.95370  0.66630  Biso   1.000  H
  C9       1.0000 0.75450  0.77400  0.22620  Biso   1.000  C
  C10      1.0000 0.24550  0.22600  0.22620  Biso   1.000  C
  C11      1.0000 0.24550  0.27400  0.72620  Biso   1.000  C
  C12      1.0000 0.75450  0.72600  0.72620  Biso   1.000  C
  H9       1.0000 0.79930  0.71280  0.17710  Biso   1.000  H
  H10      1.0000 0.20070  0.28720  0.17710  Biso   1.000  H
  H11      1.0000 0.20070  0.21280  0.67710  Biso   1.000  H
  H12      1.0000 0.79930  0.78720  0.67710  Biso   1.000  H
  C13      1.0000 0.71440  0.03890  0.36740  Biso   1.000  C
  C14      1.0000 0.28560  0.96110  0.36740  Biso   1.000  C
  C15      1.0000 0.28560  0.53890  0.86740  Biso   1.000  C
  C16      1.0000 0.71440  0.46110  0.86740  Biso   1.000  C
  C17      1.0000 0.86670  0.35510  0.44490  Biso   1.000  C
  C18      1.0000 0.13330  0.64490  0.44490  Biso   1.000  C
  C19      1.0000 0.13330  0.85510  0.94490  Biso   1.000  C
  C20      1.0000 0.86670  0.14490  0.94490  Biso   1.000  C
  H13      1.0000 0.87900  0.34400  0.36910  Biso   1.000  H
  H14      1.0000 0.12100  0.65600  0.36910  Biso   1.000  H
  H15      1.0000 0.12100  0.84400  0.86910  Biso   1.000  H
  H16      1.0000 0.87900  0.15600  0.86910  Biso   1.000  H
  H17      1.0000 0.87870  0.54500  0.46680  Biso   1.000  H
  H18      1.0000 0.12130  0.45500  0.46680  Biso   1.000  H
  H19      1.0000 0.12130  0.04500  0.96680  Biso   1.000  H
  H20      1.0000 0.87870  0.95500  0.96680  Biso   1.000  H
  C21      1.0000 0.93560  0.16940  0.50120  Biso   1.000  C
  C22      1.0000 0.06440  0.83060  0.50120  Biso   1.000  C
  C23      1.0000 0.06440  0.66940  0.00120  Biso   1.000  C
  C24      1.0000 0.93560  0.33060  0.00120  Biso   1.000  C
  C25      1.0000 0.93600  0.16780  0.61200  Biso   1.000  C
  C26      1.0000 0.06400  0.83220  0.61200  Biso   1.000  C
  C27      1.0000 0.06400  0.66780  0.11200  Biso   1.000  C
  C28      1.0000 0.93600  0.33220  0.11200  Biso   1.000  C
  H21      1.0000 0.89350  0.27920  0.64930  Biso   1.000  H
  H22      1.0000 0.10650  0.72080  0.64930  Biso   1.000  H
  H23      1.0000 0.10650  0.77920  0.14930  Biso   1.000  H
  H24      1.0000 0.89350  0.22080  0.14930  Biso   1.000  H
  C29      1.0000 0.00000  0.00000  0.66730  Biso   1.000  C
  C30      1.0000 0.00000  0.50000  0.16730  Biso   1.000  C
  H25      1.0000 0.00000  0.00000  0.74130  Biso   1.000  H
  H26      1.0000 0.00000  0.50000  0.24130  Biso   1.000  H
  C31      1.0000 0.00000  0.00000  0.44710  Biso   1.000  C
  C32      1.0000 0.00000  0.50000  0.94710  Biso   1.000  C
  H27      1.0000 0.00000  0.00000  0.37310  Biso   1.000  H
  H28      1.0000 0.00000  0.50000  0.87310  Biso   1.000  H
  C33      1.0000 0.50080  0.38230  0.53220  Biso   1.000  C
  C34      1.0000 0.49920  0.61770  0.53220  Biso   1.000  C
  C35      1.0000 0.49920  0.88230  0.03220  Biso   1.000  C
  C36      1.0000 0.50080  0.11770  0.03220  Biso   1.000  C
