data_image0
_cell_length_a       11.7761
_cell_length_b       17.229
_cell_length_c       10.4611
_cell_angle_alpha    90
_cell_angle_beta     97.777
_cell_angle_gamma    90

_symmetry_space_group_name_H-M    "P 1"
_symmetry_int_tables_number       1

loop_
  _symmetry_equiv_pos_as_xyz
  'x, y, z'

loop_
  _atom_site_label
  _atom_site_occupancy
  _atom_site_fract_x
  _atom_site_fract_y
  _atom_site_fract_z
  _atom_site_thermal_displace_type
  _atom_site_B_iso_or_equiv
  _atom_site_type_symbol
  C1       1.0000 0.90110  0.47952  0.42240  Biso   1.000  C
  C2       1.0000 0.40110  0.97952  0.42240  Biso   1.000  C
  C3       1.0000 0.09890  0.47952  0.07760  Biso   1.000  C
  C4       1.0000 0.59890  0.97952  0.07760  Biso   1.000  C
  C5       1.0000 0.09890  0.52048  0.57760  Biso   1.000  C
  C6       1.0000 0.59890  0.02048  0.57760  Biso   1.000  C
  C7       1.0000 0.90110  0.52048  0.92240  Biso   1.000  C
  C8       1.0000 0.40110  0.02048  0.92240  Biso   1.000  C
  H1       1.0000 0.83420  0.46620  0.36900  Biso   1.000  H
  H2       1.0000 0.33420  0.96620  0.36900  Biso   1.000  H
  H3       1.0000 0.16580  0.46620  0.13100  Biso   1.000  H
  H4       1.0000 0.66580  0.96620  0.13100  Biso   1.000  H
  H5       1.0000 0.16580  0.53380  0.63100  Biso   1.000  H
  H6       1.0000 0.66580  0.03380  0.63100  Biso   1.000  H
  H7       1.0000 0.83420  0.53380  0.86900  Biso   1.000  H
  H8       1.0000 0.33420  0.03380  0.86900  Biso   1.000  H
  Cu1      1.0000 0.00000  0.14235  0.25000  Biso   1.000  Cu
  Cu2      1.0000 0.50000  0.64235  0.25000  Biso   1.000  Cu
  Cu3      1.0000 0.00000  0.85765  0.75000  Biso   1.000  Cu
  Cu4      1.0000 0.50000  0.35765  0.75000  Biso   1.000  Cu
  Cu5      1.0000 0.00000  0.96709  0.25000  Biso   1.000  Cu
  Cu6      1.0000 0.50000  0.46709  0.25000  Biso   1.000  Cu
  Cu7      1.0000 0.00000  0.03291  0.75000  Biso   1.000  Cu
  Cu8      1.0000 0.50000  0.53291  0.75000  Biso   1.000  Cu
  S1       1.0000 0.15238  0.06035  0.17900  Biso   1.000  S
  S2       1.0000 0.65238  0.56035  0.17900  Biso   1.000  S
  S3       1.0000 0.84762  0.06035  0.32100  Biso   1.000  S
  S4       1.0000 0.34762  0.56035  0.32100  Biso   1.000  S
  S5       1.0000 0.84762  0.93965  0.82100  Biso   1.000  S
  S6       1.0000 0.34762  0.43965  0.82100  Biso   1.000  S
  S7       1.0000 0.15238  0.93965  0.67900  Biso   1.000  S
  S8       1.0000 0.65238  0.43965  0.67900  Biso   1.000  S
  S9       1.0000 0.91921  0.27840  0.41704  Biso   1.000  S
  S10      1.0000 0.41921  0.77840  0.41704  Biso   1.000  S
  S11      1.0000 0.08079  0.27840  0.08296  Biso   1.000  S
  S12      1.0000 0.58079  0.77840  0.08296  Biso   1.000  S
  S13      1.0000 0.08079  0.72160  0.58296  Biso   1.000  S
  S14      1.0000 0.58079  0.22160  0.58296  Biso   1.000  S
  S15      1.0000 0.91921  0.72160  0.91704  Biso   1.000  S
  S16      1.0000 0.41921  0.22160  0.91704  Biso   1.000  S
  N1       1.0000 0.07710  0.06357  0.91360  Biso   1.000  N
  N2       1.0000 0.57710  0.56357  0.91360  Biso   1.000  N
  N3       1.0000 0.92290  0.06357  0.58640  Biso   1.000  N
  N4       1.0000 0.42290  0.56357  0.58640  Biso   1.000  N
  N5       1.0000 0.92290  0.93643  0.08640  Biso   1.000  N
  N6       1.0000 0.42290  0.43643  0.08640  Biso   1.000  N
  N7       1.0000 0.07710  0.93643  0.41360  Biso   1.000  N
  N8       1.0000 0.57710  0.43643  0.41360  Biso   1.000  N
  N9       1.0000 0.08426  0.17832  0.42210  Biso   1.000  N
  N10      1.0000 0.58426  0.67832  0.42210  Biso   1.000  N
  N11      1.0000 0.91574  0.17832  0.07790  Biso   1.000  N
  N12      1.0000 0.41574  0.67832  0.07790  Biso   1.000  N
  N13      1.0000 0.91574  0.82168  0.57790  Biso   1.000  N
  N14      1.0000 0.41574  0.32168  0.57790  Biso   1.000  N
  N15      1.0000 0.08426  0.82168  0.92210  Biso   1.000  N
  N16      1.0000 0.58426  0.32168  0.92210  Biso   1.000  N
  C9       1.0000 0.10790  0.06233  0.02280  Biso   1.000  C
  C10      1.0000 0.60790  0.56233  0.02280  Biso   1.000  C
  C11      1.0000 0.89210  0.06233  0.47720  Biso   1.000  C
  C12      1.0000 0.39210  0.56233  0.47720  Biso   1.000  C
  C13      1.0000 0.89210  0.93767  0.97720  Biso   1.000  C
  C14      1.0000 0.39210  0.43767  0.97720  Biso   1.000  C
  C15      1.0000 0.10790  0.93767  0.52280  Biso   1.000  C
  C16      1.0000 0.60790  0.43767  0.52280  Biso   1.000  C
  N17      1.0000 0.08370  0.25253  0.61390  Biso   1.000  N
  N18      1.0000 0.58370  0.75253  0.61390  Biso   1.000  N
  N19      1.0000 0.91630  0.25253  0.88610  Biso   1.000  N
  N20      1.0000 0.41630  0.75253  0.88610  Biso   1.000  N
  N21      1.0000 0.91630  0.74747  0.38610  Biso   1.000  N
  N22      1.0000 0.41630  0.24747  0.38610  Biso   1.000  N
  N23      1.0000 0.08370  0.74747  0.11390  Biso   1.000  N
  N24      1.0000 0.58370  0.24747  0.11390  Biso   1.000  N
  C17      1.0000 0.04220  0.23298  0.49430  Biso   1.000  C
  C18      1.0000 0.54220  0.73298  0.49430  Biso   1.000  C
  C19      1.0000 0.95780  0.23298  0.00570  Biso   1.000  C
  C20      1.0000 0.45780  0.73298  0.00570  Biso   1.000  C
  C21      1.0000 0.95780  0.76702  0.50570  Biso   1.000  C
  C22      1.0000 0.45780  0.26702  0.50570  Biso   1.000  C
  C23      1.0000 0.04220  0.76702  0.99430  Biso   1.000  C
  C24      1.0000 0.54220  0.26702  0.99430  Biso   1.000  C
  C25      1.0000 0.17690  0.14025  0.48030  Biso   1.000  C
  C26      1.0000 0.67690  0.64025  0.48030  Biso   1.000  C
  C27      1.0000 0.82310  0.14025  0.01970  Biso   1.000  C
  C28      1.0000 0.32310  0.64025  0.01970  Biso   1.000  C
  C29      1.0000 0.82310  0.85975  0.51970  Biso   1.000  C
  C30      1.0000 0.32310  0.35975  0.51970  Biso   1.000  C
  C31      1.0000 0.17690  0.85975  0.98030  Biso   1.000  C
  C32      1.0000 0.67690  0.35975  0.98030  Biso   1.000  C
  H9       1.0000 0.20890  0.10140  0.43480  Biso   1.000  H
  H10      1.0000 0.70890  0.60140  0.43480  Biso   1.000  H
  H11      1.0000 0.79110  0.10140  0.06520  Biso   1.000  H
  H12      1.0000 0.29110  0.60140  0.06520  Biso   1.000  H
  H13      1.0000 0.79110  0.89860  0.56520  Biso   1.000  H
  H14      1.0000 0.29110  0.39860  0.56520  Biso   1.000  H
  H15      1.0000 0.20890  0.89860  0.93480  Biso   1.000  H
  H16      1.0000 0.70890  0.39860  0.93480  Biso   1.000  H
  C33      1.0000 0.95230  0.55052  0.40590  Biso   1.000  C
  C34      1.0000 0.45230  0.05052  0.40590  Biso   1.000  C
  C35      1.0000 0.04770  0.55052  0.09410  Biso   1.000  C
  C36      1.0000 0.54770  0.05052  0.09410  Biso   1.000  C
  C37      1.0000 0.04770  0.44948  0.59410  Biso   1.000  C
  C38      1.0000 0.54770  0.94948  0.59410  Biso   1.000  C
  C39      1.0000 0.95230  0.44948  0.90590  Biso   1.000  C
  C40      1.0000 0.45230  0.94948  0.90590  Biso   1.000  C
  H17      1.0000 0.91920  0.58440  0.34220  Biso   1.000  H
  H18      1.0000 0.41920  0.08440  0.34220  Biso   1.000  H
  H19      1.0000 0.08080  0.58440  0.15780  Biso   1.000  H
  H20      1.0000 0.58080  0.08440  0.15780  Biso   1.000  H
  H21      1.0000 0.08080  0.41560  0.65780  Biso   1.000  H
  H22      1.0000 0.58080  0.91560  0.65780  Biso   1.000  H
  H23      1.0000 0.91920  0.41560  0.84220  Biso   1.000  H
  H24      1.0000 0.41920  0.91560  0.84220  Biso   1.000  H
  C41      1.0000 0.89000  0.35161  0.53360  Biso   1.000  C
  C42      1.0000 0.39000  0.85161  0.53360  Biso   1.000  C
  C43      1.0000 0.11000  0.35161  0.96640  Biso   1.000  C
  C44      1.0000 0.61000  0.85161  0.96640  Biso   1.000  C
  C45      1.0000 0.11000  0.64839  0.46640  Biso   1.000  C
  C46      1.0000 0.61000  0.14839  0.46640  Biso   1.000  C
  C47      1.0000 0.89000  0.64839  0.03360  Biso   1.000  C
  C48      1.0000 0.39000  0.14839  0.03360  Biso   1.000  C
  H25      1.0000 0.80790  0.35970  0.52630  Biso   1.000  H
  H26      1.0000 0.30790  0.85970  0.52630  Biso   1.000  H
  H27      1.0000 0.19210  0.35970  0.97370  Biso   1.000  H
  H28      1.0000 0.69210  0.85970  0.97370  Biso   1.000  H
  H29      1.0000 0.19210  0.64030  0.47370  Biso   1.000  H
  H30      1.0000 0.69210  0.14030  0.47370  Biso   1.000  H
  H31      1.0000 0.80790  0.64030  0.02630  Biso   1.000  H
  H32      1.0000 0.30790  0.14030  0.02630  Biso   1.000  H
  H33      1.0000 0.91570  0.33240  0.61980  Biso   1.000  H
  H34      1.0000 0.41570  0.83240  0.61980  Biso   1.000  H
  H35      1.0000 0.08430  0.33240  0.88020  Biso   1.000  H
  H36      1.0000 0.58430  0.83240  0.88020  Biso   1.000  H
  H37      1.0000 0.08430  0.66760  0.38020  Biso   1.000  H
  H38      1.0000 0.58430  0.16760  0.38020  Biso   1.000  H
  H39      1.0000 0.91570  0.66760  0.11980  Biso   1.000  H
  H40      1.0000 0.41570  0.16760  0.11980  Biso   1.000  H
  C49      1.0000 0.94730  0.42838  0.51650  Biso   1.000  C
  C50      1.0000 0.44730  0.92838  0.51650  Biso   1.000  C
  C51      1.0000 0.05270  0.42838  0.98350  Biso   1.000  C
  C52      1.0000 0.55270  0.92838  0.98350  Biso   1.000  C
  C53      1.0000 0.05270  0.57162  0.48350  Biso   1.000  C
  C54      1.0000 0.55270  0.07162  0.48350  Biso   1.000  C
  C55      1.0000 0.94730  0.57162  0.01650  Biso   1.000  C
  C56      1.0000 0.44730  0.07162  0.01650  Biso   1.000  C
  C57      1.0000 0.22560  0.15620  0.60310  Biso   1.000  C
  C58      1.0000 0.72560  0.65620  0.60310  Biso   1.000  C
  C59      1.0000 0.77440  0.15620  0.89690  Biso   1.000  C
  C60      1.0000 0.27440  0.65620  0.89690  Biso   1.000  C
  C61      1.0000 0.77440  0.84380  0.39690  Biso   1.000  C
  C62      1.0000 0.27440  0.34380  0.39690  Biso   1.000  C
  C63      1.0000 0.22560  0.84380  0.10310  Biso   1.000  C
  C64      1.0000 0.72560  0.34380  0.10310  Biso   1.000  C
  H41      1.0000 0.28980  0.12950  0.64200  Biso   1.000  H
  H42      1.0000 0.78980  0.62950  0.64200  Biso   1.000  H
  H43      1.0000 0.71020  0.12950  0.85800  Biso   1.000  H
  H44      1.0000 0.21020  0.62950  0.85800  Biso   1.000  H
  H45      1.0000 0.71020  0.87050  0.35800  Biso   1.000  H
  H46      1.0000 0.21020  0.37050  0.35800  Biso   1.000  H
  H47      1.0000 0.28980  0.87050  0.14200  Biso   1.000  H
  H48      1.0000 0.78980  0.37050  0.14200  Biso   1.000  H
  C65      1.0000 0.17510  0.21370  0.66630  Biso   1.000  C
  C66      1.0000 0.67510  0.71370  0.66630  Biso   1.000  C
  C67      1.0000 0.82490  0.21370  0.83370  Biso   1.000  C
  C68      1.0000 0.32490  0.71370  0.83370  Biso   1.000  C
  C69      1.0000 0.82490  0.78630  0.33370  Biso   1.000  C
  C70      1.0000 0.32490  0.28630  0.33370  Biso   1.000  C
  C71      1.0000 0.17510  0.78630  0.16630  Biso   1.000  C
  C72      1.0000 0.67510  0.28630  0.16630  Biso   1.000  C
  H49      1.0000 0.20670  0.22600  0.75020  Biso   1.000  H
  H50      1.0000 0.70670  0.72600  0.75020  Biso   1.000  H
  H51      1.0000 0.79330  0.22600  0.74980  Biso   1.000  H
  H52      1.0000 0.29330  0.72600  0.74980  Biso   1.000  H
  H53      1.0000 0.79330  0.77400  0.24980  Biso   1.000  H
  H54      1.0000 0.29330  0.27400  0.24980  Biso   1.000  H
  H55      1.0000 0.20670  0.77400  0.25020  Biso   1.000  H
  H56      1.0000 0.70670  0.27400  0.25020  Biso   1.000  H
