data_image0
_cell_length_a       4.3816
_cell_length_b       16.859
_cell_length_c       13.1538
_cell_angle_alpha    90
_cell_angle_beta     93.384
_cell_angle_gamma    90

_symmetry_space_group_name_H-M    "P 1"
_symmetry_int_tables_number       1

loop_
  _symmetry_equiv_pos_as_xyz
  'x, y, z'

loop_
  _atom_site_label
  _atom_site_occupancy
  _atom_site_fract_x
  _atom_site_fract_y
  _atom_site_fract_z
  _atom_site_thermal_displace_type
  _atom_site_B_iso_or_equiv
  _atom_site_type_symbol
  C1       1.0000 0.09270  0.74510  0.25870  Biso   1.000  C
  C2       1.0000 0.90730  0.24510  0.24130  Biso   1.000  C
  C3       1.0000 0.90730  0.25490  0.74130  Biso   1.000  C
  C4       1.0000 0.09270  0.75490  0.75870  Biso   1.000  C
  H1       1.0000 0.13940  0.71340  0.20390  Biso   1.000  H
  H2       1.0000 0.86060  0.21340  0.29610  Biso   1.000  H
  H3       1.0000 0.86060  0.28660  0.79610  Biso   1.000  H
  H4       1.0000 0.13940  0.78660  0.70390  Biso   1.000  H
  C5       1.0000 0.19650  0.82170  0.26200  Biso   1.000  C
  C6       1.0000 0.80350  0.32170  0.23800  Biso   1.000  C
  C7       1.0000 0.80350  0.17830  0.73800  Biso   1.000  C
  C8       1.0000 0.19650  0.67830  0.76200  Biso   1.000  C
  H5       1.0000 0.32110  0.84150  0.21310  Biso   1.000  H
  H6       1.0000 0.67890  0.34150  0.28690  Biso   1.000  H
  H7       1.0000 0.67890  0.15850  0.78690  Biso   1.000  H
  H8       1.0000 0.32110  0.65850  0.71310  Biso   1.000  H
  I1       1.0000 0.34245  0.94552  0.62392  Biso   1.000  I
  I2       1.0000 0.65755  0.44552  0.87608  Biso   1.000  I
  I3       1.0000 0.65755  0.05448  0.37608  Biso   1.000  I
  I4       1.0000 0.34245  0.55448  0.12392  Biso   1.000  I
  Cu1      1.0000 0.80568  0.91719  0.51974  Biso   1.000  Cu
  Cu2      1.0000 0.19432  0.41719  0.98026  Biso   1.000  Cu
  Cu3      1.0000 0.19432  0.08281  0.48026  Biso   1.000  Cu
  Cu4      1.0000 0.80568  0.58281  0.01974  Biso   1.000  Cu
  S1       1.0000 0.65300  0.72566  0.50522  Biso   1.000  S
  S2       1.0000 0.34700  0.22566  0.99478  Biso   1.000  S
  S3       1.0000 0.34700  0.27434  0.49478  Biso   1.000  S
  S4       1.0000 0.65300  0.77434  0.00522  Biso   1.000  S
  N1       1.0000 0.93250  0.83960  0.41340  Biso   1.000  N
  N2       1.0000 0.06750  0.33960  0.08660  Biso   1.000  N
  N3       1.0000 0.06750  0.16040  0.58660  Biso   1.000  N
  N4       1.0000 0.93250  0.66040  0.91340  Biso   1.000  N
  C9       1.0000 0.79020  0.56210  0.48160  Biso   1.000  C
  C10      1.0000 0.20980  0.06210  0.01840  Biso   1.000  C
  C11      1.0000 0.20980  0.43790  0.51840  Biso   1.000  C
  C12      1.0000 0.79020  0.93790  0.98160  Biso   1.000  C
  C13      1.0000 0.86040  0.76220  0.40560  Biso   1.000  C
  C14      1.0000 0.13960  0.26220  0.09440  Biso   1.000  C
  C15      1.0000 0.13960  0.23780  0.59440  Biso   1.000  C
  C16      1.0000 0.86040  0.73780  0.90560  Biso   1.000  C
  C17      1.0000 0.87850  0.53860  0.58010  Biso   1.000  C
  C18      1.0000 0.12150  0.03860  0.91990  Biso   1.000  C
  C19      1.0000 0.12150  0.46140  0.41990  Biso   1.000  C
  C20      1.0000 0.87850  0.96140  0.08010  Biso   1.000  C
  H9       1.0000 0.79720  0.56460  0.63470  Biso   1.000  H
  H10      1.0000 0.20280  0.06460  0.86530  Biso   1.000  H
  H11      1.0000 0.20280  0.43540  0.36530  Biso   1.000  H
  H12      1.0000 0.79720  0.93540  0.13470  Biso   1.000  H
  N5       1.0000 0.92850  0.71429  0.33030  Biso   1.000  N
  N6       1.0000 0.07150  0.21429  0.16970  Biso   1.000  N
  N7       1.0000 0.07150  0.28571  0.66970  Biso   1.000  N
  N8       1.0000 0.92850  0.78571  0.83030  Biso   1.000  N
  C21      1.0000 0.91360  0.52290  0.40110  Biso   1.000  C
  C22      1.0000 0.08640  0.02290  0.09890  Biso   1.000  C
  C23      1.0000 0.08640  0.47710  0.59890  Biso   1.000  C
  C24      1.0000 0.91360  0.97710  0.90110  Biso   1.000  C
  H13      1.0000 0.85770  0.53770  0.33440  Biso   1.000  H
  H14      1.0000 0.14230  0.03770  0.16560  Biso   1.000  H
  H15      1.0000 0.14230  0.46230  0.66560  Biso   1.000  H
  H16      1.0000 0.85770  0.96230  0.83440  Biso   1.000  H
  C25      1.0000 0.10720  0.86810  0.34140  Biso   1.000  C
  C26      1.0000 0.89280  0.36810  0.15860  Biso   1.000  C
  C27      1.0000 0.89280  0.13190  0.65860  Biso   1.000  C
  C28      1.0000 0.10720  0.63190  0.84140  Biso   1.000  C
  H17      1.0000 0.17020  0.92080  0.34520  Biso   1.000  H
  H18      1.0000 0.82980  0.42080  0.15480  Biso   1.000  H
  H19      1.0000 0.82980  0.07920  0.65480  Biso   1.000  H
  H20      1.0000 0.17020  0.57920  0.84520  Biso   1.000  H
  C29      1.0000 0.55480  0.62580  0.46160  Biso   1.000  C
  C30      1.0000 0.44520  0.12580  0.03840  Biso   1.000  C
  C31      1.0000 0.44520  0.37420  0.53840  Biso   1.000  C
  C32      1.0000 0.55480  0.87420  0.96160  Biso   1.000  C
  H21      1.0000 0.37010  0.60980  0.49330  Biso   1.000  H
  H22      1.0000 0.62990  0.10980  0.00670  Biso   1.000  H
  H23      1.0000 0.62990  0.39020  0.50670  Biso   1.000  H
  H24      1.0000 0.37010  0.89020  0.99330  Biso   1.000  H
  H25      1.0000 0.50650  0.62800  0.38870  Biso   1.000  H
  H26      1.0000 0.49350  0.12800  0.11130  Biso   1.000  H
  H27      1.0000 0.49350  0.37200  0.61130  Biso   1.000  H
  H28      1.0000 0.50650  0.87200  0.88870  Biso   1.000  H
