data_image0
_cell_length_a       9.64
_cell_length_b       13.651
_cell_length_c       15.952
_cell_angle_alpha    84.309
_cell_angle_beta     78.972
_cell_angle_gamma    82.091

_symmetry_space_group_name_H-M    "P 1"
_symmetry_int_tables_number       1

loop_
  _symmetry_equiv_pos_as_xyz
  'x, y, z'

loop_
  _atom_site_label
  _atom_site_occupancy
  _atom_site_fract_x
  _atom_site_fract_y
  _atom_site_fract_z
  _atom_site_thermal_displace_type
  _atom_site_B_iso_or_equiv
  _atom_site_type_symbol
  Na1      1.0000 0.50000  0.00000  0.50000  Biso   1.000  Na
  Mo1      1.0000 0.12760  0.93375  0.64755  Biso   1.000  Mo
  Mo2      1.0000 0.87240  0.06625  0.35245  Biso   1.000  Mo
  Mo3      1.0000 0.26405  0.78506  0.49942  Biso   1.000  Mo
  Mo4      1.0000 0.73595  0.21494  0.50058  Biso   1.000  Mo
  Mo5      1.0000 0.21953  0.96253  0.35330  Biso   1.000  Mo
  Mo6      1.0000 0.78047  0.03747  0.64670  Biso   1.000  Mo
  Mo7      1.0000 0.08165  0.10838  0.50154  Biso   1.000  Mo
  Mo8      1.0000 0.91835  0.89162  0.49846  Biso   1.000  Mo
  Cu1      1.0000 0.15672  0.52038  0.03995  Biso   1.000  Cu
  Cu2      1.0000 0.84328  0.47962  0.96005  Biso   1.000  Cu
  Cu3      1.0000 0.20685  0.36839  0.96552  Biso   1.000  Cu
  Cu4      1.0000 0.79315  0.63161  0.03448  Biso   1.000  Cu
  Cu5      1.0000 0.49671  0.42527  0.04740  Biso   1.000  Cu
  Cu6      1.0000 0.50329  0.57473  0.95260  Biso   1.000  Cu
  O1       1.0000 0.29180  0.97090  0.63460  Biso   1.000  O
  O2       1.0000 0.70820  0.02910  0.36540  Biso   1.000  O
  O3       1.0000 0.06870  0.91830  0.75430  Biso   1.000  O
  O4       1.0000 0.93130  0.08170  0.24570  Biso   1.000  O
  O5       1.0000 0.30470  0.66010  0.49880  Biso   1.000  O
  O6       1.0000 0.69530  0.33990  0.50120  Biso   1.000  O
  O7       1.0000 0.42040  0.82940  0.50000  Biso   1.000  O
  O8       1.0000 0.57960  0.17060  0.50000  Biso   1.000  O
  O9       1.0000 0.37630  0.99630  0.36860  Biso   1.000  O
  O10      1.0000 0.62370  0.00370  0.63140  Biso   1.000  O
  O11      1.0000 0.22790  0.96700  0.24620  Biso   1.000  O
  O12      1.0000 0.77210  0.03300  0.75380  Biso   1.000  O
  O13      1.0000 0.24900  0.13650  0.50250  Biso   1.000  O
  O14      1.0000 0.75100  0.86350  0.49750  Biso   1.000  O
  O15      1.0000 0.02710  0.77790  0.49790  Biso   1.000  O
  O16      1.0000 0.97290  0.22210  0.50210  Biso   1.000  O
  O17      1.0000 0.02060  0.06520  0.62260  Biso   1.000  O
  O18      1.0000 0.97940  0.93480  0.37740  Biso   1.000  O
  O19      1.0000 0.17630  0.80120  0.61760  Biso   1.000  O
  O20      1.0000 0.82370  0.19880  0.38240  Biso   1.000  O
  O21      1.0000 0.24840  0.82420  0.38280  Biso   1.000  O
  O22      1.0000 0.75160  0.17580  0.61720  Biso   1.000  O
  O23      1.0000 0.90300  0.91060  0.61980  Biso   1.000  O
  O24      1.0000 0.09700  0.08940  0.38020  Biso   1.000  O
  O25      1.0000 0.13480  0.94930  0.50080  Biso   1.000  O
  O26      1.0000 0.86520  0.05070  0.49920  Biso   1.000  O
  O27      1.0000 0.17980  0.59790  0.93680  Biso   1.000  O
  O28      1.0000 0.82020  0.40210  0.06320  Biso   1.000  O
  O29      1.0000 0.18380  0.29030  0.06910  Biso   1.000  O
  O30      1.0000 0.81620  0.70970  0.93090  Biso   1.000  O
  O31      1.0000 0.53000  0.34410  0.95590  Biso   1.000  O
  O32      1.0000 0.47000  0.65590  0.04410  Biso   1.000  O
  N1       1.0000 0.25230  0.26340  0.87880  Biso   1.000  N
  N2       1.0000 0.74770  0.73660  0.12120  Biso   1.000  N
  N3       1.0000 0.21660  0.45850  0.86730  Biso   1.000  N
  N4       1.0000 0.78340  0.54150  0.13270  Biso   1.000  N
  N5       1.0000 0.10660  0.62880  0.12540  Biso   1.000  N
  N6       1.0000 0.89340  0.37120  0.87460  Biso   1.000  N
  N7       1.0000 0.13790  0.43040  0.13840  Biso   1.000  N
  N8       1.0000 0.86210  0.56960  0.86160  Biso   1.000  N
  N9       1.0000 0.51400  0.67900  0.85190  Biso   1.000  N
  N10      1.0000 0.48600  0.32100  0.14810  Biso   1.000  N
  N11      1.0000 0.54650  0.48170  0.86610  Biso   1.000  N
  N12      1.0000 0.45350  0.51830  0.13390  Biso   1.000  N
  C1       1.0000 0.27510  0.16520  0.88710  Biso   1.000  C
  C2       1.0000 0.72490  0.83480  0.11290  Biso   1.000  C
  H1       1.0000 0.26650  0.13400  0.94210  Biso   1.000  H
  H2       1.0000 0.73350  0.86600  0.05790  Biso   1.000  H
  C3       1.0000 0.31110  0.10700  0.81850  Biso   1.000  C
  C4       1.0000 0.68890  0.89300  0.18150  Biso   1.000  C
  H3       1.0000 0.32150  0.03820  0.82790  Biso   1.000  H
  H4       1.0000 0.67850  0.96180  0.17210  Biso   1.000  H
  C5       1.0000 0.33120  0.14920  0.73780  Biso   1.000  C
  C6       1.0000 0.66880  0.85080  0.26220  Biso   1.000  C
  H5       1.0000 0.35950  0.11030  0.69150  Biso   1.000  H
  H6       1.0000 0.64050  0.88970  0.30850  Biso   1.000  H
  C7       1.0000 0.30850  0.25440  0.72460  Biso   1.000  C
  C8       1.0000 0.69150  0.74560  0.27540  Biso   1.000  C
  C9       1.0000 0.27100  0.30680  0.79820  Biso   1.000  C
  C10      1.0000 0.72900  0.69320  0.20180  Biso   1.000  C
  C11      1.0000 0.32660  0.31180  0.64150  Biso   1.000  C
  C12      1.0000 0.67340  0.68820  0.35850  Biso   1.000  C
  H7       1.0000 0.35440  0.27880  0.59160  Biso   1.000  H
  H8       1.0000 0.64560  0.72120  0.40840  Biso   1.000  H
  C13      1.0000 0.30400  0.41020  0.63620  Biso   1.000  C
  C14      1.0000 0.69600  0.58980  0.36380  Biso   1.000  C
  H9       1.0000 0.31420  0.44470  0.58250  Biso   1.000  H
  H10      1.0000 0.68580  0.55530  0.41750  Biso   1.000  H
  C15      1.0000 0.26400  0.46510  0.71200  Biso   1.000  C
  C16      1.0000 0.73600  0.53490  0.28800  Biso   1.000  C
  C17      1.0000 0.24930  0.41350  0.79140  Biso   1.000  C
  C18      1.0000 0.75070  0.58650  0.20860  Biso   1.000  C
  C19      1.0000 0.24250  0.56920  0.71030  Biso   1.000  C
  C20      1.0000 0.75750  0.43080  0.28970  Biso   1.000  C
  H11      1.0000 0.24850  0.60680  0.65810  Biso   1.000  H
  H12      1.0000 0.75150  0.39320  0.34190  Biso   1.000  H
  C21      1.0000 0.21270  0.61520  0.78480  Biso   1.000  C
  C22      1.0000 0.78730  0.38480  0.21520  Biso   1.000  C
  H13      1.0000 0.19890  0.68410  0.78380  Biso   1.000  H
  H14      1.0000 0.80110  0.31590  0.21620  Biso   1.000  H
  C23      1.0000 0.20310  0.55630  0.86480  Biso   1.000  C
  C24      1.0000 0.79690  0.44370  0.13520  Biso   1.000  C
  C25      1.0000 0.09470  0.72680  0.11540  Biso   1.000  C
  C26      1.0000 0.90530  0.27320  0.88460  Biso   1.000  C
  H15      1.0000 0.10960  0.75770  0.06030  Biso   1.000  H
  H16      1.0000 0.89040  0.24230  0.93970  Biso   1.000  H
  C27      1.0000 0.06030  0.78560  0.18570  Biso   1.000  C
  C28      1.0000 0.93970  0.21440  0.81430  Biso   1.000  C
  H17      1.0000 0.05130  0.85440  0.17740  Biso   1.000  H
  H18      1.0000 0.94870  0.14560  0.82260  Biso   1.000  H
  C29      1.0000 0.03990  0.73950  0.26750  Biso   1.000  C
  C30      1.0000 0.96010  0.26050  0.73250  Biso   1.000  C
  H19      1.0000 0.01590  0.77830  0.31400  Biso   1.000  H
  H20      1.0000 0.98410  0.22170  0.68600  Biso   1.000  H
  C31      1.0000 0.05420  0.63710  0.28230  Biso   1.000  C
  C32      1.0000 0.94580  0.36290  0.71770  Biso   1.000  C
  C33      1.0000 0.09070  0.58160  0.20520  Biso   1.000  C
  C34      1.0000 0.90930  0.41840  0.79480  Biso   1.000  C
  C35      1.0000 0.03910  0.58180  0.36150  Biso   1.000  C
  C36      1.0000 0.96090  0.41820  0.63850  Biso   1.000  C
  H21      1.0000 0.01890  0.61520  0.41130  Biso   1.000  H
  H22      1.0000 0.98110  0.38480  0.58870  Biso   1.000  H
  C37      1.0000 0.05290  0.48160  0.36820  Biso   1.000  C
  C38      1.0000 0.94710  0.51840  0.63180  Biso   1.000  C
  H23      1.0000 0.04060  0.44770  0.42210  Biso   1.000  H
  H24      1.0000 0.95940  0.55230  0.57790  Biso   1.000  H
  C39      1.0000 0.08660  0.42620  0.29230  Biso   1.000  C
  C40      1.0000 0.91340  0.57380  0.70770  Biso   1.000  C
  C41      1.0000 0.10430  0.47900  0.21360  Biso   1.000  C
  C42      1.0000 0.89570  0.52100  0.78640  Biso   1.000  C
  C43      1.0000 0.10440  0.32070  0.29410  Biso   1.000  C
  C44      1.0000 0.89560  0.67930  0.70590  Biso   1.000  C
  H25      1.0000 0.09580  0.28330  0.34640  Biso   1.000  H
  H26      1.0000 0.90420  0.71670  0.65360  Biso   1.000  H
  C45      1.0000 0.13320  0.27480  0.22130  Biso   1.000  C
  C46      1.0000 0.86680  0.72520  0.77870  Biso   1.000  C
  H27      1.0000 0.14250  0.20600  0.22260  Biso   1.000  H
  H28      1.0000 0.85750  0.79400  0.77740  Biso   1.000  H
  C47      1.0000 0.14950  0.33430  0.14060  Biso   1.000  C
  C48      1.0000 0.85050  0.66570  0.85940  Biso   1.000  C
  C49      1.0000 0.49330  0.77720  0.84770  Biso   1.000  C
  C50      1.0000 0.50670  0.22280  0.15230  Biso   1.000  C
  H29      1.0000 0.47040  0.80910  0.89830  Biso   1.000  H
  H30      1.0000 0.52960  0.19090  0.10170  Biso   1.000  H
  C51      1.0000 0.50500  0.83440  0.76930  Biso   1.000  C
  C52      1.0000 0.49500  0.16560  0.23070  Biso   1.000  C
  H31      1.0000 0.49630  0.90320  0.76830  Biso   1.000  H
  H32      1.0000 0.50370  0.09680  0.23170  Biso   1.000  H
  C53      1.0000 0.52950  0.78810  0.69280  Biso   1.000  C
  C54      1.0000 0.47050  0.21190  0.30720  Biso   1.000  C
  H33      1.0000 0.52930  0.82510  0.64060  Biso   1.000  H
  H34      1.0000 0.47070  0.17490  0.35940  Biso   1.000  H
  C55      1.0000 0.55450  0.68430  0.69670  Biso   1.000  C
  C56      1.0000 0.44550  0.31570  0.30330  Biso   1.000  C
  C57      1.0000 0.54290  0.63260  0.77690  Biso   1.000  C
  C58      1.0000 0.45710  0.36740  0.22310  Biso   1.000  C
  C59      1.0000 0.58570  0.62810  0.62270  Biso   1.000  C
  C60      1.0000 0.41430  0.37190  0.37730  Biso   1.000  C
  H35      1.0000 0.59220  0.66130  0.56860  Biso   1.000  H
  H36      1.0000 0.40780  0.33870  0.43140  Biso   1.000  H
  C61      1.0000 0.60560  0.52950  0.62990  Biso   1.000  C
  C62      1.0000 0.39440  0.47050  0.37010  Biso   1.000  C
  H37      1.0000 0.62660  0.49570  0.58030  Biso   1.000  H
  H38      1.0000 0.37340  0.50430  0.41970  Biso   1.000  H
  C63      1.0000 0.59570  0.47300  0.71180  Biso   1.000  C
  C64      1.0000 0.40430  0.52700  0.28820  Biso   1.000  C
  C65      1.0000 0.56130  0.52800  0.78430  Biso   1.000  C
  C66      1.0000 0.43870  0.47200  0.21570  Biso   1.000  C
  C67      1.0000 0.61200  0.37210  0.72550  Biso   1.000  C
  C68      1.0000 0.38800  0.62790  0.27450  Biso   1.000  C
  H39      1.0000 0.63800  0.33380  0.67870  Biso   1.000  H
  H40      1.0000 0.36200  0.66620  0.32130  Biso   1.000  H
  C69      1.0000 0.59130  0.32590  0.80640  Biso   1.000  C
  C70      1.0000 0.40870  0.67410  0.19360  Biso   1.000  C
  H41      1.0000 0.60090  0.25700  0.81430  Biso   1.000  H
  H42      1.0000 0.39910  0.74300  0.18570  Biso   1.000  H
  C71      1.0000 0.55420  0.38530  0.87940  Biso   1.000  C
  C72      1.0000 0.44580  0.61470  0.12060  Biso   1.000  C
  O33      1.0000 0.37100  0.96200  0.04000  Biso   1.000  O
  O34      1.0000 0.62900  0.03800  0.96000  Biso   1.000  O
  O35      1.0000 0.02800  0.86200  0.92500  Biso   1.000  O
  O36      1.0000 0.97200  0.13800  0.07500  Biso   1.000  O
