data_image0
_cell_length_a       12.996
_cell_length_b       17.392
_cell_length_c       9.183
_cell_angle_alpha    90
_cell_angle_beta     90
_cell_angle_gamma    90

_symmetry_space_group_name_H-M    "P 1"
_symmetry_int_tables_number       1

loop_
  _symmetry_equiv_pos_as_xyz
  'x, y, z'

loop_
  _atom_site_label
  _atom_site_occupancy
  _atom_site_fract_x
  _atom_site_fract_y
  _atom_site_fract_z
  _atom_site_thermal_displace_type
  _atom_site_B_iso_or_equiv
  _atom_site_type_symbol
  Cl1      1.0000 0.68250  0.58460  0.79630  Biso   1.000  Cl
  Cl2      1.0000 0.31750  0.41540  0.79630  Biso   1.000  Cl
  Cl3      1.0000 0.18250  0.91540  0.20370  Biso   1.000  Cl
  Cl4      1.0000 0.81750  0.08460  0.20370  Biso   1.000  Cl
  O1       1.0000 0.72820  0.51760  0.75420  Biso   1.000  O
  O2       1.0000 0.27180  0.48240  0.75420  Biso   1.000  O
  O3       1.0000 0.22820  0.98240  0.24580  Biso   1.000  O
  O4       1.0000 0.77180  0.01760  0.24580  Biso   1.000  O
  O5       1.0000 0.62360  0.57910  0.92010  Biso   1.000  O
  O6       1.0000 0.37640  0.42090  0.92010  Biso   1.000  O
  O7       1.0000 0.12360  0.92090  0.07990  Biso   1.000  O
  O8       1.0000 0.87640  0.07910  0.07990  Biso   1.000  O
  O9       1.0000 0.59880  0.59160  0.68110  Biso   1.000  O
  O10      1.0000 0.40120  0.40840  0.68110  Biso   1.000  O
  O11      1.0000 0.09880  0.90840  0.31890  Biso   1.000  O
  O12      1.0000 0.90120  0.09160  0.31890  Biso   1.000  O
  O13      1.0000 0.73330  0.64690  0.74960  Biso   1.000  O
  O14      1.0000 0.26670  0.35310  0.74960  Biso   1.000  O
  O15      1.0000 0.23330  0.85310  0.25040  Biso   1.000  O
  O16      1.0000 0.76670  0.14690  0.25040  Biso   1.000  O
  Cu1      1.0000 0.36270  0.71060  0.95150  Biso   1.000  Cu
  Cu2      1.0000 0.63730  0.28940  0.95150  Biso   1.000  Cu
  Cu3      1.0000 0.86270  0.78940  0.04850  Biso   1.000  Cu
  Cu4      1.0000 0.13730  0.21060  0.04850  Biso   1.000  Cu
  O17      1.0000 0.39400  0.61720  0.80390  Biso   1.000  O
  O18      1.0000 0.60600  0.38280  0.80390  Biso   1.000  O
  O19      1.0000 0.89400  0.88280  0.19610  Biso   1.000  O
  O20      1.0000 0.10600  0.11720  0.19610  Biso   1.000  O
  N1       1.0000 0.21360  0.72020  0.96870  Biso   1.000  N
  N2       1.0000 0.78640  0.27980  0.96870  Biso   1.000  N
  N3       1.0000 0.71360  0.77980  0.03130  Biso   1.000  N
  N4       1.0000 0.28640  0.22020  0.03130  Biso   1.000  N
  N5       1.0000 0.00420  0.75470  0.00930  Biso   1.000  N
  N6       1.0000 0.99580  0.24530  0.00930  Biso   1.000  N
  N7       1.0000 0.50420  0.74530  0.99070  Biso   1.000  N
  N8       1.0000 0.49580  0.25470  0.99070  Biso   1.000  N
  C1       1.0000 0.15970  0.76130  0.86690  Biso   1.000  C
  C2       1.0000 0.84030  0.23870  0.86690  Biso   1.000  C
  C3       1.0000 0.65970  0.73870  0.13310  Biso   1.000  C
  C4       1.0000 0.34030  0.26130  0.13310  Biso   1.000  C
  C5       1.0000 0.21010  0.78690  0.73710  Biso   1.000  C
  C6       1.0000 0.78990  0.21310  0.73710  Biso   1.000  C
  C7       1.0000 0.71010  0.71310  0.26290  Biso   1.000  C
  C8       1.0000 0.28990  0.28690  0.26290  Biso   1.000  C
  C9       1.0000 0.15790  0.82750  0.63710  Biso   1.000  C
  C10      1.0000 0.84210  0.17250  0.63710  Biso   1.000  C
  C11      1.0000 0.65790  0.67250  0.36290  Biso   1.000  C
  C12      1.0000 0.34210  0.32750  0.36290  Biso   1.000  C
  C13      1.0000 0.05180  0.84540  0.65900  Biso   1.000  C
  C14      1.0000 0.94820  0.15460  0.65900  Biso   1.000  C
  C15      1.0000 0.55180  0.65460  0.34100  Biso   1.000  C
  C16      1.0000 0.44820  0.34540  0.34100  Biso   1.000  C
  C17      1.0000 0.00380  0.82310  0.78060  Biso   1.000  C
  C18      1.0000 0.99620  0.17690  0.78060  Biso   1.000  C
  C19      1.0000 0.50380  0.67690  0.21940  Biso   1.000  C
  C20      1.0000 0.49620  0.32310  0.21940  Biso   1.000  C
  C21      1.0000 0.05520  0.77970  0.88730  Biso   1.000  C
  C22      1.0000 0.94480  0.22030  0.88730  Biso   1.000  C
  C23      1.0000 0.55520  0.72030  0.11270  Biso   1.000  C
  C24      1.0000 0.44480  0.27970  0.11270  Biso   1.000  C
  C25      1.0000 0.16250  0.69450  0.08440  Biso   1.000  C
  C26      1.0000 0.83750  0.30550  0.08440  Biso   1.000  C
  C27      1.0000 0.66250  0.80550  0.91560  Biso   1.000  C
  C28      1.0000 0.33750  0.19450  0.91560  Biso   1.000  C
  C29      1.0000 0.21910  0.64520  0.18920  Biso   1.000  C
  C30      1.0000 0.78090  0.35480  0.18920  Biso   1.000  C
  C31      1.0000 0.71910  0.85480  0.81080  Biso   1.000  C
  C32      1.0000 0.28090  0.14520  0.81080  Biso   1.000  C
  C33      1.0000 0.22770  0.66300  0.33260  Biso   1.000  C
  C34      1.0000 0.77230  0.33700  0.33260  Biso   1.000  C
  C35      1.0000 0.72770  0.83700  0.66740  Biso   1.000  C
  C36      1.0000 0.27230  0.16300  0.66740  Biso   1.000  C
  C37      1.0000 0.27950  0.61510  0.42720  Biso   1.000  C
  C38      1.0000 0.72050  0.38490  0.42720  Biso   1.000  C
  C39      1.0000 0.77950  0.88490  0.57280  Biso   1.000  C
  C40      1.0000 0.22050  0.11510  0.57280  Biso   1.000  C
  C41      1.0000 0.32090  0.54620  0.37420  Biso   1.000  C
  C42      1.0000 0.67910  0.45380  0.37420  Biso   1.000  C
  C43      1.0000 0.82090  0.95380  0.62580  Biso   1.000  C
  C44      1.0000 0.17910  0.04620  0.62580  Biso   1.000  C
  C45      1.0000 0.31340  0.52900  0.23290  Biso   1.000  C
  C46      1.0000 0.68660  0.47100  0.23290  Biso   1.000  C
  C47      1.0000 0.81340  0.97100  0.76710  Biso   1.000  C
  C48      1.0000 0.18660  0.02900  0.76710  Biso   1.000  C
  C49      1.0000 0.26230  0.57750  0.13600  Biso   1.000  C
  C50      1.0000 0.73770  0.42250  0.13600  Biso   1.000  C
  C51      1.0000 0.76230  0.92250  0.86400  Biso   1.000  C
  C52      1.0000 0.23770  0.07750  0.86400  Biso   1.000  C
  C53      1.0000 0.05520  0.71200  0.10500  Biso   1.000  C
  C54      1.0000 0.94480  0.28800  0.10500  Biso   1.000  C
  C55      1.0000 0.55520  0.78800  0.89500  Biso   1.000  C
  C56      1.0000 0.44480  0.21200  0.89500  Biso   1.000  C
  C57      1.0000 0.99790  0.67950  0.22970  Biso   1.000  C
  C58      1.0000 0.00210  0.32050  0.22970  Biso   1.000  C
  C59      1.0000 0.49790  0.82050  0.77030  Biso   1.000  C
  C60      1.0000 0.50210  0.17950  0.77030  Biso   1.000  C
  C61      1.0000 0.98330  0.71990  0.35740  Biso   1.000  C
  C62      1.0000 0.01670  0.28010  0.35740  Biso   1.000  C
  C63      1.0000 0.48330  0.78010  0.64260  Biso   1.000  C
  C64      1.0000 0.51670  0.21990  0.64260  Biso   1.000  C
  C65      1.0000 0.93300  0.68720  0.47210  Biso   1.000  C
  C66      1.0000 0.06700  0.31280  0.47210  Biso   1.000  C
  C67      1.0000 0.43300  0.81280  0.52790  Biso   1.000  C
  C68      1.0000 0.56700  0.18720  0.52790  Biso   1.000  C
  C69      1.0000 0.89940  0.61270  0.46370  Biso   1.000  C
  C70      1.0000 0.10060  0.38730  0.46370  Biso   1.000  C
  C71      1.0000 0.39940  0.88730  0.53630  Biso   1.000  C
  C72      1.0000 0.60060  0.11270  0.53630  Biso   1.000  C
  C73      1.0000 0.91100  0.57200  0.33770  Biso   1.000  C
  C74      1.0000 0.08900  0.42800  0.33770  Biso   1.000  C
  C75      1.0000 0.41100  0.92800  0.66230  Biso   1.000  C
  C76      1.0000 0.58900  0.07200  0.66230  Biso   1.000  C
  C77      1.0000 0.96210  0.60440  0.21910  Biso   1.000  C
  C78      1.0000 0.03790  0.39560  0.21910  Biso   1.000  C
  C79      1.0000 0.46210  0.89560  0.78090  Biso   1.000  C
  C80      1.0000 0.53790  0.10440  0.78090  Biso   1.000  C
  H1       1.0000 0.28160  0.77570  0.72230  Biso   1.000  H
  H2       1.0000 0.71840  0.22430  0.72230  Biso   1.000  H
  H3       1.0000 0.78160  0.72430  0.27770  Biso   1.000  H
  H4       1.0000 0.21840  0.27570  0.27770  Biso   1.000  H
  H5       1.0000 0.19200  0.84380  0.54960  Biso   1.000  H
  H6       1.0000 0.80800  0.15620  0.54960  Biso   1.000  H
  H7       1.0000 0.69200  0.65620  0.45040  Biso   1.000  H
  H8       1.0000 0.30800  0.34380  0.45040  Biso   1.000  H
  H9       1.0000 0.01500  0.87390  0.58630  Biso   1.000  H
  H10      1.0000 0.98500  0.12610  0.58630  Biso   1.000  H
  H11      1.0000 0.51500  0.62610  0.41370  Biso   1.000  H
  H12      1.0000 0.48500  0.37390  0.41370  Biso   1.000  H
  H13      1.0000 0.93320  0.83720  0.79600  Biso   1.000  H
  H14      1.0000 0.06680  0.16280  0.79600  Biso   1.000  H
  H15      1.0000 0.43320  0.66280  0.20400  Biso   1.000  H
  H16      1.0000 0.56680  0.33720  0.20400  Biso   1.000  H
  H17      1.0000 0.19780  0.70980  0.36840  Biso   1.000  H
  H18      1.0000 0.80220  0.29020  0.36840  Biso   1.000  H
  H19      1.0000 0.69780  0.79020  0.63160  Biso   1.000  H
  H20      1.0000 0.30220  0.20980  0.63160  Biso   1.000  H
  H21      1.0000 0.28680  0.62840  0.52810  Biso   1.000  H
  H22      1.0000 0.71320  0.37160  0.52810  Biso   1.000  H
  H23      1.0000 0.78680  0.87160  0.47190  Biso   1.000  H
  H24      1.0000 0.21320  0.12840  0.47190  Biso   1.000  H
  H25      1.0000 0.35470  0.51120  0.43950  Biso   1.000  H
  H26      1.0000 0.64530  0.48880  0.43950  Biso   1.000  H
  H27      1.0000 0.85470  0.98880  0.56050  Biso   1.000  H
  H28      1.0000 0.14530  0.01120  0.56050  Biso   1.000  H
  H29      1.0000 0.34400  0.48240  0.19720  Biso   1.000  H
  H30      1.0000 0.65600  0.51760  0.19720  Biso   1.000  H
  H31      1.0000 0.84400  0.01760  0.80280  Biso   1.000  H
  H32      1.0000 0.15600  0.98240  0.80280  Biso   1.000  H
  H33      1.0000 0.25690  0.56460  0.03470  Biso   1.000  H
  H34      1.0000 0.74310  0.43540  0.03470  Biso   1.000  H
  H35      1.0000 0.75690  0.93540  0.96530  Biso   1.000  H
  H36      1.0000 0.24310  0.06460  0.96530  Biso   1.000  H
  H37      1.0000 0.00870  0.77150  0.36540  Biso   1.000  H
  H38      1.0000 0.99130  0.22850  0.36540  Biso   1.000  H
  H39      1.0000 0.50870  0.72850  0.63460  Biso   1.000  H
  H40      1.0000 0.49130  0.27150  0.63460  Biso   1.000  H
  H41      1.0000 0.92070  0.71620  0.55930  Biso   1.000  H
  H42      1.0000 0.07930  0.28380  0.55930  Biso   1.000  H
  H43      1.0000 0.42070  0.78380  0.44070  Biso   1.000  H
  H44      1.0000 0.57930  0.21620  0.44070  Biso   1.000  H
  H45      1.0000 0.86790  0.58880  0.54670  Biso   1.000  H
  H46      1.0000 0.13210  0.41120  0.54670  Biso   1.000  H
  H47      1.0000 0.36790  0.91120  0.45330  Biso   1.000  H
  H48      1.0000 0.63210  0.08880  0.45330  Biso   1.000  H
  H49      1.0000 0.88370  0.52090  0.33050  Biso   1.000  H
  H50      1.0000 0.11630  0.47910  0.33050  Biso   1.000  H
  H51      1.0000 0.38370  0.97910  0.66950  Biso   1.000  H
  H52      1.0000 0.61630  0.02090  0.66950  Biso   1.000  H
  H53      1.0000 0.97260  0.57530  0.13160  Biso   1.000  H
  H54      1.0000 0.02740  0.42470  0.13160  Biso   1.000  H
  H55      1.0000 0.47260  0.92470  0.86840  Biso   1.000  H
  H56      1.0000 0.52740  0.07530  0.86840  Biso   1.000  H
  C81      1.0000 0.00000  0.50000  0.78530  Biso   1.000  C
  C82      1.0000 0.50000  0.00000  0.21470  Biso   1.000  C
  C83      1.0000 0.93700  0.45870  0.90450  Biso   1.000  C
  C84      1.0000 0.06300  0.54130  0.90450  Biso   1.000  C
  C85      1.0000 0.43700  0.04130  0.09550  Biso   1.000  C
  C86      1.0000 0.56300  0.95870  0.09550  Biso   1.000  C
