data_image0
_cell_length_a       8.1225
_cell_length_b       8.9171
_cell_length_c       9.3516
_cell_angle_alpha    117.063
_cell_angle_beta     91.017
_cell_angle_gamma    103.174

_symmetry_space_group_name_H-M    "P 1"
_symmetry_int_tables_number       1

loop_
  _symmetry_equiv_pos_as_xyz
  'x, y, z'

loop_
  _atom_site_label
  _atom_site_occupancy
  _atom_site_fract_x
  _atom_site_fract_y
  _atom_site_fract_z
  _atom_site_thermal_displace_type
  _atom_site_B_iso_or_equiv
  _atom_site_type_symbol
  Cu1      1.0000 0.17777  0.61346  0.68475  Biso   1.000  Cu
  Cu2      1.0000 0.82223  0.38654  0.31525  Biso   1.000  Cu
  Br1      1.0000 0.93423  0.70220  0.61177  Biso   1.000  Br
  Br2      1.0000 0.06577  0.29780  0.38823  Biso   1.000  Br
  N1       1.0000 0.23940  0.57540  0.18200  Biso   1.000  N
  N2       1.0000 0.76060  0.42460  0.81800  Biso   1.000  N
  Br3      1.0000 0.44871  0.74540  0.62303  Biso   1.000  Br
  Br4      1.0000 0.55129  0.25460  0.37697  Biso   1.000  Br
  Cu3      1.0000 0.74904  0.44956  0.61735  Biso   1.000  Cu
  Cu4      1.0000 0.25096  0.55044  0.38265  Biso   1.000  Cu
  C1       1.0000 0.19780  0.70830  0.17880  Biso   1.000  C
  C2       1.0000 0.80220  0.29170  0.82120  Biso   1.000  C
  C3       1.0000 0.18280  0.72010  0.03060  Biso   1.000  C
  C4       1.0000 0.81720  0.27990  0.96940  Biso   1.000  C
  N3       1.0000 0.20770  0.59910  0.89300  Biso   1.000  N
  N4       1.0000 0.79230  0.40090  0.10700  Biso   1.000  N
  C5       1.0000 0.25670  0.46150  0.89450  Biso   1.000  C
  C6       1.0000 0.74330  0.53850  0.10550  Biso   1.000  C
  C7       1.0000 0.30120  0.33510  0.75350  Biso   1.000  C
  C8       1.0000 0.69880  0.66490  0.24650  Biso   1.000  C
  H1       1.0000 0.29460  0.34290  0.65670  Biso   1.000  H
  H2       1.0000 0.70540  0.65710  0.34330  Biso   1.000  H
  C9       1.0000 0.35400  0.20160  0.75630  Biso   1.000  C
  C10      1.0000 0.64600  0.79840  0.24370  Biso   1.000  C
  H3       1.0000 0.38110  0.11710  0.66090  Biso   1.000  H
  H4       1.0000 0.61890  0.88290  0.33910  Biso   1.000  H
  C11      1.0000 0.36830  0.18870  0.90030  Biso   1.000  C
  C12      1.0000 0.63170  0.81130  0.09970  Biso   1.000  C
  H5       1.0000 0.40390  0.09550  0.90040  Biso   1.000  H
  H6       1.0000 0.59610  0.90450  0.09960  Biso   1.000  H
  C13      1.0000 0.33030  0.31200  0.04050  Biso   1.000  C
  C14      1.0000 0.66970  0.68800  0.95950  Biso   1.000  C
  H7       1.0000 0.34220  0.30480  0.13720  Biso   1.000  H
  H8       1.0000 0.65780  0.69520  0.86280  Biso   1.000  H
  C15      1.0000 0.27310  0.45030  0.03940  Biso   1.000  C
  C16      1.0000 0.72690  0.54970  0.96060  Biso   1.000  C
  C17      1.0000 0.16820  0.85160  0.33400  Biso   1.000  C
  C18      1.0000 0.83180  0.14840  0.66600  Biso   1.000  C
  H9       1.0000 0.17430  0.82000  0.42000  Biso   1.000  H
  H10      1.0000 0.82570  0.18000  0.58000  Biso   1.000  H
  H11      1.0000 0.05630  0.86810  0.31950  Biso   1.000  H
  H12      1.0000 0.94370  0.13190  0.68050  Biso   1.000  H
  H13      1.0000 0.25510  0.95920  0.36260  Biso   1.000  H
  H14      1.0000 0.74490  0.04080  0.63740  Biso   1.000  H
  C19      1.0000 0.14100  0.87830  0.03530  Biso   1.000  C
  C20      1.0000 0.85900  0.12170  0.96470  Biso   1.000  C
  H15      1.0000 0.12860  0.86430  0.92620  Biso   1.000  H
  H16      1.0000 0.87140  0.13570  0.07380  Biso   1.000  H
  H17      1.0000 0.23240  0.98160  0.10280  Biso   1.000  H
  H18      1.0000 0.76760  0.01840  0.89720  Biso   1.000  H
  H19      1.0000 0.03500  0.89080  0.07980  Biso   1.000  H
  H20      1.0000 0.96500  0.10920  0.92020  Biso   1.000  H
