data_image0
_cell_length_a       21.5559
_cell_length_b       11.9089
_cell_length_c       32.1745
_cell_angle_alpha    90
_cell_angle_beta     90
_cell_angle_gamma    90

_symmetry_space_group_name_H-M    "P 1"
_symmetry_int_tables_number       1

loop_
  _symmetry_equiv_pos_as_xyz
  'x, y, z'

loop_
  _atom_site_label
  _atom_site_occupancy
  _atom_site_fract_x
  _atom_site_fract_y
  _atom_site_fract_z
  _atom_site_thermal_displace_type
  _atom_site_B_iso_or_equiv
  _atom_site_type_symbol
  Cu1      1.0000 0.35170  0.89290  0.51898  Biso   1.000  Cu
  Cu2      1.0000 0.64830  0.10710  0.01898  Biso   1.000  Cu
  Cu3      1.0000 0.64830  0.89290  0.98102  Biso   1.000  Cu
  Cu4      1.0000 0.35170  0.10710  0.48102  Biso   1.000  Cu
  Cu5      1.0000 0.85170  0.39290  0.51898  Biso   1.000  Cu
  Cu6      1.0000 0.14830  0.60710  0.01898  Biso   1.000  Cu
  Cu7      1.0000 0.14830  0.39290  0.98102  Biso   1.000  Cu
  Cu8      1.0000 0.85170  0.60710  0.48102  Biso   1.000  Cu
  Cu9      1.0000 0.64830  0.10710  0.48102  Biso   1.000  Cu
  Cu10     1.0000 0.35170  0.89290  0.98102  Biso   1.000  Cu
  Cu11     1.0000 0.35170  0.10710  0.01898  Biso   1.000  Cu
  Cu12     1.0000 0.64830  0.89290  0.51898  Biso   1.000  Cu
  Cu13     1.0000 0.14830  0.60710  0.48102  Biso   1.000  Cu
  Cu14     1.0000 0.85170  0.39290  0.98102  Biso   1.000  Cu
  Cu15     1.0000 0.85170  0.60710  0.01898  Biso   1.000  Cu
  Cu16     1.0000 0.14830  0.39290  0.51898  Biso   1.000  Cu
  O1       1.0000 0.43870  0.82050  0.57450  Biso   1.000  O
  O2       1.0000 0.56130  0.17950  0.07450  Biso   1.000  O
  O3       1.0000 0.56130  0.82050  0.92550  Biso   1.000  O
  O4       1.0000 0.43870  0.17950  0.42550  Biso   1.000  O
  O5       1.0000 0.93870  0.32050  0.57450  Biso   1.000  O
  O6       1.0000 0.06130  0.67950  0.07450  Biso   1.000  O
  O7       1.0000 0.06130  0.32050  0.92550  Biso   1.000  O
  O8       1.0000 0.93870  0.67950  0.42550  Biso   1.000  O
  O9       1.0000 0.56130  0.17950  0.42550  Biso   1.000  O
  O10      1.0000 0.43870  0.82050  0.92550  Biso   1.000  O
  O11      1.0000 0.43870  0.17950  0.07450  Biso   1.000  O
  O12      1.0000 0.56130  0.82050  0.57450  Biso   1.000  O
  O13      1.0000 0.06130  0.67950  0.42550  Biso   1.000  O
  O14      1.0000 0.93870  0.32050  0.92550  Biso   1.000  O
  O15      1.0000 0.93870  0.67950  0.07450  Biso   1.000  O
  O16      1.0000 0.06130  0.32050  0.57450  Biso   1.000  O
  W1       1.0000 0.42171  0.67382  0.59683  Biso   1.000  W
  W2       1.0000 0.57829  0.32618  0.09683  Biso   1.000  W
  W3       1.0000 0.57829  0.67382  0.90317  Biso   1.000  W
  W4       1.0000 0.42171  0.32618  0.40317  Biso   1.000  W
  W5       1.0000 0.92171  0.17382  0.59683  Biso   1.000  W
  W6       1.0000 0.07829  0.82618  0.09683  Biso   1.000  W
  W7       1.0000 0.07829  0.17382  0.90317  Biso   1.000  W
  W8       1.0000 0.92171  0.82618  0.40317  Biso   1.000  W
  W9       1.0000 0.57829  0.32618  0.40317  Biso   1.000  W
  W10      1.0000 0.42171  0.67382  0.90317  Biso   1.000  W
  W11      1.0000 0.42171  0.32618  0.09683  Biso   1.000  W
  W12      1.0000 0.57829  0.67382  0.59683  Biso   1.000  W
  W13      1.0000 0.07829  0.82618  0.40317  Biso   1.000  W
  W14      1.0000 0.92171  0.17382  0.90317  Biso   1.000  W
  W15      1.0000 0.92171  0.82618  0.09683  Biso   1.000  W
  W16      1.0000 0.07829  0.17382  0.59683  Biso   1.000  W
  W17      1.0000 0.50000  0.92059  0.59681  Biso   1.000  W
  W18      1.0000 0.50000  0.07941  0.09681  Biso   1.000  W
  W19      1.0000 0.50000  0.92059  0.90319  Biso   1.000  W
  W20      1.0000 0.50000  0.07941  0.40319  Biso   1.000  W
  W21      1.0000 0.00000  0.42059  0.59681  Biso   1.000  W
  W22      1.0000 0.00000  0.57941  0.09681  Biso   1.000  W
  W23      1.0000 0.00000  0.42059  0.90319  Biso   1.000  W
  W24      1.0000 0.00000  0.57941  0.40319  Biso   1.000  W
  O17      1.0000 0.42670  0.55470  0.63610  Biso   1.000  O
  O18      1.0000 0.57330  0.44530  0.13610  Biso   1.000  O
  O19      1.0000 0.57330  0.55470  0.86390  Biso   1.000  O
  O20      1.0000 0.42670  0.44530  0.36390  Biso   1.000  O
  O21      1.0000 0.92670  0.05470  0.63610  Biso   1.000  O
  O22      1.0000 0.07330  0.94530  0.13610  Biso   1.000  O
  O23      1.0000 0.07330  0.05470  0.86390  Biso   1.000  O
  O24      1.0000 0.92670  0.94530  0.36390  Biso   1.000  O
  O25      1.0000 0.57330  0.44530  0.36390  Biso   1.000  O
  O26      1.0000 0.42670  0.55470  0.86390  Biso   1.000  O
  O27      1.0000 0.42670  0.44530  0.13610  Biso   1.000  O
  O28      1.0000 0.57330  0.55470  0.63610  Biso   1.000  O
  O29      1.0000 0.07330  0.94530  0.36390  Biso   1.000  O
  O30      1.0000 0.92670  0.05470  0.86390  Biso   1.000  O
  O31      1.0000 0.92670  0.94530  0.13610  Biso   1.000  O
  O32      1.0000 0.07330  0.05470  0.63610  Biso   1.000  O
  O33      1.0000 0.36650  0.74180  0.63610  Biso   1.000  O
  O34      1.0000 0.63350  0.25820  0.13610  Biso   1.000  O
  O35      1.0000 0.63350  0.74180  0.86390  Biso   1.000  O
  O36      1.0000 0.36650  0.25820  0.36390  Biso   1.000  O
  O37      1.0000 0.86650  0.24180  0.63610  Biso   1.000  O
  O38      1.0000 0.13350  0.75820  0.13610  Biso   1.000  O
  O39      1.0000 0.13350  0.24180  0.86390  Biso   1.000  O
  O40      1.0000 0.86650  0.75820  0.36390  Biso   1.000  O
  O41      1.0000 0.63350  0.25820  0.36390  Biso   1.000  O
  O42      1.0000 0.36650  0.74180  0.86390  Biso   1.000  O
  O43      1.0000 0.36650  0.25820  0.13610  Biso   1.000  O
  O44      1.0000 0.63350  0.74180  0.63610  Biso   1.000  O
  O45      1.0000 0.13350  0.75820  0.36390  Biso   1.000  O
  O46      1.0000 0.86650  0.24180  0.86390  Biso   1.000  O
  O47      1.0000 0.86650  0.75820  0.13610  Biso   1.000  O
  O48      1.0000 0.13350  0.24180  0.63610  Biso   1.000  O
  O49      1.0000 0.37190  0.62320  0.56060  Biso   1.000  O
  O50      1.0000 0.62810  0.37680  0.06060  Biso   1.000  O
  O51      1.0000 0.62810  0.62320  0.93940  Biso   1.000  O
  O52      1.0000 0.37190  0.37680  0.43940  Biso   1.000  O
  O53      1.0000 0.87190  0.12320  0.56060  Biso   1.000  O
  O54      1.0000 0.12810  0.87680  0.06060  Biso   1.000  O
  O55      1.0000 0.12810  0.12320  0.93940  Biso   1.000  O
  O56      1.0000 0.87190  0.87680  0.43940  Biso   1.000  O
  O57      1.0000 0.62810  0.37680  0.43940  Biso   1.000  O
  O58      1.0000 0.37190  0.62320  0.93940  Biso   1.000  O
  O59      1.0000 0.37190  0.37680  0.06060  Biso   1.000  O
  O60      1.0000 0.62810  0.62320  0.56060  Biso   1.000  O
  O61      1.0000 0.12810  0.87680  0.43940  Biso   1.000  O
  O62      1.0000 0.87190  0.12320  0.93940  Biso   1.000  O
  O63      1.0000 0.87190  0.87680  0.06060  Biso   1.000  O
  O64      1.0000 0.12810  0.12320  0.56060  Biso   1.000  O
  O65      1.0000 0.50000  0.75530  0.63950  Biso   1.000  O
  O66      1.0000 0.50000  0.24470  0.13950  Biso   1.000  O
  O67      1.0000 0.50000  0.75530  0.86050  Biso   1.000  O
  O68      1.0000 0.50000  0.24470  0.36050  Biso   1.000  O
  O69      1.0000 0.00000  0.25530  0.63950  Biso   1.000  O
  O70      1.0000 0.00000  0.74470  0.13950  Biso   1.000  O
  O71      1.0000 0.00000  0.25530  0.86050  Biso   1.000  O
  O72      1.0000 0.00000  0.74470  0.36050  Biso   1.000  O
  O73      1.0000 0.50000  0.62700  0.57410  Biso   1.000  O
  O74      1.0000 0.50000  0.37300  0.07410  Biso   1.000  O
  O75      1.0000 0.50000  0.62700  0.92590  Biso   1.000  O
  O76      1.0000 0.50000  0.37300  0.42590  Biso   1.000  O
  O77      1.0000 0.00000  0.12700  0.57410  Biso   1.000  O
  O78      1.0000 0.00000  0.87300  0.07410  Biso   1.000  O
  O79      1.0000 0.00000  0.12700  0.92590  Biso   1.000  O
  O80      1.0000 0.00000  0.87300  0.42590  Biso   1.000  O
  O81      1.0000 0.44000  0.97210  0.63610  Biso   1.000  O
  O82      1.0000 0.56000  0.02790  0.13610  Biso   1.000  O
  O83      1.0000 0.56000  0.97210  0.86390  Biso   1.000  O
  O84      1.0000 0.44000  0.02790  0.36390  Biso   1.000  O
  O85      1.0000 0.94000  0.47210  0.63610  Biso   1.000  O
  O86      1.0000 0.06000  0.52790  0.13610  Biso   1.000  O
  O87      1.0000 0.06000  0.47210  0.86390  Biso   1.000  O
  O88      1.0000 0.94000  0.52790  0.36390  Biso   1.000  O
  O89      1.0000 0.56000  0.02790  0.36390  Biso   1.000  O
  O90      1.0000 0.44000  0.97210  0.86390  Biso   1.000  O
  O91      1.0000 0.44000  0.02790  0.13610  Biso   1.000  O
  O92      1.0000 0.56000  0.97210  0.63610  Biso   1.000  O
  O93      1.0000 0.06000  0.52790  0.36390  Biso   1.000  O
  O94      1.0000 0.94000  0.47210  0.86390  Biso   1.000  O
  O95      1.0000 0.94000  0.52790  0.13610  Biso   1.000  O
  O96      1.0000 0.06000  0.47210  0.63610  Biso   1.000  O
  O97      1.0000 0.50000  0.02300  0.56060  Biso   1.000  O
  O98      1.0000 0.50000  0.97700  0.06060  Biso   1.000  O
  O99      1.0000 0.50000  0.02300  0.93940  Biso   1.000  O
  O100     1.0000 0.50000  0.97700  0.43940  Biso   1.000  O
  O101     1.0000 0.00000  0.52300  0.56060  Biso   1.000  O
  O102     1.0000 0.00000  0.47700  0.06060  Biso   1.000  O
  O103     1.0000 0.00000  0.52300  0.93940  Biso   1.000  O
  O104     1.0000 0.00000  0.47700  0.43940  Biso   1.000  O
  W25      1.0000 0.42249  0.49621  0.69151  Biso   1.000  W
  W26      1.0000 0.57751  0.50379  0.19151  Biso   1.000  W
  W27      1.0000 0.57751  0.49621  0.80849  Biso   1.000  W
  W28      1.0000 0.42249  0.50379  0.30849  Biso   1.000  W
  W29      1.0000 0.92249  0.99621  0.69151  Biso   1.000  W
  W30      1.0000 0.07751  0.00379  0.19151  Biso   1.000  W
  W31      1.0000 0.07751  0.99621  0.80849  Biso   1.000  W
  W32      1.0000 0.92249  0.00379  0.30849  Biso   1.000  W
  W33      1.0000 0.57751  0.50379  0.30849  Biso   1.000  W
  W34      1.0000 0.42249  0.49621  0.80849  Biso   1.000  W
  W35      1.0000 0.42249  0.50379  0.19151  Biso   1.000  W
  W36      1.0000 0.57751  0.49621  0.69151  Biso   1.000  W
  W37      1.0000 0.07751  0.00379  0.30849  Biso   1.000  W
  W38      1.0000 0.92249  0.99621  0.80849  Biso   1.000  W
  W39      1.0000 0.92249  0.00379  0.19151  Biso   1.000  W
  W40      1.0000 0.07751  0.99621  0.69151  Biso   1.000  W
  W41      1.0000 0.33721  0.76325  0.69140  Biso   1.000  W
  W42      1.0000 0.66279  0.23675  0.19140  Biso   1.000  W
  W43      1.0000 0.66279  0.76325  0.80860  Biso   1.000  W
  W44      1.0000 0.33721  0.23675  0.30860  Biso   1.000  W
  W45      1.0000 0.83721  0.26325  0.69140  Biso   1.000  W
  W46      1.0000 0.16279  0.73675  0.19140  Biso   1.000  W
  W47      1.0000 0.16279  0.26325  0.80860  Biso   1.000  W
  W48      1.0000 0.83721  0.73675  0.30860  Biso   1.000  W
  W49      1.0000 0.66279  0.23675  0.30860  Biso   1.000  W
  W50      1.0000 0.33721  0.76325  0.80860  Biso   1.000  W
  W51      1.0000 0.33721  0.23675  0.19140  Biso   1.000  W
  W52      1.0000 0.66279  0.76325  0.69140  Biso   1.000  W
  W53      1.0000 0.16279  0.73675  0.30860  Biso   1.000  W
  W54      1.0000 0.83721  0.26325  0.80860  Biso   1.000  W
  W55      1.0000 0.83721  0.73675  0.19140  Biso   1.000  W
  W56      1.0000 0.16279  0.26325  0.69140  Biso   1.000  W
  P1       1.0000 0.50000  0.75510  0.68840  Biso   1.000  P
  P2       1.0000 0.50000  0.24490  0.18840  Biso   1.000  P
  P3       1.0000 0.50000  0.75510  0.81160  Biso   1.000  P
  P4       1.0000 0.50000  0.24490  0.31160  Biso   1.000  P
  P5       1.0000 0.00000  0.25510  0.68840  Biso   1.000  P
  P6       1.0000 0.00000  0.74490  0.18840  Biso   1.000  P
  P7       1.0000 0.00000  0.25510  0.81160  Biso   1.000  P
  P8       1.0000 0.00000  0.74490  0.31160  Biso   1.000  P
  W57      1.0000 0.41506  0.00662  0.69159  Biso   1.000  W
  W58      1.0000 0.58494  0.99338  0.19159  Biso   1.000  W
  W59      1.0000 0.58494  0.00662  0.80841  Biso   1.000  W
  W60      1.0000 0.41506  0.99338  0.30841  Biso   1.000  W
  W61      1.0000 0.91506  0.50662  0.69159  Biso   1.000  W
  W62      1.0000 0.08494  0.49338  0.19159  Biso   1.000  W
  W63      1.0000 0.08494  0.50662  0.80841  Biso   1.000  W
  W64      1.0000 0.91506  0.49338  0.30841  Biso   1.000  W
  W65      1.0000 0.58494  0.99338  0.30841  Biso   1.000  W
  W66      1.0000 0.41506  0.00662  0.80841  Biso   1.000  W
  W67      1.0000 0.41506  0.99338  0.19159  Biso   1.000  W
  W68      1.0000 0.58494  0.00662  0.69159  Biso   1.000  W
  W69      1.0000 0.08494  0.49338  0.30841  Biso   1.000  W
  W70      1.0000 0.91506  0.50662  0.80841  Biso   1.000  W
  W71      1.0000 0.91506  0.49338  0.19159  Biso   1.000  W
  W72      1.0000 0.08494  0.50662  0.69159  Biso   1.000  W
  O105     1.0000 0.36700  0.61660  0.70210  Biso   1.000  O
  O106     1.0000 0.63300  0.38340  0.20210  Biso   1.000  O
  O107     1.0000 0.63300  0.61660  0.79790  Biso   1.000  O
  O108     1.0000 0.36700  0.38340  0.29790  Biso   1.000  O
  O109     1.0000 0.86700  0.11660  0.70210  Biso   1.000  O
  O110     1.0000 0.13300  0.88340  0.20210  Biso   1.000  O
  O111     1.0000 0.13300  0.11660  0.79790  Biso   1.000  O
  O112     1.0000 0.86700  0.88340  0.29790  Biso   1.000  O
  O113     1.0000 0.63300  0.38340  0.29790  Biso   1.000  O
  O114     1.0000 0.36700  0.61660  0.79790  Biso   1.000  O
  O115     1.0000 0.36700  0.38340  0.20210  Biso   1.000  O
  O116     1.0000 0.63300  0.61660  0.70210  Biso   1.000  O
  O117     1.0000 0.13300  0.88340  0.29790  Biso   1.000  O
  O118     1.0000 0.86700  0.11660  0.79790  Biso   1.000  O
  O119     1.0000 0.86700  0.88340  0.20210  Biso   1.000  O
  O120     1.0000 0.13300  0.11660  0.70210  Biso   1.000  O
  O121     1.0000 0.37250  0.38880  0.68170  Biso   1.000  O
  O122     1.0000 0.62750  0.61120  0.18170  Biso   1.000  O
  O123     1.0000 0.62750  0.38880  0.81830  Biso   1.000  O
  O124     1.0000 0.37250  0.61120  0.31830  Biso   1.000  O
  O125     1.0000 0.87250  0.88880  0.68170  Biso   1.000  O
  O126     1.0000 0.12750  0.11120  0.18170  Biso   1.000  O
  O127     1.0000 0.12750  0.88880  0.81830  Biso   1.000  O
  O128     1.0000 0.87250  0.11120  0.31830  Biso   1.000  O
  O129     1.0000 0.62750  0.61120  0.31830  Biso   1.000  O
  O130     1.0000 0.37250  0.38880  0.81830  Biso   1.000  O
  O131     1.0000 0.37250  0.61120  0.18170  Biso   1.000  O
  O132     1.0000 0.62750  0.38880  0.68170  Biso   1.000  O
  O133     1.0000 0.12750  0.11120  0.31830  Biso   1.000  O
  O134     1.0000 0.87250  0.88880  0.81830  Biso   1.000  O
  O135     1.0000 0.87250  0.11120  0.18170  Biso   1.000  O
  O136     1.0000 0.12750  0.88880  0.68170  Biso   1.000  O
  O137     1.0000 0.42940  0.47650  0.75000  Biso   1.000  O
  O138     1.0000 0.57060  0.52350  0.25000  Biso   1.000  O
  O139     1.0000 0.57060  0.47650  0.75000  Biso   1.000  O
  O140     1.0000 0.42940  0.52350  0.25000  Biso   1.000  O
  O141     1.0000 0.92940  0.97650  0.75000  Biso   1.000  O
  O142     1.0000 0.07060  0.02350  0.25000  Biso   1.000  O
  O143     1.0000 0.07060  0.97650  0.75000  Biso   1.000  O
  O144     1.0000 0.92940  0.02350  0.25000  Biso   1.000  O
  O145     1.0000 0.50000  0.63130  0.70180  Biso   1.000  O
  O146     1.0000 0.50000  0.36870  0.20180  Biso   1.000  O
  O147     1.0000 0.50000  0.63130  0.79820  Biso   1.000  O
  O148     1.0000 0.50000  0.36870  0.29820  Biso   1.000  O
  O149     1.0000 0.00000  0.13130  0.70180  Biso   1.000  O
  O150     1.0000 0.00000  0.86870  0.20180  Biso   1.000  O
  O151     1.0000 0.00000  0.13130  0.79820  Biso   1.000  O
  O152     1.0000 0.00000  0.86870  0.29820  Biso   1.000  O
  O153     1.0000 0.50000  0.42310  0.68350  Biso   1.000  O
  O154     1.0000 0.50000  0.57690  0.18350  Biso   1.000  O
  O155     1.0000 0.50000  0.42310  0.81650  Biso   1.000  O
  O156     1.0000 0.50000  0.57690  0.31650  Biso   1.000  O
  O157     1.0000 0.00000  0.92310  0.68350  Biso   1.000  O
  O158     1.0000 0.00000  0.07690  0.18350  Biso   1.000  O
  O159     1.0000 0.00000  0.92310  0.81650  Biso   1.000  O
  O160     1.0000 0.00000  0.07690  0.31650  Biso   1.000  O
  O161     1.0000 0.25970  0.73970  0.68180  Biso   1.000  O
  O162     1.0000 0.74030  0.26030  0.18180  Biso   1.000  O
  O163     1.0000 0.74030  0.73970  0.81820  Biso   1.000  O
  O164     1.0000 0.25970  0.26030  0.31820  Biso   1.000  O
  O165     1.0000 0.75970  0.23970  0.68180  Biso   1.000  O
  O166     1.0000 0.24030  0.76030  0.18180  Biso   1.000  O
  O167     1.0000 0.24030  0.23970  0.81820  Biso   1.000  O
  O168     1.0000 0.75970  0.76030  0.31820  Biso   1.000  O
  O169     1.0000 0.74030  0.26030  0.31820  Biso   1.000  O
  O170     1.0000 0.25970  0.73970  0.81820  Biso   1.000  O
  O171     1.0000 0.25970  0.26030  0.18180  Biso   1.000  O
  O172     1.0000 0.74030  0.73970  0.68180  Biso   1.000  O
  O173     1.0000 0.24030  0.76030  0.31820  Biso   1.000  O
  O174     1.0000 0.75970  0.23970  0.81820  Biso   1.000  O
  O175     1.0000 0.75970  0.76030  0.18180  Biso   1.000  O
  O176     1.0000 0.24030  0.23970  0.68180  Biso   1.000  O
  O177     1.0000 0.34070  0.92130  0.68430  Biso   1.000  O
  O178     1.0000 0.65930  0.07870  0.18430  Biso   1.000  O
  O179     1.0000 0.65930  0.92130  0.81570  Biso   1.000  O
  O180     1.0000 0.34070  0.07870  0.31570  Biso   1.000  O
  O181     1.0000 0.84070  0.42130  0.68430  Biso   1.000  O
  O182     1.0000 0.15930  0.57870  0.18430  Biso   1.000  O
  O183     1.0000 0.15930  0.42130  0.81570  Biso   1.000  O
  O184     1.0000 0.84070  0.57870  0.31570  Biso   1.000  O
  O185     1.0000 0.65930  0.07870  0.31570  Biso   1.000  O
  O186     1.0000 0.34070  0.92130  0.81570  Biso   1.000  O
  O187     1.0000 0.34070  0.07870  0.18430  Biso   1.000  O
  O188     1.0000 0.65930  0.92130  0.68430  Biso   1.000  O
  O189     1.0000 0.15930  0.57870  0.31570  Biso   1.000  O
  O190     1.0000 0.84070  0.42130  0.81570  Biso   1.000  O
  O191     1.0000 0.84070  0.57870  0.18430  Biso   1.000  O
  O192     1.0000 0.15930  0.42130  0.68430  Biso   1.000  O
  O193     1.0000 0.33160  0.78370  0.75000  Biso   1.000  O
  O194     1.0000 0.66840  0.21630  0.25000  Biso   1.000  O
  O195     1.0000 0.66840  0.78370  0.75000  Biso   1.000  O
  O196     1.0000 0.33160  0.21630  0.25000  Biso   1.000  O
  O197     1.0000 0.83160  0.28370  0.75000  Biso   1.000  O
  O198     1.0000 0.16840  0.71630  0.25000  Biso   1.000  O
  O199     1.0000 0.16840  0.28370  0.75000  Biso   1.000  O
  O200     1.0000 0.83160  0.71630  0.25000  Biso   1.000  O
  O201     1.0000 0.44180  0.81570  0.70260  Biso   1.000  O
  O202     1.0000 0.55820  0.18430  0.20260  Biso   1.000  O
  O203     1.0000 0.55820  0.81570  0.79740  Biso   1.000  O
  O204     1.0000 0.44180  0.18430  0.29740  Biso   1.000  O
  O205     1.0000 0.94180  0.31570  0.70260  Biso   1.000  O
  O206     1.0000 0.05820  0.68430  0.20260  Biso   1.000  O
  O207     1.0000 0.05820  0.31570  0.79740  Biso   1.000  O
  O208     1.0000 0.94180  0.68430  0.29740  Biso   1.000  O
  O209     1.0000 0.55820  0.18430  0.29740  Biso   1.000  O
  O210     1.0000 0.44180  0.81570  0.79740  Biso   1.000  O
  O211     1.0000 0.44180  0.18430  0.20260  Biso   1.000  O
  O212     1.0000 0.55820  0.81570  0.70260  Biso   1.000  O
  O213     1.0000 0.05820  0.68430  0.29740  Biso   1.000  O
  O214     1.0000 0.94180  0.31570  0.79740  Biso   1.000  O
  O215     1.0000 0.94180  0.68430  0.20260  Biso   1.000  O
  O216     1.0000 0.05820  0.31570  0.70260  Biso   1.000  O
  O217     1.0000 0.38730  0.13860  0.68290  Biso   1.000  O
  O218     1.0000 0.61270  0.86140  0.18290  Biso   1.000  O
  O219     1.0000 0.61270  0.13860  0.81710  Biso   1.000  O
  O220     1.0000 0.38730  0.86140  0.31710  Biso   1.000  O
  O221     1.0000 0.88730  0.63860  0.68290  Biso   1.000  O
  O222     1.0000 0.11270  0.36140  0.18290  Biso   1.000  O
  O223     1.0000 0.11270  0.63860  0.81710  Biso   1.000  O
  O224     1.0000 0.88730  0.36140  0.31710  Biso   1.000  O
  O225     1.0000 0.61270  0.86140  0.31710  Biso   1.000  O
  O226     1.0000 0.38730  0.13860  0.81710  Biso   1.000  O
  O227     1.0000 0.38730  0.86140  0.18290  Biso   1.000  O
  O228     1.0000 0.61270  0.13860  0.68290  Biso   1.000  O
  O229     1.0000 0.11270  0.36140  0.31710  Biso   1.000  O
  O230     1.0000 0.88730  0.63860  0.81710  Biso   1.000  O
  O231     1.0000 0.88730  0.36140  0.18290  Biso   1.000  O
  O232     1.0000 0.11270  0.63860  0.68290  Biso   1.000  O
  O233     1.0000 0.40200  0.00220  0.75000  Biso   1.000  O
  O234     1.0000 0.59800  0.99780  0.25000  Biso   1.000  O
  O235     1.0000 0.59800  0.00220  0.75000  Biso   1.000  O
  O236     1.0000 0.40200  0.99780  0.25000  Biso   1.000  O
  O237     1.0000 0.90200  0.50220  0.75000  Biso   1.000  O
  O238     1.0000 0.09800  0.49780  0.25000  Biso   1.000  O
  O239     1.0000 0.09800  0.50220  0.75000  Biso   1.000  O
  O240     1.0000 0.90200  0.49780  0.25000  Biso   1.000  O
  O241     1.0000 0.50000  0.03330  0.70240  Biso   1.000  O
  O242     1.0000 0.50000  0.96670  0.20240  Biso   1.000  O
  O243     1.0000 0.50000  0.03330  0.79760  Biso   1.000  O
  O244     1.0000 0.50000  0.96670  0.29760  Biso   1.000  O
  O245     1.0000 0.00000  0.53330  0.70240  Biso   1.000  O
  O246     1.0000 0.00000  0.46670  0.20240  Biso   1.000  O
  O247     1.0000 0.00000  0.53330  0.79760  Biso   1.000  O
  O248     1.0000 0.00000  0.46670  0.29760  Biso   1.000  O
  Na1      1.0000 0.32740  0.25730  0.75000  Biso   1.000  Na
  Na2      1.0000 0.67260  0.74270  0.25000  Biso   1.000  Na
  Na3      1.0000 0.67260  0.25730  0.75000  Biso   1.000  Na
  Na4      1.0000 0.32740  0.74270  0.25000  Biso   1.000  Na
  Na5      1.0000 0.82740  0.75730  0.75000  Biso   1.000  Na
  Na6      1.0000 0.17260  0.24270  0.25000  Biso   1.000  Na
  Na7      1.0000 0.17260  0.75730  0.75000  Biso   1.000  Na
  Na8      1.0000 0.82740  0.24270  0.25000  Biso   1.000  Na
  N1       1.0000 0.37560  0.81300  0.03630  Biso   1.000  N
  N2       1.0000 0.62440  0.18700  0.53630  Biso   1.000  N
  N3       1.0000 0.62440  0.81300  0.46370  Biso   1.000  N
  N4       1.0000 0.37560  0.18700  0.96370  Biso   1.000  N
  N5       1.0000 0.87560  0.31300  0.03630  Biso   1.000  N
  N6       1.0000 0.12440  0.68700  0.53630  Biso   1.000  N
  N7       1.0000 0.12440  0.31300  0.46370  Biso   1.000  N
  N8       1.0000 0.87560  0.68700  0.96370  Biso   1.000  N
  N9       1.0000 0.62440  0.18700  0.96370  Biso   1.000  N
  N10      1.0000 0.37560  0.81300  0.46370  Biso   1.000  N
  N11      1.0000 0.37560  0.18700  0.53630  Biso   1.000  N
  N12      1.0000 0.62440  0.81300  0.03630  Biso   1.000  N
  N13      1.0000 0.12440  0.68700  0.96370  Biso   1.000  N
  N14      1.0000 0.87560  0.31300  0.46370  Biso   1.000  N
  N15      1.0000 0.87560  0.68700  0.53630  Biso   1.000  N
  N16      1.0000 0.12440  0.31300  0.03630  Biso   1.000  N
  N17      1.0000 0.30860  0.97600  0.93070  Biso   1.000  N
  N18      1.0000 0.69140  0.02400  0.43070  Biso   1.000  N
  N19      1.0000 0.69140  0.97600  0.56930  Biso   1.000  N
  N20      1.0000 0.30860  0.02400  0.06930  Biso   1.000  N
  N21      1.0000 0.80860  0.47600  0.93070  Biso   1.000  N
  N22      1.0000 0.19140  0.52400  0.43070  Biso   1.000  N
  N23      1.0000 0.19140  0.47600  0.56930  Biso   1.000  N
  N24      1.0000 0.80860  0.52400  0.06930  Biso   1.000  N
  N25      1.0000 0.69140  0.02400  0.06930  Biso   1.000  N
  N26      1.0000 0.30860  0.97600  0.56930  Biso   1.000  N
  N27      1.0000 0.30860  0.02400  0.43070  Biso   1.000  N
  N28      1.0000 0.69140  0.97600  0.93070  Biso   1.000  N
  N29      1.0000 0.19140  0.52400  0.06930  Biso   1.000  N
  N30      1.0000 0.80860  0.47600  0.56930  Biso   1.000  N
  N31      1.0000 0.80860  0.52400  0.43070  Biso   1.000  N
  N32      1.0000 0.19140  0.47600  0.93070  Biso   1.000  N
  C1       1.0000 0.35770  0.83700  0.07500  Biso   1.000  C
  C2       1.0000 0.64230  0.16300  0.57500  Biso   1.000  C
  C3       1.0000 0.64230  0.83700  0.42500  Biso   1.000  C
  C4       1.0000 0.35770  0.16300  0.92500  Biso   1.000  C
  C5       1.0000 0.85770  0.33700  0.07500  Biso   1.000  C
  C6       1.0000 0.14230  0.66300  0.57500  Biso   1.000  C
  C7       1.0000 0.14230  0.33700  0.42500  Biso   1.000  C
  C8       1.0000 0.85770  0.66300  0.92500  Biso   1.000  C
  C9       1.0000 0.64230  0.16300  0.92500  Biso   1.000  C
  C10      1.0000 0.35770  0.83700  0.42500  Biso   1.000  C
  C11      1.0000 0.35770  0.16300  0.57500  Biso   1.000  C
  C12      1.0000 0.64230  0.83700  0.07500  Biso   1.000  C
  C13      1.0000 0.14230  0.66300  0.92500  Biso   1.000  C
  C14      1.0000 0.85770  0.33700  0.42500  Biso   1.000  C
  C15      1.0000 0.85770  0.66300  0.57500  Biso   1.000  C
  C16      1.0000 0.14230  0.33700  0.07500  Biso   1.000  C
  C17      1.0000 0.41250  0.72000  0.04050  Biso   1.000  C
  C18      1.0000 0.58750  0.28000  0.54050  Biso   1.000  C
  C19      1.0000 0.58750  0.72000  0.45950  Biso   1.000  C
  C20      1.0000 0.41250  0.28000  0.95950  Biso   1.000  C
  C21      1.0000 0.91250  0.22000  0.04050  Biso   1.000  C
  C22      1.0000 0.08750  0.78000  0.54050  Biso   1.000  C
  C23      1.0000 0.08750  0.22000  0.45950  Biso   1.000  C
  C24      1.0000 0.91250  0.78000  0.95950  Biso   1.000  C
  C25      1.0000 0.58750  0.28000  0.95950  Biso   1.000  C
  C26      1.0000 0.41250  0.72000  0.45950  Biso   1.000  C
  C27      1.0000 0.41250  0.28000  0.54050  Biso   1.000  C
  C28      1.0000 0.58750  0.72000  0.04050  Biso   1.000  C
  C29      1.0000 0.08750  0.78000  0.95950  Biso   1.000  C
  C30      1.0000 0.91250  0.22000  0.45950  Biso   1.000  C
  C31      1.0000 0.91250  0.78000  0.54050  Biso   1.000  C
  C32      1.0000 0.08750  0.22000  0.04050  Biso   1.000  C
  C33      1.0000 0.31470  0.07400  0.91300  Biso   1.000  C
  C34      1.0000 0.68530  0.92600  0.41300  Biso   1.000  C
  C35      1.0000 0.68530  0.07400  0.58700  Biso   1.000  C
  C36      1.0000 0.31470  0.92600  0.08700  Biso   1.000  C
  C37      1.0000 0.81470  0.57400  0.91300  Biso   1.000  C
  C38      1.0000 0.18530  0.42600  0.41300  Biso   1.000  C
  C39      1.0000 0.18530  0.57400  0.58700  Biso   1.000  C
  C40      1.0000 0.81470  0.42600  0.08700  Biso   1.000  C
  C41      1.0000 0.68530  0.92600  0.08700  Biso   1.000  C
  C42      1.0000 0.31470  0.07400  0.58700  Biso   1.000  C
  C43      1.0000 0.31470  0.92600  0.41300  Biso   1.000  C
  C44      1.0000 0.68530  0.07400  0.91300  Biso   1.000  C
  C45      1.0000 0.18530  0.42600  0.08700  Biso   1.000  C
  C46      1.0000 0.81470  0.57400  0.58700  Biso   1.000  C
  C47      1.0000 0.81470  0.42600  0.41300  Biso   1.000  C
  C48      1.0000 0.18530  0.57400  0.91300  Biso   1.000  C
  C49      1.0000 0.26140  0.92300  0.90880  Biso   1.000  C
  C50      1.0000 0.73860  0.07700  0.40880  Biso   1.000  C
  C51      1.0000 0.73860  0.92300  0.59120  Biso   1.000  C
  C52      1.0000 0.26140  0.07700  0.09120  Biso   1.000  C
  C53      1.0000 0.76140  0.42300  0.90880  Biso   1.000  C
  C54      1.0000 0.23860  0.57700  0.40880  Biso   1.000  C
  C55      1.0000 0.23860  0.42300  0.59120  Biso   1.000  C
  C56      1.0000 0.76140  0.57700  0.09120  Biso   1.000  C
  C57      1.0000 0.73860  0.07700  0.09120  Biso   1.000  C
  C58      1.0000 0.26140  0.92300  0.59120  Biso   1.000  C
  C59      1.0000 0.26140  0.07700  0.40880  Biso   1.000  C
  C60      1.0000 0.73860  0.92300  0.90880  Biso   1.000  C
  C61      1.0000 0.23860  0.57700  0.09120  Biso   1.000  C
  C62      1.0000 0.76140  0.42300  0.59120  Biso   1.000  C
  C63      1.0000 0.76140  0.57700  0.40880  Biso   1.000  C
  C64      1.0000 0.23860  0.42300  0.90880  Biso   1.000  C
  N33      1.0000 0.38040  0.76200  0.10240  Biso   1.000  N
  N34      1.0000 0.61960  0.23800  0.60240  Biso   1.000  N
  N35      1.0000 0.61960  0.76200  0.39760  Biso   1.000  N
  N36      1.0000 0.38040  0.23800  0.89760  Biso   1.000  N
  N37      1.0000 0.88040  0.26200  0.10240  Biso   1.000  N
  N38      1.0000 0.11960  0.73800  0.60240  Biso   1.000  N
  N39      1.0000 0.11960  0.26200  0.39760  Biso   1.000  N
  N40      1.0000 0.88040  0.73800  0.89760  Biso   1.000  N
  N41      1.0000 0.61960  0.23800  0.89760  Biso   1.000  N
  N42      1.0000 0.38040  0.76200  0.39760  Biso   1.000  N
  N43      1.0000 0.38040  0.23800  0.60240  Biso   1.000  N
  N44      1.0000 0.61960  0.76200  0.10240  Biso   1.000  N
  N45      1.0000 0.11960  0.73800  0.89760  Biso   1.000  N
  N46      1.0000 0.88040  0.26200  0.39760  Biso   1.000  N
  N47      1.0000 0.88040  0.73800  0.60240  Biso   1.000  N
  N48      1.0000 0.11960  0.26200  0.10240  Biso   1.000  N
  C65      1.0000 0.41420  0.68600  0.07980  Biso   1.000  C
  C66      1.0000 0.58580  0.31400  0.57980  Biso   1.000  C
  C67      1.0000 0.58580  0.68600  0.42020  Biso   1.000  C
  C68      1.0000 0.41420  0.31400  0.92020  Biso   1.000  C
  C69      1.0000 0.91420  0.18600  0.07980  Biso   1.000  C
  C70      1.0000 0.08580  0.81400  0.57980  Biso   1.000  C
  C71      1.0000 0.08580  0.18600  0.42020  Biso   1.000  C
  C72      1.0000 0.91420  0.81400  0.92020  Biso   1.000  C
  C73      1.0000 0.58580  0.31400  0.92020  Biso   1.000  C
  C74      1.0000 0.41420  0.68600  0.42020  Biso   1.000  C
  C75      1.0000 0.41420  0.31400  0.57980  Biso   1.000  C
  C76      1.0000 0.58580  0.68600  0.07980  Biso   1.000  C
  C77      1.0000 0.08580  0.81400  0.92020  Biso   1.000  C
  C78      1.0000 0.91420  0.18600  0.42020  Biso   1.000  C
  C79      1.0000 0.91420  0.81400  0.57980  Biso   1.000  C
  C80      1.0000 0.08580  0.18600  0.07980  Biso   1.000  C
  H1       1.0000 0.43360  0.68570  0.01870  Biso   1.000  H
  H2       1.0000 0.56640  0.31430  0.51870  Biso   1.000  H
  H3       1.0000 0.56640  0.68570  0.48130  Biso   1.000  H
  H4       1.0000 0.43360  0.31430  0.98130  Biso   1.000  H
  H5       1.0000 0.93360  0.18570  0.01870  Biso   1.000  H
  H6       1.0000 0.06640  0.81430  0.51870  Biso   1.000  H
  H7       1.0000 0.06640  0.18570  0.48130  Biso   1.000  H
  H8       1.0000 0.93360  0.81430  0.98130  Biso   1.000  H
  H9       1.0000 0.56640  0.31430  0.98130  Biso   1.000  H
  H10      1.0000 0.43360  0.68570  0.48130  Biso   1.000  H
  H11      1.0000 0.43360  0.31430  0.51870  Biso   1.000  H
  H12      1.0000 0.56640  0.68570  0.01870  Biso   1.000  H
  H13      1.0000 0.06640  0.81430  0.98130  Biso   1.000  H
  H14      1.0000 0.93360  0.18570  0.48130  Biso   1.000  H
  H15      1.0000 0.93360  0.81430  0.51870  Biso   1.000  H
  H16      1.0000 0.06640  0.18570  0.01870  Biso   1.000  H
  N49      1.0000 0.27620  0.08600  0.88030  Biso   1.000  N
  N50      1.0000 0.72380  0.91400  0.38030  Biso   1.000  N
  N51      1.0000 0.72380  0.08600  0.61970  Biso   1.000  N
  N52      1.0000 0.27620  0.91400  0.11970  Biso   1.000  N
  N53      1.0000 0.77620  0.58600  0.88030  Biso   1.000  N
  N54      1.0000 0.22380  0.41400  0.38030  Biso   1.000  N
  N55      1.0000 0.22380  0.58600  0.61970  Biso   1.000  N
  N56      1.0000 0.77620  0.41400  0.11970  Biso   1.000  N
  N57      1.0000 0.72380  0.91400  0.11970  Biso   1.000  N
  N58      1.0000 0.27620  0.08600  0.61970  Biso   1.000  N
  N59      1.0000 0.27620  0.91400  0.38030  Biso   1.000  N
  N60      1.0000 0.72380  0.08600  0.88030  Biso   1.000  N
  N61      1.0000 0.22380  0.41400  0.11970  Biso   1.000  N
  N62      1.0000 0.77620  0.58600  0.61970  Biso   1.000  N
  N63      1.0000 0.77620  0.41400  0.38030  Biso   1.000  N
  N64      1.0000 0.22380  0.58600  0.88030  Biso   1.000  N
  C81      1.0000 0.24190  0.98700  0.87870  Biso   1.000  C
  C82      1.0000 0.75810  0.01300  0.37870  Biso   1.000  C
  C83      1.0000 0.75810  0.98700  0.62130  Biso   1.000  C
  C84      1.0000 0.24190  0.01300  0.12130  Biso   1.000  C
  C85      1.0000 0.74190  0.48700  0.87870  Biso   1.000  C
  C86      1.0000 0.25810  0.51300  0.37870  Biso   1.000  C
  C87      1.0000 0.25810  0.48700  0.62130  Biso   1.000  C
  C88      1.0000 0.74190  0.51300  0.12130  Biso   1.000  C
  C89      1.0000 0.75810  0.01300  0.12130  Biso   1.000  C
  C90      1.0000 0.24190  0.98700  0.62130  Biso   1.000  C
  C91      1.0000 0.24190  0.01300  0.37870  Biso   1.000  C
  C92      1.0000 0.75810  0.98700  0.87870  Biso   1.000  C
  C93      1.0000 0.25810  0.51300  0.12130  Biso   1.000  C
  C94      1.0000 0.74190  0.48700  0.62130  Biso   1.000  C
  C95      1.0000 0.74190  0.51300  0.37870  Biso   1.000  C
  C96      1.0000 0.25810  0.48700  0.87870  Biso   1.000  C
  H17      1.0000 0.24600  0.85180  0.91480  Biso   1.000  H
  H18      1.0000 0.75400  0.14820  0.41480  Biso   1.000  H
  H19      1.0000 0.75400  0.85180  0.58520  Biso   1.000  H
  H20      1.0000 0.24600  0.14820  0.08520  Biso   1.000  H
  H21      1.0000 0.74600  0.35180  0.91480  Biso   1.000  H
  H22      1.0000 0.25400  0.64820  0.41480  Biso   1.000  H
  H23      1.0000 0.25400  0.35180  0.58520  Biso   1.000  H
  H24      1.0000 0.74600  0.64820  0.08520  Biso   1.000  H
  H25      1.0000 0.75400  0.14820  0.08520  Biso   1.000  H
  H26      1.0000 0.24600  0.85180  0.58520  Biso   1.000  H
  H27      1.0000 0.24600  0.14820  0.41480  Biso   1.000  H
  H28      1.0000 0.75400  0.85180  0.91480  Biso   1.000  H
  H29      1.0000 0.25400  0.64820  0.08520  Biso   1.000  H
  H30      1.0000 0.74600  0.35180  0.58520  Biso   1.000  H
  H31      1.0000 0.74600  0.64820  0.41480  Biso   1.000  H
  H32      1.0000 0.25400  0.35180  0.91480  Biso   1.000  H
  H33      1.0000 0.43440  0.62330  0.09010  Biso   1.000  H
  H34      1.0000 0.56560  0.37670  0.59010  Biso   1.000  H
  H35      1.0000 0.56560  0.62330  0.40990  Biso   1.000  H
  H36      1.0000 0.43440  0.37670  0.90990  Biso   1.000  H
  H37      1.0000 0.93440  0.12330  0.09010  Biso   1.000  H
  H38      1.0000 0.06560  0.87670  0.59010  Biso   1.000  H
  H39      1.0000 0.06560  0.12330  0.40990  Biso   1.000  H
  H40      1.0000 0.93440  0.87670  0.90990  Biso   1.000  H
  H41      1.0000 0.56560  0.37670  0.90990  Biso   1.000  H
  H42      1.0000 0.43440  0.62330  0.40990  Biso   1.000  H
  H43      1.0000 0.43440  0.37670  0.59010  Biso   1.000  H
  H44      1.0000 0.56560  0.62330  0.09010  Biso   1.000  H
  H45      1.0000 0.06560  0.87670  0.90990  Biso   1.000  H
  H46      1.0000 0.93440  0.12330  0.40990  Biso   1.000  H
  H47      1.0000 0.93440  0.87670  0.59010  Biso   1.000  H
  H48      1.0000 0.06560  0.12330  0.09010  Biso   1.000  H
  H49      1.0000 0.21080  0.97020  0.85960  Biso   1.000  H
  H50      1.0000 0.78920  0.02980  0.35960  Biso   1.000  H
  H51      1.0000 0.78920  0.97020  0.64040  Biso   1.000  H
  H52      1.0000 0.21080  0.02980  0.14040  Biso   1.000  H
  H53      1.0000 0.71080  0.47020  0.85960  Biso   1.000  H
  H54      1.0000 0.28920  0.52980  0.35960  Biso   1.000  H
  H55      1.0000 0.28920  0.47020  0.64040  Biso   1.000  H
  H56      1.0000 0.71080  0.52980  0.14040  Biso   1.000  H
  H57      1.0000 0.78920  0.02980  0.14040  Biso   1.000  H
  H58      1.0000 0.21080  0.97020  0.64040  Biso   1.000  H
  H59      1.0000 0.21080  0.02980  0.35960  Biso   1.000  H
  H60      1.0000 0.78920  0.97020  0.85960  Biso   1.000  H
  H61      1.0000 0.28920  0.52980  0.14040  Biso   1.000  H
  H62      1.0000 0.71080  0.47020  0.64040  Biso   1.000  H
  H63      1.0000 0.71080  0.52980  0.35960  Biso   1.000  H
  H64      1.0000 0.28920  0.47020  0.85960  Biso   1.000  H
  O249     1.0000 0.24300  0.99400  0.25000  Biso   1.000  O
  O250     1.0000 0.75700  0.00600  0.75000  Biso   1.000  O
  O251     1.0000 0.75700  0.99400  0.25000  Biso   1.000  O
  O252     1.0000 0.24300  0.00600  0.75000  Biso   1.000  O
  O253     1.0000 0.74300  0.49400  0.25000  Biso   1.000  O
  O254     1.0000 0.25700  0.50600  0.75000  Biso   1.000  O
  O255     1.0000 0.25700  0.49400  0.25000  Biso   1.000  O
  O256     1.0000 0.74300  0.50600  0.75000  Biso   1.000  O
  H65      1.0000 0.27150  0.03750  0.24140  Biso   1.000  H
  H66      1.0000 0.72850  0.96250  0.74140  Biso   1.000  H
  H67      1.0000 0.72850  0.03750  0.25860  Biso   1.000  H
  H68      1.0000 0.27150  0.96250  0.75860  Biso   1.000  H
  H69      1.0000 0.77150  0.53750  0.24140  Biso   1.000  H
  H70      1.0000 0.22850  0.46250  0.74140  Biso   1.000  H
  H71      1.0000 0.22850  0.53750  0.25860  Biso   1.000  H
  H72      1.0000 0.77150  0.46250  0.75860  Biso   1.000  H
  H73      1.0000 0.72850  0.96250  0.75860  Biso   1.000  H
  H74      1.0000 0.27150  0.03750  0.25860  Biso   1.000  H
  H75      1.0000 0.27150  0.96250  0.74140  Biso   1.000  H
  H76      1.0000 0.72850  0.03750  0.24140  Biso   1.000  H
  H77      1.0000 0.22850  0.46250  0.75860  Biso   1.000  H
  H78      1.0000 0.77150  0.53750  0.25860  Biso   1.000  H
  H79      1.0000 0.77150  0.46250  0.74140  Biso   1.000  H
  H80      1.0000 0.22850  0.53750  0.24140  Biso   1.000  H
  H81      1.0000 0.20650  0.01780  0.25340  Biso   1.000  H
  H82      1.0000 0.79350  0.98220  0.75340  Biso   1.000  H
  H83      1.0000 0.79350  0.01780  0.24660  Biso   1.000  H
  H84      1.0000 0.20650  0.98220  0.74660  Biso   1.000  H
  H85      1.0000 0.70650  0.51780  0.25340  Biso   1.000  H
  H86      1.0000 0.29350  0.48220  0.75340  Biso   1.000  H
  H87      1.0000 0.29350  0.51780  0.24660  Biso   1.000  H
  H88      1.0000 0.70650  0.48220  0.74660  Biso   1.000  H
  H89      1.0000 0.79350  0.98220  0.74660  Biso   1.000  H
  H90      1.0000 0.20650  0.01780  0.24660  Biso   1.000  H
  H91      1.0000 0.20650  0.98220  0.75340  Biso   1.000  H
  H92      1.0000 0.79350  0.01780  0.25340  Biso   1.000  H
  H93      1.0000 0.29350  0.48220  0.74660  Biso   1.000  H
  H94      1.0000 0.70650  0.51780  0.24660  Biso   1.000  H
  H95      1.0000 0.70650  0.48220  0.75340  Biso   1.000  H
  H96      1.0000 0.29350  0.51780  0.25340  Biso   1.000  H
