data_image0
_cell_length_a       10.8879
_cell_length_b       15.185
_cell_length_c       15.653
_cell_angle_alpha    70.089
_cell_angle_beta     81.99
_cell_angle_gamma    74.183

_symmetry_space_group_name_H-M    "P 1"
_symmetry_int_tables_number       1

loop_
  _symmetry_equiv_pos_as_xyz
  'x, y, z'

loop_
  _atom_site_label
  _atom_site_occupancy
  _atom_site_fract_x
  _atom_site_fract_y
  _atom_site_fract_z
  _atom_site_thermal_displace_type
  _atom_site_B_iso_or_equiv
  _atom_site_type_symbol
  C1       1.0000 0.11610  0.84470  0.81830  Biso   1.000  C
  C2       1.0000 0.88390  0.15530  0.18170  Biso   1.000  C
  H1       1.0000 0.18740  0.80100  0.80410  Biso   1.000  H
  H2       1.0000 0.81260  0.19900  0.19590  Biso   1.000  H
  C3       1.0000 0.13260  0.92440  0.83870  Biso   1.000  C
  C4       1.0000 0.86740  0.07560  0.16130  Biso   1.000  C
  H3       1.0000 0.21410  0.93290  0.83840  Biso   1.000  H
  H4       1.0000 0.78590  0.06710  0.16160  Biso   1.000  H
  C5       1.0000 0.02720  0.98880  0.85910  Biso   1.000  C
  C6       1.0000 0.97280  0.01120  0.14090  Biso   1.000  C
  C7       1.0000 0.90470  0.97740  0.85940  Biso   1.000  C
  C8       1.0000 0.09530  0.02260  0.14060  Biso   1.000  C
  H5       1.0000 0.83370  0.02230  0.87220  Biso   1.000  H
  H6       1.0000 0.16630  0.97770  0.12780  Biso   1.000  H
  C9       1.0000 0.88960  0.89730  0.84030  Biso   1.000  C
  C10      1.0000 0.11040  0.10270  0.15970  Biso   1.000  C
  H7       1.0000 0.80800  0.88850  0.84160  Biso   1.000  H
  H8       1.0000 0.19200  0.11150  0.15840  Biso   1.000  H
  C11      1.0000 0.05440  0.06300  0.89360  Biso   1.000  C
  C12      1.0000 0.94560  0.93700  0.10640  Biso   1.000  C
  C13      1.0000 0.96000  0.21370  0.92930  Biso   1.000  C
  C14      1.0000 0.04000  0.78630  0.07070  Biso   1.000  C
  C15      1.0000 0.84530  0.27660  0.94920  Biso   1.000  C
  C16      1.0000 0.15470  0.72340  0.05080  Biso   1.000  C
  H9       1.0000 0.76740  0.26710  0.94100  Biso   1.000  H
  H10      1.0000 0.23260  0.73290  0.05900  Biso   1.000  H
  C17      1.0000 0.84530  0.34930  0.97960  Biso   1.000  C
  C18      1.0000 0.15470  0.65070  0.02040  Biso   1.000  C
  C19      1.0000 0.96140  0.36490  0.99190  Biso   1.000  C
  C20      1.0000 0.03860  0.63510  0.00810  Biso   1.000  C
  H11      1.0000 0.96200  0.41530  0.01270  Biso   1.000  H
  H12      1.0000 0.03800  0.58470  0.98730  Biso   1.000  H
  C21      1.0000 0.07490  0.30570  0.97330  Biso   1.000  C
  C22      1.0000 0.92510  0.69430  0.02670  Biso   1.000  C
  C23      1.0000 0.07460  0.22970  0.94150  Biso   1.000  C
  C24      1.0000 0.92540  0.77030  0.05850  Biso   1.000  C
  H13      1.0000 0.15150  0.19000  0.92870  Biso   1.000  H
  H14      1.0000 0.84850  0.81000  0.07130  Biso   1.000  H
  C25      1.0000 0.72280  0.42030  0.98810  Biso   1.000  C
  C26      1.0000 0.27720  0.57970  0.01190  Biso   1.000  C
  C27      1.0000 0.20180  0.31710  0.98910  Biso   1.000  C
  C28      1.0000 0.79820  0.68290  0.01090  Biso   1.000  C
  C29      1.0000 0.83240  0.72540  0.58940  Biso   1.000  C
  C30      1.0000 0.16760  0.27460  0.41060  Biso   1.000  C
  H15      1.0000 0.74660  0.72510  0.59300  Biso   1.000  H
  H16      1.0000 0.25340  0.27490  0.40700  Biso   1.000  H
  C31      1.0000 0.92600  0.65520  0.56110  Biso   1.000  C
  C32      1.0000 0.07400  0.34480  0.43890  Biso   1.000  C
  H17      1.0000 0.90180  0.60870  0.54540  Biso   1.000  H
  H18      1.0000 0.09820  0.39130  0.45460  Biso   1.000  H
  C33      1.0000 0.05450  0.65500  0.55640  Biso   1.000  C
  C34      1.0000 0.94550  0.34500  0.44360  Biso   1.000  C
  C35      1.0000 0.08870  0.72640  0.58000  Biso   1.000  C
  C36      1.0000 0.91130  0.27360  0.42000  Biso   1.000  C
  H19      1.0000 0.17420  0.72730  0.57740  Biso   1.000  H
  H20      1.0000 0.82580  0.27270  0.42260  Biso   1.000  H
  C37      1.0000 0.99570  0.79480  0.60710  Biso   1.000  C
  C38      1.0000 0.00430  0.20520  0.39290  Biso   1.000  C
  H21      1.0000 0.01890  0.84190  0.62250  Biso   1.000  H
  H22      1.0000 0.98110  0.15810  0.37750  Biso   1.000  H
  C39      1.0000 0.14990  0.57730  0.53020  Biso   1.000  C
  C40      1.0000 0.85010  0.42270  0.46980  Biso   1.000  C
  C41      1.0000 0.34580  0.54600  0.43430  Biso   1.000  C
  C42      1.0000 0.65420  0.45400  0.56570  Biso   1.000  C
  C43      1.0000 0.38600  0.58410  0.34510  Biso   1.000  C
  C44      1.0000 0.61400  0.41590  0.65490  Biso   1.000  C
  H23      1.0000 0.35830  0.64990  0.31530  Biso   1.000  H
  H24      1.0000 0.64170  0.35010  0.68470  Biso   1.000  H
  C45      1.0000 0.46730  0.52550  0.29940  Biso   1.000  C
  C46      1.0000 0.53270  0.47450  0.70060  Biso   1.000  C
  C47      1.0000 0.51350  0.42690  0.34640  Biso   1.000  C
  C48      1.0000 0.48650  0.57310  0.65360  Biso   1.000  C
  H25      1.0000 0.57140  0.38740  0.31720  Biso   1.000  H
  H26      1.0000 0.42860  0.61260  0.68280  Biso   1.000  H
  C49      1.0000 0.47200  0.38820  0.43730  Biso   1.000  C
  C50      1.0000 0.52800  0.61180  0.56270  Biso   1.000  C
  C51      1.0000 0.38780  0.44900  0.48090  Biso   1.000  C
  C52      1.0000 0.61220  0.55100  0.51910  Biso   1.000  C
  H27      1.0000 0.36000  0.42410  0.54120  Biso   1.000  H
  H28      1.0000 0.64000  0.57590  0.45880  Biso   1.000  H
  C53      1.0000 0.50710  0.56380  0.20080  Biso   1.000  C
  C54      1.0000 0.49290  0.43620  0.79920  Biso   1.000  C
  C55      1.0000 0.52410  0.28300  0.48610  Biso   1.000  C
  C56      1.0000 0.47590  0.71700  0.51390  Biso   1.000  C
  C57      1.0000 0.88040  0.57030  0.79570  Biso   1.000  C
  C58      1.0000 0.11960  0.42970  0.20430  Biso   1.000  C
  H29      1.0000 0.80250  0.60850  0.80920  Biso   1.000  H
  H30      1.0000 0.19750  0.39150  0.19080  Biso   1.000  H
  C59      1.0000 0.88140  0.49280  0.76640  Biso   1.000  C
  C60      1.0000 0.11860  0.50720  0.23360  Biso   1.000  C
  H31      1.0000 0.80520  0.48010  0.75950  Biso   1.000  H
  H32      1.0000 0.19480  0.51990  0.24050  Biso   1.000  H
  C61      1.0000 0.99770  0.43530  0.74780  Biso   1.000  C
  C62      1.0000 0.00230  0.56470  0.25220  Biso   1.000  C
  C63      1.0000 0.11200  0.45340  0.75810  Biso   1.000  C
  C64      1.0000 0.88800  0.54660  0.24190  Biso   1.000  C
  H33      1.0000 0.18970  0.41380  0.74650  Biso   1.000  H
  H34      1.0000 0.81030  0.58620  0.25350  Biso   1.000  H
  C65      1.0000 0.10860  0.53250  0.78650  Biso   1.000  C
  C66      1.0000 0.89140  0.46750  0.21350  Biso   1.000  C
  H35      1.0000 0.18480  0.54570  0.79290  Biso   1.000  H
  H36      1.0000 0.81520  0.45430  0.20710  Biso   1.000  H
  C67      1.0000 0.98410  0.35790  0.71300  Biso   1.000  C
  C68      1.0000 0.01590  0.64210  0.28700  Biso   1.000  C
  C69      1.0000 0.08860  0.21000  0.67330  Biso   1.000  C
  C70      1.0000 0.91140  0.79000  0.32670  Biso   1.000  C
  C71      1.0000 0.97420  0.19040  0.66640  Biso   1.000  C
  C72      1.0000 0.02580  0.80960  0.33360  Biso   1.000  C
  H37      1.0000 0.89730  0.22540  0.68520  Biso   1.000  H
  H38      1.0000 0.10270  0.77460  0.31480  Biso   1.000  H
  C73      1.0000 0.97560  0.11650  0.63030  Biso   1.000  C
  C74      1.0000 0.02440  0.88350  0.36970  Biso   1.000  C
  C75      1.0000 0.09170  0.06500  0.60320  Biso   1.000  C
  C76      1.0000 0.90830  0.93500  0.39680  Biso   1.000  C
  H39      1.0000 0.09300  0.01650  0.57930  Biso   1.000  H
  H40      1.0000 0.90700  0.98350  0.42070  Biso   1.000  H
  C77      1.0000 0.20670  0.08480  0.61120  Biso   1.000  C
  C78      1.0000 0.79330  0.91520  0.38880  Biso   1.000  C
  C79      1.0000 0.20590  0.15740  0.64740  Biso   1.000  C
  C80      1.0000 0.79410  0.84260  0.35260  Biso   1.000  C
  H41      1.0000 0.28200  0.17040  0.65420  Biso   1.000  H
  H42      1.0000 0.71800  0.82960  0.34580  Biso   1.000  H
  C81      1.0000 0.85190  0.10440  0.61270  Biso   1.000  C
  C82      1.0000 0.14810  0.89560  0.38730  Biso   1.000  C
  C83      1.0000 0.32730  0.03450  0.57340  Biso   1.000  C
  C84      1.0000 0.67270  0.96550  0.42660  Biso   1.000  C
  C85      1.0000 0.51440  0.13060  0.09680  Biso   1.000  C
  C86      1.0000 0.48560  0.86940  0.90320  Biso   1.000  C
  H43      1.0000 0.50620  0.09360  0.06220  Biso   1.000  H
  H44      1.0000 0.49380  0.90640  0.93780  Biso   1.000  H
  Cu1      1.0000 0.98080  0.70883  0.82299  Biso   1.000  Cu
  Cu2      1.0000 0.01920  0.29117  0.17701  Biso   1.000  Cu
  N1       1.0000 0.99570  0.83070  0.81920  Biso   1.000  N
  N2       1.0000 0.00430  0.16930  0.18080  Biso   1.000  N
  N3       1.0000 0.95430  0.13590  0.89960  Biso   1.000  N
  N4       1.0000 0.04570  0.86410  0.10040  Biso   1.000  N
  H45      1.0000 0.88150  0.13560  0.88450  Biso   1.000  H
  H46      1.0000 0.11850  0.86440  0.11550  Biso   1.000  H
  N5       1.0000 0.86810  0.79440  0.61180  Biso   1.000  N
  N6       1.0000 0.13190  0.20560  0.38820  Biso   1.000  N
  N7       1.0000 0.25550  0.60660  0.47750  Biso   1.000  N
  N8       1.0000 0.74450  0.39340  0.52250  Biso   1.000  N
  H47      1.0000 0.26580  0.66270  0.47120  Biso   1.000  H
  H48      1.0000 0.73420  0.33730  0.52880  Biso   1.000  H
  N9       1.0000 0.99270  0.59130  0.80520  Biso   1.000  N
  N10      1.0000 0.00730  0.40870  0.19480  Biso   1.000  N
  N11      1.0000 0.08880  0.28580  0.70700  Biso   1.000  N
  N12      1.0000 0.91120  0.71420  0.29300  Biso   1.000  N
  H49      1.0000 0.15980  0.28640  0.72480  Biso   1.000  H
  H50      1.0000 0.84020  0.71360  0.27520  Biso   1.000  H
  O1       1.0000 0.16230  0.05480  0.90940  Biso   1.000  O
  O2       1.0000 0.83770  0.94520  0.09060  Biso   1.000  O
  O3       1.0000 0.62090  0.40510  0.98020  Biso   1.000  O
  O4       1.0000 0.37910  0.59490  0.01980  Biso   1.000  O
  O5       1.0000 0.73430  0.49410  0.00560  Biso   1.000  O
  O6       1.0000 0.26570  0.50590  0.99440  Biso   1.000  O
  O7       1.0000 0.22350  0.31650  0.06370  Biso   1.000  O
  O8       1.0000 0.77650  0.68350  0.93630  Biso   1.000  O
  O9       1.0000 0.28360  0.32370  0.92340  Biso   1.000  O
  O10      1.0000 0.71640  0.67630  0.07660  Biso   1.000  O
  O11      1.0000 0.13410  0.50050  0.54870  Biso   1.000  O
  O12      1.0000 0.86590  0.49950  0.45130  Biso   1.000  O
  O13      1.0000 0.47030  0.65560  0.16110  Biso   1.000  O
  O14      1.0000 0.52970  0.34440  0.83890  Biso   1.000  O
  O15      1.0000 0.56520  0.50660  0.16080  Biso   1.000  O
  O16      1.0000 0.43480  0.49340  0.83920  Biso   1.000  O
  O17      1.0000 0.59590  0.22960  0.44600  Biso   1.000  O
  O18      1.0000 0.40410  0.77040  0.55400  Biso   1.000  O
  O19      1.0000 0.48710  0.25080  0.56800  Biso   1.000  O
  O20      1.0000 0.51290  0.74920  0.43200  Biso   1.000  O
  O21      1.0000 0.88060  0.35860  0.69580  Biso   1.000  O
  O22      1.0000 0.11940  0.64140  0.30420  Biso   1.000  O
  O23      1.0000 0.75090  0.16820  0.62120  Biso   1.000  O
  O24      1.0000 0.24910  0.83180  0.37880  Biso   1.000  O
  O25      1.0000 0.84740  0.03620  0.58820  Biso   1.000  O
  O26      1.0000 0.15260  0.96380  0.41180  Biso   1.000  O
  O27      1.0000 0.42800  0.06330  0.57400  Biso   1.000  O
  O28      1.0000 0.57200  0.93670  0.42600  Biso   1.000  O
  O29      1.0000 0.32640  0.97100  0.54240  Biso   1.000  O
  O30      1.0000 0.67360  0.02900  0.45760  Biso   1.000  O
  O31      1.0000 0.52260  0.21280  0.05020  Biso   1.000  O
  O32      1.0000 0.47740  0.78720  0.94980  Biso   1.000  O
  O33      1.0000 0.51470  0.08550  0.18070  Biso   1.000  O
  O34      1.0000 0.48530  0.91450  0.81930  Biso   1.000  O
  O35      1.0000 0.44560  0.36730  0.14250  Biso   1.000  O
  O36      1.0000 0.55440  0.63270  0.85750  Biso   1.000  O
  H51      1.0000 0.45360  0.42920  0.14140  Biso   1.000  H
  H52      1.0000 0.54640  0.57080  0.85860  Biso   1.000  H
  H53      1.0000 0.51980  0.31860  0.16810  Biso   1.000  H
  H54      1.0000 0.48020  0.68140  0.83190  Biso   1.000  H
  O37      1.0000 0.54710  0.07330  0.73370  Biso   1.000  O
  O38      1.0000 0.45290  0.92670  0.26630  Biso   1.000  O
  H55      1.0000 0.47100  0.12290  0.73510  Biso   1.000  H
  H56      1.0000 0.52900  0.87710  0.26490  Biso   1.000  H
  H57      1.0000 0.52920  0.01110  0.76390  Biso   1.000  H
  H58      1.0000 0.47080  0.98890  0.23610  Biso   1.000  H
  O39      1.0000 0.66740  0.91680  0.65850  Biso   1.000  O
  O40      1.0000 0.33260  0.08320  0.34150  Biso   1.000  O
  H59      1.0000 0.73560  0.88410  0.62600  Biso   1.000  H
  H60      1.0000 0.26440  0.11590  0.37400  Biso   1.000  H
  H61      1.0000 0.69330  0.90570  0.71830  Biso   1.000  H
  H62      1.0000 0.30670  0.09430  0.28170  Biso   1.000  H
  O41      1.0000 0.63920  0.72980  0.26170  Biso   1.000  O
  O42      1.0000 0.36080  0.27020  0.73830  Biso   1.000  O
  H63      1.0000 0.61130  0.70610  0.31590  Biso   1.000  H
  H64      1.0000 0.38870  0.29390  0.68410  Biso   1.000  H
  H65      1.0000 0.61400  0.72580  0.21450  Biso   1.000  H
  H66      1.0000 0.38600  0.27420  0.78550  Biso   1.000  H
  O43      1.0000 0.69130  0.17320  0.82760  Biso   1.000  O
  O44      1.0000 0.30870  0.82680  0.17240  Biso   1.000  O
  H67      1.0000 0.64710  0.21370  0.85320  Biso   1.000  H
  H68      1.0000 0.35290  0.78630  0.14680  Biso   1.000  H
  H69      1.0000 0.67520  0.19780  0.77160  Biso   1.000  H
  H70      1.0000 0.32480  0.80220  0.22840  Biso   1.000  H
  O45      1.0000 0.53870  0.20780  0.28180  Biso   1.000  O
  O46      1.0000 0.46130  0.79220  0.71820  Biso   1.000  O
  H71      1.0000 0.55350  0.20460  0.33480  Biso   1.000  H
  H72      1.0000 0.44650  0.79540  0.66520  Biso   1.000  H
  H73      1.0000 0.52800  0.15390  0.28310  Biso   1.000  H
  H74      1.0000 0.47200  0.84610  0.71690  Biso   1.000  H
  Tb1      1.0000 0.61809  0.08666  0.57826  Biso   1.000  Tb
  Tb2      1.0000 0.38191  0.91334  0.42174  Biso   1.000  Tb
  Tb3      1.0000 0.42776  0.37137  0.98856  Biso   1.000  Tb
  Tb4      1.0000 0.57224  0.62863  0.01144  Biso   1.000  Tb
