data_image0
_cell_length_a       10.837
_cell_length_b       11.274
_cell_length_c       11.321
_cell_angle_alpha    68.49
_cell_angle_beta     83.08
_cell_angle_gamma    64.04

_symmetry_space_group_name_H-M    "P 1"
_symmetry_int_tables_number       1

loop_
  _symmetry_equiv_pos_as_xyz
  'x, y, z'

loop_
  _atom_site_label
  _atom_site_occupancy
  _atom_site_fract_x
  _atom_site_fract_y
  _atom_site_fract_z
  _atom_site_thermal_displace_type
  _atom_site_B_iso_or_equiv
  _atom_site_type_symbol
  Mo1      1.0000 0.15242  0.33765  0.52025  Biso   1.000  Mo
  Mo2      1.0000 0.84758  0.66235  0.47975  Biso   1.000  Mo
  Mo3      1.0000 0.11287  0.59441  0.25845  Biso   1.000  Mo
  Mo4      1.0000 0.88713  0.40559  0.74155  Biso   1.000  Mo
  Mo5      1.0000 0.85679  0.47898  0.31692  Biso   1.000  Mo
  Mo6      1.0000 0.14321  0.52102  0.68308  Biso   1.000  Mo
  Mo7      1.0000 0.90414  0.21047  0.57950  Biso   1.000  Mo
  Mo8      1.0000 0.09586  0.78953  0.42050  Biso   1.000  Mo
  Cu1      1.0000 0.96521  0.20002  0.20626  Biso   1.000  Cu
  Cu2      1.0000 0.03479  0.79998  0.79374  Biso   1.000  Cu
  Cu3      1.0000 0.00000  0.00000  0.00000  Biso   1.000  Cu
  O1       1.0000 0.32478  0.27638  0.51722  Biso   1.000  O
  O2       1.0000 0.67522  0.72362  0.48278  Biso   1.000  O
  O3       1.0000 0.28629  0.53223  0.25875  Biso   1.000  O
  O4       1.0000 0.71371  0.46777  0.74125  Biso   1.000  O
  O5       1.0000 0.09665  0.41447  0.34121  Biso   1.000  O
  O6       1.0000 0.90335  0.58553  0.65879  Biso   1.000  O
  O7       1.0000 0.91396  0.28094  0.39819  Biso   1.000  O
  O8       1.0000 0.08604  0.71906  0.60181  Biso   1.000  O
  N1       1.0000 0.14402  0.19357  0.19695  Biso   1.000  N
  N2       1.0000 0.85598  0.80643  0.80305  Biso   1.000  N
  O9       1.0000 0.12275  0.18749  0.56065  Biso   1.000  O
  O10      1.0000 0.87725  0.81251  0.43935  Biso   1.000  O
  O11      1.0000 0.06205  0.77769  0.26289  Biso   1.000  O
  O12      1.0000 0.93795  0.22231  0.73711  Biso   1.000  O
  O13      1.0000 0.09621  0.55792  0.47546  Biso   1.000  O
  O14      1.0000 0.90379  0.44208  0.52454  Biso   1.000  O
  O15      1.0000 0.12011  0.35502  0.68774  Biso   1.000  O
  O16      1.0000 0.87989  0.64498  0.31226  Biso   1.000  O
  O17      1.0000 0.68310  0.54432  0.32667  Biso   1.000  O
  O18      1.0000 0.31690  0.45568  0.67333  Biso   1.000  O
  O19      1.0000 0.88321  0.48599  0.16423  Biso   1.000  O
  O20      1.0000 0.11679  0.51401  0.83577  Biso   1.000  O
  O21      1.0000 0.06359  0.64015  0.10501  Biso   1.000  O
  O22      1.0000 0.93641  0.35985  0.89499  Biso   1.000  O
  O23      1.0000 0.73043  0.26888  0.58526  Biso   1.000  O
  O24      1.0000 0.26957  0.73112  0.41474  Biso   1.000  O
  N3       1.0000 0.78153  0.22264  0.20025  Biso   1.000  N
  N4       1.0000 0.21847  0.77736  0.79975  Biso   1.000  N
  O25      1.0000 0.96236  0.03393  0.61705  Biso   1.000  O
  O26      1.0000 0.03764  0.96607  0.38295  Biso   1.000  O
  N5       1.0000 0.81874  0.01694  0.00050  Biso   1.000  N
  N6       1.0000 0.18126  0.98306  0.99950  Biso   1.000  N
  C1       1.0000 0.17030  0.29260  0.10280  Biso   1.000  C
  C2       1.0000 0.82970  0.70740  0.89720  Biso   1.000  C
  H1       1.0000 0.10350  0.35500  0.03470  Biso   1.000  H
  H2       1.0000 0.89650  0.64500  0.96530  Biso   1.000  H
  C3       1.0000 0.38941  0.21841  0.19899  Biso   1.000  C
  C4       1.0000 0.61059  0.78159  0.80101  Biso   1.000  C
  C5       1.0000 0.28940  0.30750  0.10070  Biso   1.000  C
  C6       1.0000 0.71060  0.69250  0.89930  Biso   1.000  C
  H3       1.0000 0.30390  0.37910  0.03190  Biso   1.000  H
  H4       1.0000 0.69610  0.62090  0.96810  Biso   1.000  H
  C7       1.0000 0.52080  0.22870  0.20000  Biso   1.000  C
  C8       1.0000 0.47920  0.77130  0.80000  Biso   1.000  C
  C9       1.0000 0.56577  0.00535  0.00040  Biso   1.000  C
  C10      1.0000 0.43423  0.99465  0.99960  Biso   1.000  C
  C11      1.0000 0.69860  0.29270  0.09460  Biso   1.000  C
  C12      1.0000 0.30140  0.70730  0.90540  Biso   1.000  C
  H5       1.0000 0.73010  0.34170  0.01900  Biso   1.000  H
  H6       1.0000 0.26990  0.65830  0.98100  Biso   1.000  H
  C13      1.0000 0.36180  0.11580  0.29540  Biso   1.000  C
  C14      1.0000 0.63820  0.88420  0.70460  Biso   1.000  C
  H7       1.0000 0.42730  0.05120  0.36400  Biso   1.000  H
  H8       1.0000 0.57270  0.94880  0.63600  Biso   1.000  H
  C15      1.0000 0.73110  0.16210  0.30710  Biso   1.000  C
  C16      1.0000 0.26890  0.83790  0.69290  Biso   1.000  C
  H9       1.0000 0.78630  0.11540  0.38370  Biso   1.000  H
  H10      1.0000 0.21370  0.88460  0.61630  Biso   1.000  H
  C17      1.0000 0.60260  0.09510  0.89770  Biso   1.000  C
  C18      1.0000 0.39740  0.90490  0.10230  Biso   1.000  C
  H11      1.0000 0.54140  0.15470  0.82510  Biso   1.000  H
  H12      1.0000 0.45860  0.84530  0.17490  Biso   1.000  H
  C19      1.0000 0.57020  0.29690  0.09100  Biso   1.000  C
  C20      1.0000 0.42980  0.70310  0.90900  Biso   1.000  C
  H13      1.0000 0.51580  0.34650  0.01370  Biso   1.000  H
  H14      1.0000 0.48420  0.65350  0.98630  Biso   1.000  H
  C21      1.0000 0.60310  0.16440  0.31070  Biso   1.000  C
  C22      1.0000 0.39690  0.83560  0.68930  Biso   1.000  C
  H15      1.0000 0.57070  0.12180  0.38920  Biso   1.000  H
  H16      1.0000 0.42930  0.87820  0.61080  Biso   1.000  H
  C23      1.0000 0.78000  0.93640  0.10200  Biso   1.000  C
  C24      1.0000 0.22000  0.06360  0.89800  Biso   1.000  C
  H17      1.0000 0.84010  0.88280  0.17570  Biso   1.000  H
  H18      1.0000 0.15990  0.11720  0.82430  Biso   1.000  H
  C25      1.0000 0.23960  0.10740  0.29180  Biso   1.000  C
  C26      1.0000 0.76040  0.89260  0.70820  Biso   1.000  C
  H19      1.0000 0.22220  0.03720  0.35980  Biso   1.000  H
  H20      1.0000 0.77780  0.96280  0.64020  Biso   1.000  H
  C27      1.0000 0.72810  0.09800  0.90070  Biso   1.000  C
  C28      1.0000 0.27190  0.90200  0.09930  Biso   1.000  C
  H21      1.0000 0.75140  0.16030  0.82900  Biso   1.000  H
  H22      1.0000 0.24860  0.83970  0.17100  Biso   1.000  H
  C29      1.0000 0.65750  0.92710  0.10530  Biso   1.000  C
  C30      1.0000 0.34250  0.07290  0.89470  Biso   1.000  C
  H23      1.0000 0.63540  0.86690  0.17980  Biso   1.000  H
  H24      1.0000 0.36460  0.13310  0.82020  Biso   1.000  H
  O27      1.0000 0.47910  0.46040  0.45900  Biso   1.000  O
  O28      1.0000 0.52090  0.53960  0.54100  Biso   1.000  O
  H25      1.0000 0.48600  0.50900  0.37940  Biso   1.000  H
  H26      1.0000 0.51400  0.49100  0.62060  Biso   1.000  H
  H27      1.0000 0.50000  0.50000  0.50000  Biso   1.000  H
