data_image0
_cell_length_a       10.6353
_cell_length_b       11.5204
_cell_length_c       12.737
_cell_angle_alpha    90
_cell_angle_beta     110.946
_cell_angle_gamma    90

_symmetry_space_group_name_H-M    "P 1"
_symmetry_int_tables_number       1

loop_
  _symmetry_equiv_pos_as_xyz
  'x, y, z'

loop_
  _atom_site_label
  _atom_site_occupancy
  _atom_site_fract_x
  _atom_site_fract_y
  _atom_site_fract_z
  _atom_site_thermal_displace_type
  _atom_site_B_iso_or_equiv
  _atom_site_type_symbol
  C1       1.0000 0.05740  0.12420  0.72850  Biso   1.000  C
  C2       1.0000 0.94260  0.12420  0.77150  Biso   1.000  C
  C3       1.0000 0.55740  0.62420  0.72850  Biso   1.000  C
  C4       1.0000 0.44260  0.62420  0.77150  Biso   1.000  C
  C5       1.0000 0.94260  0.87580  0.27150  Biso   1.000  C
  C6       1.0000 0.05740  0.87580  0.22850  Biso   1.000  C
  C7       1.0000 0.44260  0.37580  0.27150  Biso   1.000  C
  C8       1.0000 0.55740  0.37580  0.22850  Biso   1.000  C
  C9       1.0000 0.05230  0.25280  0.72790  Biso   1.000  C
  C10      1.0000 0.94770  0.25280  0.77210  Biso   1.000  C
  C11      1.0000 0.55230  0.75280  0.72790  Biso   1.000  C
  C12      1.0000 0.44770  0.75280  0.77210  Biso   1.000  C
  C13      1.0000 0.94770  0.74720  0.27210  Biso   1.000  C
  C14      1.0000 0.05230  0.74720  0.22790  Biso   1.000  C
  C15      1.0000 0.44770  0.24720  0.27210  Biso   1.000  C
  C16      1.0000 0.55230  0.24720  0.22790  Biso   1.000  C
  C17      1.0000 0.12640  0.33330  0.69010  Biso   1.000  C
  C18      1.0000 0.87360  0.33330  0.80990  Biso   1.000  C
  C19      1.0000 0.62640  0.83330  0.69010  Biso   1.000  C
  C20      1.0000 0.37360  0.83330  0.80990  Biso   1.000  C
  C21      1.0000 0.87360  0.66670  0.30990  Biso   1.000  C
  C22      1.0000 0.12640  0.66670  0.19010  Biso   1.000  C
  C23      1.0000 0.37360  0.16670  0.30990  Biso   1.000  C
  C24      1.0000 0.62640  0.16670  0.19010  Biso   1.000  C
  C25      1.0000 0.23980  0.29500  0.66570  Biso   1.000  C
  C26      1.0000 0.76020  0.29500  0.83430  Biso   1.000  C
  C27      1.0000 0.73980  0.79500  0.66570  Biso   1.000  C
  C28      1.0000 0.26020  0.79500  0.83430  Biso   1.000  C
  C29      1.0000 0.76020  0.70500  0.33430  Biso   1.000  C
  C30      1.0000 0.23980  0.70500  0.16570  Biso   1.000  C
  C31      1.0000 0.26020  0.20500  0.33430  Biso   1.000  C
  C32      1.0000 0.73980  0.20500  0.16570  Biso   1.000  C
  C33      1.0000 0.08560  0.45090  0.66680  Biso   1.000  C
  C34      1.0000 0.91440  0.45090  0.83320  Biso   1.000  C
  C35      1.0000 0.58560  0.95090  0.66680  Biso   1.000  C
  C36      1.0000 0.41440  0.95090  0.83320  Biso   1.000  C
  C37      1.0000 0.91440  0.54910  0.33320  Biso   1.000  C
  C38      1.0000 0.08560  0.54910  0.16680  Biso   1.000  C
  C39      1.0000 0.41440  0.04910  0.33320  Biso   1.000  C
  C40      1.0000 0.58560  0.04910  0.16680  Biso   1.000  C
  N1       1.0000 0.58060  0.30750  0.55980  Biso   1.000  N
  N2       1.0000 0.41940  0.30750  0.94020  Biso   1.000  N
  N3       1.0000 0.08060  0.80750  0.55980  Biso   1.000  N
  N4       1.0000 0.91940  0.80750  0.94020  Biso   1.000  N
  N5       1.0000 0.41940  0.69250  0.44020  Biso   1.000  N
  N6       1.0000 0.58060  0.69250  0.05980  Biso   1.000  N
  N7       1.0000 0.91940  0.19250  0.44020  Biso   1.000  N
  N8       1.0000 0.08060  0.19250  0.05980  Biso   1.000  N
  C41      1.0000 0.63950  0.37890  0.53540  Biso   1.000  C
  C42      1.0000 0.36050  0.37890  0.96460  Biso   1.000  C
  C43      1.0000 0.13950  0.87890  0.53540  Biso   1.000  C
  C44      1.0000 0.86050  0.87890  0.96460  Biso   1.000  C
  C45      1.0000 0.36050  0.62110  0.46460  Biso   1.000  C
  C46      1.0000 0.63950  0.62110  0.03540  Biso   1.000  C
  C47      1.0000 0.86050  0.12110  0.46460  Biso   1.000  C
  C48      1.0000 0.13950  0.12110  0.03540  Biso   1.000  C
  C49      1.0000 0.71280  0.47140  0.50520  Biso   1.000  C
  C50      1.0000 0.28720  0.47140  0.99480  Biso   1.000  C
  C51      1.0000 0.21280  0.97140  0.50520  Biso   1.000  C
  C52      1.0000 0.78720  0.97140  0.99480  Biso   1.000  C
  C53      1.0000 0.28720  0.52860  0.49480  Biso   1.000  C
  C54      1.0000 0.71280  0.52860  0.00520  Biso   1.000  C
  C55      1.0000 0.78720  0.02860  0.49480  Biso   1.000  C
  C56      1.0000 0.21280  0.02860  0.00520  Biso   1.000  C
  H1       1.0000 0.75000  0.51700  0.57000  Biso   1.000  H
  H2       1.0000 0.25000  0.51700  0.93000  Biso   1.000  H
  H3       1.0000 0.25000  0.01700  0.57000  Biso   1.000  H
  H4       1.0000 0.75000  0.01700  0.93000  Biso   1.000  H
  H5       1.0000 0.25000  0.48300  0.43000  Biso   1.000  H
  H6       1.0000 0.75000  0.48300  0.07000  Biso   1.000  H
  H7       1.0000 0.75000  0.98300  0.43000  Biso   1.000  H
  H8       1.0000 0.25000  0.98300  0.07000  Biso   1.000  H
  H9       1.0000 0.65900  0.51200  0.43900  Biso   1.000  H
  H10      1.0000 0.34100  0.51200  0.06100  Biso   1.000  H
  H11      1.0000 0.15900  0.01200  0.43900  Biso   1.000  H
  H12      1.0000 0.84100  0.01200  0.06100  Biso   1.000  H
  H13      1.0000 0.34100  0.48800  0.56100  Biso   1.000  H
  H14      1.0000 0.65900  0.48800  0.93900  Biso   1.000  H
  H15      1.0000 0.84100  0.98800  0.56100  Biso   1.000  H
  H16      1.0000 0.15900  0.98800  0.93900  Biso   1.000  H
  H17      1.0000 0.78600  0.44500  0.48500  Biso   1.000  H
  H18      1.0000 0.21400  0.44500  0.01500  Biso   1.000  H
  H19      1.0000 0.28600  0.94500  0.48500  Biso   1.000  H
  H20      1.0000 0.71400  0.94500  0.01500  Biso   1.000  H
  H21      1.0000 0.21400  0.55500  0.51500  Biso   1.000  H
  H22      1.0000 0.78600  0.55500  0.98500  Biso   1.000  H
  H23      1.0000 0.71400  0.05500  0.51500  Biso   1.000  H
  H24      1.0000 0.28600  0.05500  0.98500  Biso   1.000  H
  Cu1      1.0000 0.48676  0.20173  0.62423  Biso   1.000  Cu
  Cu2      1.0000 0.51324  0.20173  0.87577  Biso   1.000  Cu
  Cu3      1.0000 0.98676  0.70173  0.62423  Biso   1.000  Cu
  Cu4      1.0000 0.01324  0.70173  0.87577  Biso   1.000  Cu
  Cu5      1.0000 0.51324  0.79827  0.37577  Biso   1.000  Cu
  Cu6      1.0000 0.48676  0.79827  0.12423  Biso   1.000  Cu
  Cu7      1.0000 0.01324  0.29827  0.37577  Biso   1.000  Cu
  Cu8      1.0000 0.98676  0.29827  0.12423  Biso   1.000  Cu
  O1       1.0000 0.12890  0.05200  0.70740  Biso   1.000  O
  O2       1.0000 0.87110  0.05200  0.79260  Biso   1.000  O
  O3       1.0000 0.62890  0.55200  0.70740  Biso   1.000  O
  O4       1.0000 0.37110  0.55200  0.79260  Biso   1.000  O
  O5       1.0000 0.87110  0.94800  0.29260  Biso   1.000  O
  O6       1.0000 0.12890  0.94800  0.20740  Biso   1.000  O
  O7       1.0000 0.37110  0.44800  0.29260  Biso   1.000  O
  O8       1.0000 0.62890  0.44800  0.20740  Biso   1.000  O
  N9       1.0000 0.33220  0.26040  0.64880  Biso   1.000  N
  N10      1.0000 0.66780  0.26040  0.85120  Biso   1.000  N
  N11      1.0000 0.83220  0.76040  0.64880  Biso   1.000  N
  N12      1.0000 0.16780  0.76040  0.85120  Biso   1.000  N
  N13      1.0000 0.66780  0.73960  0.35120  Biso   1.000  N
  N14      1.0000 0.33220  0.73960  0.14880  Biso   1.000  N
  N15      1.0000 0.16780  0.23960  0.35120  Biso   1.000  N
  N16      1.0000 0.83220  0.23960  0.14880  Biso   1.000  N
  N17      1.0000 0.04840  0.54540  0.64590  Biso   1.000  N
  N18      1.0000 0.95160  0.54540  0.85410  Biso   1.000  N
  N19      1.0000 0.54840  0.04540  0.64590  Biso   1.000  N
  N20      1.0000 0.45160  0.04540  0.85410  Biso   1.000  N
  N21      1.0000 0.95160  0.45460  0.35410  Biso   1.000  N
  N22      1.0000 0.04840  0.45460  0.14590  Biso   1.000  N
  N23      1.0000 0.45160  0.95460  0.35410  Biso   1.000  N
  N24      1.0000 0.54840  0.95460  0.14590  Biso   1.000  N
