data_image0
_cell_length_a       7.978
_cell_length_b       8.8
_cell_length_c       10.66
_cell_angle_alpha    112.999
_cell_angle_beta     97.436
_cell_angle_gamma    106.403

_symmetry_space_group_name_H-M    "P 1"
_symmetry_int_tables_number       1

loop_
  _symmetry_equiv_pos_as_xyz
  'x, y, z'

loop_
  _atom_site_label
  _atom_site_occupancy
  _atom_site_fract_x
  _atom_site_fract_y
  _atom_site_fract_z
  _atom_site_thermal_displace_type
  _atom_site_B_iso_or_equiv
  _atom_site_type_symbol
  Cu1      1.0000 0.37200  0.16914  0.39614  Biso   1.000  Cu
  Cu2      1.0000 0.62800  0.83086  0.60386  Biso   1.000  Cu
  N1       1.0000 0.09440  0.05880  0.33170  Biso   1.000  N
  N2       1.0000 0.90560  0.94120  0.66830  Biso   1.000  N
  N3       1.0000 0.47240  0.03120  0.46790  Biso   1.000  N
  N4       1.0000 0.52760  0.96880  0.53210  Biso   1.000  N
  C1       1.0000 0.46990  0.42490  0.47690  Biso   1.000  C
  C2       1.0000 0.53010  0.57510  0.52310  Biso   1.000  C
  N5       1.0000 0.01410  0.91850  0.20420  Biso   1.000  N
  N6       1.0000 0.98590  0.08150  0.79580  Biso   1.000  N
  C3       1.0000 0.96000  0.10600  0.37830  Biso   1.000  C
  C4       1.0000 0.04000  0.89400  0.62170  Biso   1.000  C
  Cu3      1.0000 0.51711  0.95653  0.24270  Biso   1.000  Cu
  Cu4      1.0000 0.48289  0.04347  0.75730  Biso   1.000  Cu
  N7       1.0000 0.83900  0.88480  0.17620  Biso   1.000  N
  N8       1.0000 0.16100  0.11520  0.82380  Biso   1.000  N
  N9       1.0000 0.79840  0.00000  0.28300  Biso   1.000  N
  N10      1.0000 0.20160  0.00000  0.71700  Biso   1.000  N
  C5       1.0000 0.98760  0.25670  0.51470  Biso   1.000  C
  C6       1.0000 0.01240  0.74330  0.48530  Biso   1.000  C
  C7       1.0000 0.44360  0.10530  0.17340  Biso   1.000  C
  C8       1.0000 0.55640  0.89470  0.82660  Biso   1.000  C
  N11      1.0000 0.41240  0.69410  0.15450  Biso   1.000  N
  N12      1.0000 0.58760  0.30590  0.84550  Biso   1.000  N
  Cu5      1.0000 0.66548  0.69774  0.98600  Biso   1.000  Cu
  Cu6      1.0000 0.33452  0.30226  0.01400  Biso   1.000  Cu
  C9       1.0000 0.14590  0.32420  0.62370  Biso   1.000  C
  C10      1.0000 0.85410  0.67580  0.37630  Biso   1.000  C
  C11      1.0000 0.86220  0.33990  0.53660  Biso   1.000  C
  C12      1.0000 0.13780  0.66010  0.46340  Biso   1.000  C
  N13      1.0000 0.40950  0.17580  0.11050  Biso   1.000  N
  N14      1.0000 0.59050  0.82420  0.88950  Biso   1.000  N
  C13      1.0000 0.62830  0.44990  0.89630  Biso   1.000  C
  C14      1.0000 0.37170  0.55010  0.10370  Biso   1.000  C
  H1       1.0000 0.23140  0.27010  0.61300  Biso   1.000  H
  H2       1.0000 0.76860  0.72990  0.38700  Biso   1.000  H
  C15      1.0000 0.17340  0.47180  0.74710  Biso   1.000  C
  C16      1.0000 0.82660  0.52820  0.25290  Biso   1.000  C
  C17      1.0000 0.89570  0.48450  0.66270  Biso   1.000  C
  C18      1.0000 0.10430  0.51550  0.33730  Biso   1.000  C
  H3       1.0000 0.75570  0.29740  0.46580  Biso   1.000  H
  H4       1.0000 0.24430  0.70260  0.53420  Biso   1.000  H
  N15      1.0000 0.05090  0.55090  0.76490  Biso   1.000  N
  N16      1.0000 0.94910  0.44910  0.23510  Biso   1.000  N
  H5       1.0000 0.27890  0.51770  0.81960  Biso   1.000  H
  H6       1.0000 0.72110  0.48230  0.18040  Biso   1.000  H
  H7       1.0000 0.80980  0.53760  0.67780  Biso   1.000  H
  H8       1.0000 0.19020  0.46240  0.32220  Biso   1.000  H
  C19      1.0000 0.08890  0.71350  0.89840  Biso   1.000  C
  C20      1.0000 0.91110  0.28650  0.10160  Biso   1.000  C
  H9       1.0000 0.09780  0.68560  0.97690  Biso   1.000  H
  H10      1.0000 0.90220  0.31440  0.02310  Biso   1.000  H
  H11      1.0000 0.99210  0.75730  0.89290  Biso   1.000  H
  H12      1.0000 0.00790  0.24270  0.10710  Biso   1.000  H
  H13      1.0000 0.20110  0.80250  0.91130  Biso   1.000  H
  H14      1.0000 0.79890  0.19750  0.08870  Biso   1.000  H
