data_image0
_cell_length_a       5.1085
_cell_length_b       8.4464
_cell_length_c       9.0987
_cell_angle_alpha    98.298
_cell_angle_beta     96.627
_cell_angle_gamma    104.739

_symmetry_space_group_name_H-M    "P 1"
_symmetry_int_tables_number       1

loop_
  _symmetry_equiv_pos_as_xyz
  'x, y, z'

loop_
  _atom_site_label
  _atom_site_occupancy
  _atom_site_fract_x
  _atom_site_fract_y
  _atom_site_fract_z
  _atom_site_thermal_displace_type
  _atom_site_B_iso_or_equiv
  _atom_site_type_symbol
  C1       1.0000 0.39230  0.74920  0.17280  Biso   1.000  C
  C2       1.0000 0.60770  0.25080  0.82720  Biso   1.000  C
  C3       1.0000 0.18450  0.59020  0.18270  Biso   1.000  C
  C4       1.0000 0.81550  0.40980  0.81730  Biso   1.000  C
  H1       1.0000 0.00530  0.59110  0.19130  Biso   1.000  H
  H2       1.0000 0.99470  0.40890  0.80870  Biso   1.000  H
  C5       1.0000 0.25620  0.44410  0.17900  Biso   1.000  C
  C6       1.0000 0.74380  0.55590  0.82100  Biso   1.000  C
  H3       1.0000 0.44000  0.44540  0.18770  Biso   1.000  H
  H4       1.0000 0.56000  0.55460  0.81230  Biso   1.000  H
  C7       1.0000 0.04100  0.28350  0.16120  Biso   1.000  C
  C8       1.0000 0.95900  0.71650  0.83880  Biso   1.000  C
  O1       1.0000 0.30410  0.87840  0.18660  Biso   1.000  O
  O2       1.0000 0.69590  0.12160  0.81340  Biso   1.000  O
  O3       1.0000 0.63270  0.74750  0.16050  Biso   1.000  O
  O4       1.0000 0.36730  0.25250  0.83950  Biso   1.000  O
  O5       1.0000 0.79740  0.28390  0.15390  Biso   1.000  O
  O6       1.0000 0.20260  0.71610  0.84610  Biso   1.000  O
  O7       1.0000 0.12150  0.14990  0.15860  Biso   1.000  O
  O8       1.0000 0.87850  0.85010  0.84140  Biso   1.000  O
  C9       1.0000 0.93690  0.76090  0.49780  Biso   1.000  C
  C10      1.0000 0.06310  0.23910  0.50220  Biso   1.000  C
  C11      1.0000 0.89710  0.92970  0.50000  Biso   1.000  C
  C12      1.0000 0.10290  0.07030  0.50000  Biso   1.000  C
  H5       1.0000 0.72070  0.94050  0.50140  Biso   1.000  H
  H6       1.0000 0.27930  0.05950  0.49860  Biso   1.000  H
  O9       1.0000 0.18210  0.75130  0.50590  Biso   1.000  O
  O10      1.0000 0.81790  0.24870  0.49410  Biso   1.000  O
  O11      1.0000 0.26880  0.36130  0.50900  Biso   1.000  O
  O12      1.0000 0.73120  0.63870  0.49100  Biso   1.000  O
  Cu1      1.0000 0.26250  0.55171  0.39759  Biso   1.000  Cu
  Cu2      1.0000 0.73750  0.44829  0.60241  Biso   1.000  Cu
  Cu3      1.0000 0.52130  0.08856  0.15832  Biso   1.000  Cu
  Cu4      1.0000 0.47870  0.91144  0.84168  Biso   1.000  Cu
  Cu5      1.0000 0.93700  0.95550  0.26880  Biso   1.000  Cu
  Cu6      1.0000 0.06300  0.04450  0.73120  Biso   1.000  Cu
  Cu7      1.0000 0.88790  0.93620  0.14000  Biso   1.000  Cu
  Cu8      1.0000 0.11210  0.06380  0.86000  Biso   1.000  Cu
