data_image0
_cell_length_a       14.393
_cell_length_b       8.881
_cell_length_c       9.287
_cell_angle_alpha    90
_cell_angle_beta     103.8
_cell_angle_gamma    90

_symmetry_space_group_name_H-M    "P 1"
_symmetry_int_tables_number       1

loop_
  _symmetry_equiv_pos_as_xyz
  'x, y, z'

loop_
  _atom_site_label
  _atom_site_occupancy
  _atom_site_fract_x
  _atom_site_fract_y
  _atom_site_fract_z
  _atom_site_thermal_displace_type
  _atom_site_B_iso_or_equiv
  _atom_site_type_symbol
  Cu1      1.0000 0.20102  0.34954  0.87276  Biso   1.000  Cu
  Cu2      1.0000 0.79898  0.84954  0.62724  Biso   1.000  Cu
  Cu3      1.0000 0.79898  0.65046  0.12724  Biso   1.000  Cu
  Cu4      1.0000 0.20102  0.15046  0.37276  Biso   1.000  Cu
  N1       1.0000 0.19840  0.23750  0.18120  Biso   1.000  N
  N2       1.0000 0.80160  0.73750  0.31880  Biso   1.000  N
  N3       1.0000 0.80160  0.76250  0.81880  Biso   1.000  N
  N4       1.0000 0.19840  0.26250  0.68120  Biso   1.000  N
  C1       1.0000 0.19700  0.28070  0.06270  Biso   1.000  C
  C2       1.0000 0.80300  0.78070  0.43730  Biso   1.000  C
  C3       1.0000 0.80300  0.71930  0.93730  Biso   1.000  C
  C4       1.0000 0.19700  0.21930  0.56270  Biso   1.000  C
  O1       1.0000 0.33120  0.51000  0.94740  Biso   1.000  O
  O2       1.0000 0.66880  0.01000  0.55260  Biso   1.000  O
  O3       1.0000 0.66880  0.49000  0.05260  Biso   1.000  O
  O4       1.0000 0.33120  0.99000  0.44740  Biso   1.000  O
  N5       1.0000 0.15290  0.57440  0.80100  Biso   1.000  N
  N6       1.0000 0.84710  0.07440  0.69900  Biso   1.000  N
  N7       1.0000 0.84710  0.42560  0.19900  Biso   1.000  N
  N8       1.0000 0.15290  0.92560  0.30100  Biso   1.000  N
  C5       1.0000 0.07100  0.60110  0.70320  Biso   1.000  C
  C6       1.0000 0.92900  0.10110  0.79680  Biso   1.000  C
  C7       1.0000 0.92900  0.39890  0.29680  Biso   1.000  C
  C8       1.0000 0.07100  0.89890  0.20320  Biso   1.000  C
  H1       1.0000 0.02490  0.52130  0.68130  Biso   1.000  H
  H2       1.0000 0.97510  0.02130  0.81870  Biso   1.000  H
  H3       1.0000 0.97510  0.47870  0.31870  Biso   1.000  H
  H4       1.0000 0.02490  0.97870  0.18130  Biso   1.000  H
  C9       1.0000 0.04960  0.73750  0.62990  Biso   1.000  C
  C10      1.0000 0.95040  0.23750  0.87010  Biso   1.000  C
  C11      1.0000 0.95040  0.26250  0.37010  Biso   1.000  C
  C12      1.0000 0.04960  0.76250  0.12990  Biso   1.000  C
  H5       1.0000 0.98870  0.75290  0.56200  Biso   1.000  H
  H6       1.0000 0.01130  0.25290  0.93800  Biso   1.000  H
  H7       1.0000 0.01130  0.24710  0.43800  Biso   1.000  H
  H8       1.0000 0.98870  0.74710  0.06200  Biso   1.000  H
  C13      1.0000 0.11550  0.85070  0.65760  Biso   1.000  C
  C14      1.0000 0.88450  0.35070  0.84240  Biso   1.000  C
  C15      1.0000 0.88450  0.14930  0.34240  Biso   1.000  C
  C16      1.0000 0.11550  0.64930  0.15760  Biso   1.000  C
  H9       1.0000 0.10280  0.94470  0.60560  Biso   1.000  H
  H10      1.0000 0.89720  0.44470  0.89440  Biso   1.000  H
  H11      1.0000 0.89720  0.05530  0.39440  Biso   1.000  H
  H12      1.0000 0.10280  0.55530  0.10560  Biso   1.000  H
  C17      1.0000 0.20130  0.82620  0.76100  Biso   1.000  C
  C18      1.0000 0.79870  0.32620  0.73900  Biso   1.000  C
  C19      1.0000 0.79870  0.17380  0.23900  Biso   1.000  C
  C20      1.0000 0.20130  0.67380  0.26100  Biso   1.000  C
  H13      1.0000 0.24860  0.90420  0.78520  Biso   1.000  H
  H14      1.0000 0.75140  0.40420  0.71480  Biso   1.000  H
  H15      1.0000 0.75140  0.09580  0.21480  Biso   1.000  H
  H16      1.0000 0.24860  0.59580  0.28520  Biso   1.000  H
  C21      1.0000 0.21780  0.68700  0.82980  Biso   1.000  C
  C22      1.0000 0.78220  0.18700  0.67020  Biso   1.000  C
  C23      1.0000 0.78220  0.31300  0.17020  Biso   1.000  C
  C24      1.0000 0.21780  0.81300  0.32980  Biso   1.000  C
  C25      1.0000 0.31140  0.64380  0.93260  Biso   1.000  C
  C26      1.0000 0.68860  0.14380  0.56740  Biso   1.000  C
  C27      1.0000 0.68860  0.35620  0.06740  Biso   1.000  C
  C28      1.0000 0.31140  0.85620  0.43260  Biso   1.000  C
  C29      1.0000 0.37800  0.75890  0.01220  Biso   1.000  C
  C30      1.0000 0.62200  0.25890  0.48780  Biso   1.000  C
  C31      1.0000 0.62200  0.24110  0.98780  Biso   1.000  C
  C32      1.0000 0.37800  0.74110  0.51220  Biso   1.000  C
  C33      1.0000 0.34650  0.89070  0.06780  Biso   1.000  C
  C34      1.0000 0.65350  0.39070  0.43220  Biso   1.000  C
  C35      1.0000 0.65350  0.10930  0.93220  Biso   1.000  C
  C36      1.0000 0.34650  0.60930  0.56780  Biso   1.000  C
  H17      1.0000 0.27950  0.91430  0.04460  Biso   1.000  H
  H18      1.0000 0.72050  0.41430  0.45540  Biso   1.000  H
  H19      1.0000 0.72050  0.08570  0.95540  Biso   1.000  H
  H20      1.0000 0.27950  0.58570  0.54460  Biso   1.000  H
  C37      1.0000 0.41200  0.98700  0.15420  Biso   1.000  C
  C38      1.0000 0.58800  0.48700  0.34580  Biso   1.000  C
  C39      1.0000 0.58800  0.01300  0.84580  Biso   1.000  C
  C40      1.0000 0.41200  0.51300  0.65420  Biso   1.000  C
  H21      1.0000 0.39040  0.07590  0.19520  Biso   1.000  H
  H22      1.0000 0.60960  0.57590  0.30480  Biso   1.000  H
  H23      1.0000 0.60960  0.92410  0.80480  Biso   1.000  H
  H24      1.0000 0.39040  0.42410  0.69520  Biso   1.000  H
  C41      1.0000 0.50810  0.95450  0.18420  Biso   1.000  C
  C42      1.0000 0.49190  0.45450  0.31580  Biso   1.000  C
  C43      1.0000 0.49190  0.04550  0.81580  Biso   1.000  C
  C44      1.0000 0.50810  0.54550  0.68420  Biso   1.000  C
  H25      1.0000 0.55340  0.02210  0.24410  Biso   1.000  H
  H26      1.0000 0.44660  0.52210  0.25590  Biso   1.000  H
  H27      1.0000 0.44660  0.97790  0.75590  Biso   1.000  H
  H28      1.0000 0.55340  0.47790  0.74410  Biso   1.000  H
  C45      1.0000 0.54060  0.82730  0.12720  Biso   1.000  C
  C46      1.0000 0.45940  0.32730  0.37280  Biso   1.000  C
  C47      1.0000 0.45940  0.17270  0.87280  Biso   1.000  C
  C48      1.0000 0.54060  0.67270  0.62720  Biso   1.000  C
  H29      1.0000 0.60800  0.80640  0.14760  Biso   1.000  H
  H30      1.0000 0.39200  0.30640  0.35240  Biso   1.000  H
  H31      1.0000 0.39200  0.19360  0.85240  Biso   1.000  H
  H32      1.0000 0.60800  0.69360  0.64760  Biso   1.000  H
  C49      1.0000 0.47590  0.72920  0.04220  Biso   1.000  C
  C50      1.0000 0.52410  0.22920  0.45780  Biso   1.000  C
  C51      1.0000 0.52410  0.27080  0.95780  Biso   1.000  C
  C52      1.0000 0.47590  0.77080  0.54220  Biso   1.000  C
  H33      1.0000 0.49820  0.64070  0.00160  Biso   1.000  H
  H34      1.0000 0.50180  0.14070  0.49840  Biso   1.000  H
  H35      1.0000 0.50180  0.35930  0.99840  Biso   1.000  H
  H36      1.0000 0.49820  0.85930  0.50160  Biso   1.000  H
