data_image0
_cell_length_a       8.399
_cell_length_b       25.186
_cell_length_c       11.874
_cell_angle_alpha    90
_cell_angle_beta     95.32
_cell_angle_gamma    90

_symmetry_space_group_name_H-M    "P 1"
_symmetry_int_tables_number       1

loop_
  _symmetry_equiv_pos_as_xyz
  'x, y, z'

loop_
  _atom_site_label
  _atom_site_occupancy
  _atom_site_fract_x
  _atom_site_fract_y
  _atom_site_fract_z
  _atom_site_thermal_displace_type
  _atom_site_B_iso_or_equiv
  _atom_site_type_symbol
  Cu1      1.0000 0.73702  0.14702  0.96837  Biso   1.000  Cu
  Cu2      1.0000 0.26298  0.64702  0.53163  Biso   1.000  Cu
  Cu3      1.0000 0.26298  0.85298  0.03163  Biso   1.000  Cu
  Cu4      1.0000 0.73702  0.35298  0.46837  Biso   1.000  Cu
  N1       1.0000 0.66130  0.08290  0.05750  Biso   1.000  N
  N2       1.0000 0.33870  0.58290  0.44250  Biso   1.000  N
  N3       1.0000 0.33870  0.91710  0.94250  Biso   1.000  N
  N4       1.0000 0.66130  0.41710  0.55750  Biso   1.000  N
  N5       1.0000 0.83210  0.08590  0.87690  Biso   1.000  N
  N6       1.0000 0.16790  0.58590  0.62310  Biso   1.000  N
  N7       1.0000 0.16790  0.91410  0.12310  Biso   1.000  N
  N8       1.0000 0.83210  0.41410  0.37690  Biso   1.000  N
  C1       1.0000 0.51120  0.13420  0.18250  Biso   1.000  C
  C2       1.0000 0.48880  0.63420  0.31750  Biso   1.000  C
  C3       1.0000 0.48880  0.86580  0.81750  Biso   1.000  C
  C4       1.0000 0.51120  0.36580  0.68250  Biso   1.000  C
  C5       1.0000 0.57600  0.08260  0.14620  Biso   1.000  C
  C6       1.0000 0.42400  0.58260  0.35380  Biso   1.000  C
  C7       1.0000 0.42400  0.91740  0.85380  Biso   1.000  C
  C8       1.0000 0.57600  0.41740  0.64620  Biso   1.000  C
  C9       1.0000 0.54550  0.03510  0.20210  Biso   1.000  C
  C10      1.0000 0.45450  0.53510  0.29790  Biso   1.000  C
  C11      1.0000 0.45450  0.96490  0.79790  Biso   1.000  C
  C12      1.0000 0.54550  0.46490  0.70210  Biso   1.000  C
  C13      1.0000 0.60570  0.98800  0.16640  Biso   1.000  C
  C14      1.0000 0.39430  0.48800  0.33360  Biso   1.000  C
  C15      1.0000 0.39430  0.01200  0.83360  Biso   1.000  C
  C16      1.0000 0.60570  0.51200  0.66640  Biso   1.000  C
  C17      1.0000 0.69020  0.98740  0.07200  Biso   1.000  C
  C18      1.0000 0.30980  0.48740  0.42800  Biso   1.000  C
  C19      1.0000 0.30980  0.01260  0.92800  Biso   1.000  C
  C20      1.0000 0.69020  0.51260  0.57200  Biso   1.000  C
  C21      1.0000 0.75440  0.94010  0.02660  Biso   1.000  C
  C22      1.0000 0.24560  0.44010  0.47340  Biso   1.000  C
  C23      1.0000 0.24560  0.05990  0.97340  Biso   1.000  C
  C24      1.0000 0.75440  0.55990  0.52660  Biso   1.000  C
  C25      1.0000 0.83440  0.94140  0.93500  Biso   1.000  C
  C26      1.0000 0.16560  0.44140  0.56500  Biso   1.000  C
  C27      1.0000 0.16560  0.05860  0.06500  Biso   1.000  C
  C28      1.0000 0.83440  0.55860  0.43500  Biso   1.000  C
  C29      1.0000 0.86340  0.99020  0.87830  Biso   1.000  C
  C30      1.0000 0.13660  0.49020  0.62170  Biso   1.000  C
  C31      1.0000 0.13660  0.00980  0.12170  Biso   1.000  C
  C32      1.0000 0.86340  0.50980  0.37830  Biso   1.000  C
  C33      1.0000 0.94720  0.99400  0.78340  Biso   1.000  C
  C34      1.0000 0.05280  0.49400  0.71660  Biso   1.000  C
  C35      1.0000 0.05280  0.00600  0.21660  Biso   1.000  C
  C36      1.0000 0.94720  0.50600  0.28340  Biso   1.000  C
  C37      1.0000 0.97370  0.04240  0.73790  Biso   1.000  C
  C38      1.0000 0.02630  0.54240  0.76210  Biso   1.000  C
  C39      1.0000 0.02630  0.95760  0.26210  Biso   1.000  C
  C40      1.0000 0.97370  0.45760  0.23790  Biso   1.000  C
  C41      1.0000 0.91540  0.08810  0.78660  Biso   1.000  C
  C42      1.0000 0.08460  0.58810  0.71340  Biso   1.000  C
  C43      1.0000 0.08460  0.91190  0.21340  Biso   1.000  C
  C44      1.0000 0.91540  0.41190  0.28660  Biso   1.000  C
  C45      1.0000 0.94850  0.14210  0.74050  Biso   1.000  C
  C46      1.0000 0.05150  0.64210  0.75950  Biso   1.000  C
  C47      1.0000 0.05150  0.85790  0.25950  Biso   1.000  C
  C48      1.0000 0.94850  0.35790  0.24050  Biso   1.000  C
  C49      1.0000 0.80650  0.03830  0.92250  Biso   1.000  C
  C50      1.0000 0.19350  0.53830  0.57750  Biso   1.000  C
  C51      1.0000 0.19350  0.96170  0.07750  Biso   1.000  C
  C52      1.0000 0.80650  0.46170  0.42250  Biso   1.000  C
  C53      1.0000 0.71700  0.03590  0.01940  Biso   1.000  C
  C54      1.0000 0.28300  0.53590  0.48060  Biso   1.000  C
  C55      1.0000 0.28300  0.96410  0.98060  Biso   1.000  C
  C56      1.0000 0.71700  0.46410  0.51940  Biso   1.000  C
  N9       1.0000 0.56910  0.18820  0.87440  Biso   1.000  N
  N10      1.0000 0.43090  0.68820  0.62560  Biso   1.000  N
  N11      1.0000 0.43090  0.81180  0.12560  Biso   1.000  N
  N12      1.0000 0.56910  0.31180  0.37440  Biso   1.000  N
  C57      1.0000 0.51510  0.23550  0.90650  Biso   1.000  C
  C58      1.0000 0.48490  0.73550  0.59350  Biso   1.000  C
  C59      1.0000 0.48490  0.76450  0.09350  Biso   1.000  C
  C60      1.0000 0.51510  0.26450  0.40650  Biso   1.000  C
  C61      1.0000 0.38710  0.26120  0.84830  Biso   1.000  C
  C62      1.0000 0.61290  0.76120  0.65170  Biso   1.000  C
  C63      1.0000 0.61290  0.73880  0.15170  Biso   1.000  C
  C64      1.0000 0.38710  0.23880  0.34830  Biso   1.000  C
  C65      1.0000 0.30810  0.23760  0.75300  Biso   1.000  C
  C66      1.0000 0.69190  0.73760  0.74700  Biso   1.000  C
  C67      1.0000 0.69190  0.76240  0.24700  Biso   1.000  C
  C68      1.0000 0.30810  0.26240  0.25300  Biso   1.000  C
  C69      1.0000 0.36740  0.18990  0.71790  Biso   1.000  C
  C70      1.0000 0.63260  0.68990  0.78210  Biso   1.000  C
  C71      1.0000 0.63260  0.81010  0.28210  Biso   1.000  C
  C72      1.0000 0.36740  0.31010  0.21790  Biso   1.000  C
  C73      1.0000 0.49610  0.16690  0.78020  Biso   1.000  C
  C74      1.0000 0.50390  0.66690  0.71980  Biso   1.000  C
  C75      1.0000 0.50390  0.83310  0.21980  Biso   1.000  C
  C76      1.0000 0.49610  0.33310  0.28020  Biso   1.000  C
  N13      1.0000 0.90140  0.18930  0.06540  Biso   1.000  N
  N14      1.0000 0.09860  0.68930  0.43460  Biso   1.000  N
  N15      1.0000 0.09860  0.81070  0.93460  Biso   1.000  N
  N16      1.0000 0.90140  0.31070  0.56540  Biso   1.000  N
  C77      1.0000 0.98290  0.27180  0.52200  Biso   1.000  C
  C78      1.0000 0.01710  0.77180  0.97800  Biso   1.000  C
  C79      1.0000 0.01710  0.72820  0.47800  Biso   1.000  C
  C80      1.0000 0.98290  0.22820  0.02200  Biso   1.000  C
  C81      1.0000 0.11470  0.24740  0.57990  Biso   1.000  C
  C82      1.0000 0.88530  0.74740  0.92010  Biso   1.000  C
  C83      1.0000 0.88530  0.75260  0.42010  Biso   1.000  C
  C84      1.0000 0.11470  0.25260  0.07990  Biso   1.000  C
  C85      1.0000 0.16580  0.26350  0.68860  Biso   1.000  C
  C86      1.0000 0.83420  0.76350  0.81140  Biso   1.000  C
  C87      1.0000 0.83420  0.73650  0.31140  Biso   1.000  C
  C88      1.0000 0.16580  0.23650  0.18860  Biso   1.000  C
  C89      1.0000 0.08010  0.30270  0.73480  Biso   1.000  C
  C90      1.0000 0.91990  0.80270  0.76520  Biso   1.000  C
  C91      1.0000 0.91990  0.69730  0.26520  Biso   1.000  C
  C92      1.0000 0.08010  0.19730  0.23480  Biso   1.000  C
  C93      1.0000 0.94870  0.32520  0.67150  Biso   1.000  C
  C94      1.0000 0.05130  0.82520  0.82850  Biso   1.000  C
  C95      1.0000 0.05130  0.67480  0.32850  Biso   1.000  C
  C96      1.0000 0.94870  0.17480  0.17150  Biso   1.000  C
  H1       1.0000 0.59400  0.15300  0.22400  Biso   1.000  H
  H2       1.0000 0.40600  0.65300  0.27600  Biso   1.000  H
  H3       1.0000 0.40600  0.84700  0.77600  Biso   1.000  H
  H4       1.0000 0.59400  0.34700  0.72400  Biso   1.000  H
  H5       1.0000 0.42500  0.12900  0.23600  Biso   1.000  H
  H6       1.0000 0.57500  0.62900  0.26400  Biso   1.000  H
  H7       1.0000 0.57500  0.87100  0.76400  Biso   1.000  H
  H8       1.0000 0.42500  0.37100  0.73600  Biso   1.000  H
  H9       1.0000 0.45300  0.15300  0.12700  Biso   1.000  H
  H10      1.0000 0.54700  0.65300  0.37300  Biso   1.000  H
  H11      1.0000 0.54700  0.84700  0.87300  Biso   1.000  H
  H12      1.0000 0.45300  0.34700  0.62700  Biso   1.000  H
  H13      1.0000 0.48500  0.03500  0.25400  Biso   1.000  H
  H14      1.0000 0.51500  0.53500  0.24600  Biso   1.000  H
  H15      1.0000 0.51500  0.96500  0.74600  Biso   1.000  H
  H16      1.0000 0.48500  0.46500  0.75400  Biso   1.000  H
  H17      1.0000 0.59200  0.95900  0.20000  Biso   1.000  H
  H18      1.0000 0.40800  0.45900  0.30000  Biso   1.000  H
  H19      1.0000 0.40800  0.04100  0.80000  Biso   1.000  H
  H20      1.0000 0.59200  0.54100  0.70000  Biso   1.000  H
  H21      1.0000 0.73800  0.90900  0.06900  Biso   1.000  H
  H22      1.0000 0.26200  0.40900  0.43100  Biso   1.000  H
  H23      1.0000 0.26200  0.09100  0.93100  Biso   1.000  H
  H24      1.0000 0.73800  0.59100  0.56900  Biso   1.000  H
  H25      1.0000 0.87000  0.91500  0.89300  Biso   1.000  H
  H26      1.0000 0.13000  0.41500  0.60700  Biso   1.000  H
  H27      1.0000 0.13000  0.08500  0.10700  Biso   1.000  H
  H28      1.0000 0.87000  0.58500  0.39300  Biso   1.000  H
  H29      1.0000 0.98700  0.96600  0.74600  Biso   1.000  H
  H30      1.0000 0.01300  0.46600  0.75400  Biso   1.000  H
  H31      1.0000 0.01300  0.03400  0.25400  Biso   1.000  H
  H32      1.0000 0.98700  0.53400  0.24600  Biso   1.000  H
  H33      1.0000 0.02000  0.04100  0.68900  Biso   1.000  H
  H34      1.0000 0.98000  0.54100  0.81100  Biso   1.000  H
  H35      1.0000 0.98000  0.95900  0.31100  Biso   1.000  H
  H36      1.0000 0.02000  0.45900  0.18900  Biso   1.000  H
  H37      1.0000 0.99400  0.14300  0.66800  Biso   1.000  H
  H38      1.0000 0.00600  0.64300  0.83200  Biso   1.000  H
  H39      1.0000 0.00600  0.85700  0.33200  Biso   1.000  H
  H40      1.0000 0.99400  0.35700  0.16800  Biso   1.000  H
  H41      1.0000 0.86100  0.16400  0.73900  Biso   1.000  H
  H42      1.0000 0.13900  0.66400  0.76100  Biso   1.000  H
  H43      1.0000 0.13900  0.83600  0.26100  Biso   1.000  H
  H44      1.0000 0.86100  0.33600  0.23900  Biso   1.000  H
  H45      1.0000 0.01000  0.16300  0.78600  Biso   1.000  H
  H46      1.0000 0.99000  0.66300  0.71400  Biso   1.000  H
  H47      1.0000 0.99000  0.83700  0.21400  Biso   1.000  H
  H48      1.0000 0.01000  0.33700  0.28600  Biso   1.000  H
  H49      1.0000 0.56900  0.25100  0.97200  Biso   1.000  H
  H50      1.0000 0.43100  0.75100  0.52800  Biso   1.000  H
  H51      1.0000 0.43100  0.74900  0.02800  Biso   1.000  H
  H52      1.0000 0.56900  0.24900  0.47200  Biso   1.000  H
  H53      1.0000 0.34300  0.29300  0.88000  Biso   1.000  H
  H54      1.0000 0.65700  0.79300  0.62000  Biso   1.000  H
  H55      1.0000 0.65700  0.70700  0.12000  Biso   1.000  H
  H56      1.0000 0.34300  0.20700  0.38000  Biso   1.000  H
  H57      1.0000 0.32700  0.17100  0.65300  Biso   1.000  H
  H58      1.0000 0.67300  0.67100  0.84700  Biso   1.000  H
  H59      1.0000 0.67300  0.82900  0.34700  Biso   1.000  H
  H60      1.0000 0.32700  0.32900  0.15300  Biso   1.000  H
  H61      1.0000 0.53800  0.13600  0.76300  Biso   1.000  H
  H62      1.0000 0.46200  0.63600  0.73700  Biso   1.000  H
  H63      1.0000 0.46200  0.86400  0.23700  Biso   1.000  H
  H64      1.0000 0.53800  0.36400  0.26300  Biso   1.000  H
  H65      1.0000 0.14200  0.22600  0.55100  Biso   1.000  H
  H66      1.0000 0.85800  0.72600  0.94900  Biso   1.000  H
  H67      1.0000 0.85800  0.77400  0.44900  Biso   1.000  H
  H68      1.0000 0.14200  0.27400  0.05100  Biso   1.000  H
  H69      1.0000 0.09700  0.31700  0.81000  Biso   1.000  H
  H70      1.0000 0.90300  0.81700  0.69000  Biso   1.000  H
  H71      1.0000 0.90300  0.68300  0.19000  Biso   1.000  H
  H72      1.0000 0.09700  0.18300  0.31000  Biso   1.000  H
  H73      1.0000 0.94730  0.25930  0.44380  Biso   1.000  H
  H74      1.0000 0.05270  0.75930  0.05620  Biso   1.000  H
  H75      1.0000 0.05270  0.74070  0.55620  Biso   1.000  H
  H76      1.0000 0.94730  0.24070  0.94380  Biso   1.000  H
  H77      1.0000 0.88710  0.35350  0.70740  Biso   1.000  H
  H78      1.0000 0.11290  0.85350  0.79260  Biso   1.000  H
  H79      1.0000 0.11290  0.64650  0.29260  Biso   1.000  H
  H80      1.0000 0.88710  0.14650  0.20740  Biso   1.000  H
  B1       1.0000 0.24180  0.08390  0.48300  Biso   1.000  B
  B2       1.0000 0.75820  0.58390  0.01700  Biso   1.000  B
  B3       1.0000 0.75820  0.91610  0.51700  Biso   1.000  B
  B4       1.0000 0.24180  0.41610  0.98300  Biso   1.000  B
  F1       1.0000 0.31810  0.06240  0.39790  Biso   1.000  F
  F2       1.0000 0.68190  0.56240  0.10210  Biso   1.000  F
  F3       1.0000 0.68190  0.93760  0.60210  Biso   1.000  F
  F4       1.0000 0.31810  0.43760  0.89790  Biso   1.000  F
  F5       1.0000 0.31970  0.07310  0.58690  Biso   1.000  F
  F6       1.0000 0.68030  0.57310  0.91310  Biso   1.000  F
  F7       1.0000 0.68030  0.92690  0.41310  Biso   1.000  F
  F8       1.0000 0.31970  0.42690  0.08690  Biso   1.000  F
  F9       1.0000 0.22560  0.13710  0.47180  Biso   1.000  F
  F10      1.0000 0.77440  0.63710  0.02820  Biso   1.000  F
  F11      1.0000 0.77440  0.86290  0.52820  Biso   1.000  F
  F12      1.0000 0.22560  0.36290  0.97180  Biso   1.000  F
  F13      1.0000 0.09410  0.06080  0.47560  Biso   1.000  F
  F14      1.0000 0.90590  0.56080  0.02440  Biso   1.000  F
  F15      1.0000 0.90590  0.93920  0.52440  Biso   1.000  F
  F16      1.0000 0.09410  0.43920  0.97560  Biso   1.000  F
  N17      1.0000 0.76000  0.15780  0.43490  Biso   1.000  N
  N18      1.0000 0.24000  0.65780  0.06510  Biso   1.000  N
  N19      1.0000 0.24000  0.84220  0.56510  Biso   1.000  N
  N20      1.0000 0.76000  0.34220  0.93490  Biso   1.000  N
  C97      1.0000 0.74000  0.11530  0.46090  Biso   1.000  C
  C98      1.0000 0.26000  0.61530  0.03910  Biso   1.000  C
  C99      1.0000 0.26000  0.88470  0.53910  Biso   1.000  C
  C100     1.0000 0.74000  0.38470  0.96090  Biso   1.000  C
  C101     1.0000 0.70900  0.06080  0.49210  Biso   1.000  C
  C102     1.0000 0.29100  0.56080  0.00790  Biso   1.000  C
  C103     1.0000 0.29100  0.93920  0.50790  Biso   1.000  C
  C104     1.0000 0.70900  0.43920  0.99210  Biso   1.000  C
  H81      1.0000 0.60000  0.04100  0.45800  Biso   1.000  H
  H82      1.0000 0.40000  0.54100  0.04200  Biso   1.000  H
  H83      1.0000 0.40000  0.95900  0.54200  Biso   1.000  H
  H84      1.0000 0.60000  0.45900  0.95800  Biso   1.000  H
  H85      1.0000 0.64600  0.06000  0.57400  Biso   1.000  H
  H86      1.0000 0.35400  0.56000  0.92600  Biso   1.000  H
  H87      1.0000 0.35400  0.94000  0.42600  Biso   1.000  H
  H88      1.0000 0.64600  0.44000  0.07400  Biso   1.000  H
  H89      1.0000 0.75300  0.02410  0.50100  Biso   1.000  H
  H90      1.0000 0.24700  0.52410  0.99900  Biso   1.000  H
  H91      1.0000 0.24700  0.97590  0.49900  Biso   1.000  H
  H92      1.0000 0.75300  0.47590  0.00100  Biso   1.000  H
