data_image0
_cell_length_a       18.767
_cell_length_b       12.903
_cell_length_c       20.117
_cell_angle_alpha    90
_cell_angle_beta     95.32
_cell_angle_gamma    90

_symmetry_space_group_name_H-M    "P 1"
_symmetry_int_tables_number       1

loop_
  _symmetry_equiv_pos_as_xyz
  'x, y, z'

loop_
  _atom_site_label
  _atom_site_occupancy
  _atom_site_fract_x
  _atom_site_fract_y
  _atom_site_fract_z
  _atom_site_thermal_displace_type
  _atom_site_B_iso_or_equiv
  _atom_site_type_symbol
  C1       1.0000 0.92990  0.93540  0.04440  Biso   1.000  C
  C2       1.0000 0.42990  0.43540  0.54440  Biso   1.000  C
  C3       1.0000 0.57010  0.93540  0.95560  Biso   1.000  C
  C4       1.0000 0.07010  0.43540  0.45560  Biso   1.000  C
  C5       1.0000 0.07010  0.06460  0.95560  Biso   1.000  C
  C6       1.0000 0.57010  0.56460  0.45560  Biso   1.000  C
  C7       1.0000 0.42990  0.06460  0.04440  Biso   1.000  C
  C8       1.0000 0.92990  0.56460  0.54440  Biso   1.000  C
  C9       1.0000 0.88070  0.91750  0.09760  Biso   1.000  C
  C10      1.0000 0.38070  0.41750  0.59760  Biso   1.000  C
  C11      1.0000 0.61930  0.91750  0.90240  Biso   1.000  C
  C12      1.0000 0.11930  0.41750  0.40240  Biso   1.000  C
  C13      1.0000 0.11930  0.08250  0.90240  Biso   1.000  C
  C14      1.0000 0.61930  0.58250  0.40240  Biso   1.000  C
  C15      1.0000 0.38070  0.08250  0.09760  Biso   1.000  C
  C16      1.0000 0.88070  0.58250  0.59760  Biso   1.000  C
  C17      1.0000 0.82140  0.84750  0.08750  Biso   1.000  C
  C18      1.0000 0.32140  0.34750  0.58750  Biso   1.000  C
  C19      1.0000 0.67860  0.84750  0.91250  Biso   1.000  C
  C20      1.0000 0.17860  0.34750  0.41250  Biso   1.000  C
  C21      1.0000 0.17860  0.15250  0.91250  Biso   1.000  C
  C22      1.0000 0.67860  0.65250  0.41250  Biso   1.000  C
  C23      1.0000 0.32140  0.15250  0.08750  Biso   1.000  C
  C24      1.0000 0.82140  0.65250  0.58750  Biso   1.000  C
  C25      1.0000 0.77640  0.83360  0.13700  Biso   1.000  C
  C26      1.0000 0.27640  0.33360  0.63700  Biso   1.000  C
  C27      1.0000 0.72360  0.83360  0.86300  Biso   1.000  C
  C28      1.0000 0.22360  0.33360  0.36300  Biso   1.000  C
  C29      1.0000 0.22360  0.16640  0.86300  Biso   1.000  C
  C30      1.0000 0.72360  0.66640  0.36300  Biso   1.000  C
  C31      1.0000 0.27640  0.16640  0.13700  Biso   1.000  C
  C32      1.0000 0.77640  0.66640  0.63700  Biso   1.000  C
  C33      1.0000 0.78670  0.89070  0.19610  Biso   1.000  C
  C34      1.0000 0.28670  0.39070  0.69610  Biso   1.000  C
  C35      1.0000 0.71330  0.89070  0.80390  Biso   1.000  C
  C36      1.0000 0.21330  0.39070  0.30390  Biso   1.000  C
  C37      1.0000 0.21330  0.10930  0.80390  Biso   1.000  C
  C38      1.0000 0.71330  0.60930  0.30390  Biso   1.000  C
  C39      1.0000 0.28670  0.10930  0.19610  Biso   1.000  C
  C40      1.0000 0.78670  0.60930  0.69610  Biso   1.000  C
  C41      1.0000 0.74210  0.88170  0.24960  Biso   1.000  C
  C42      1.0000 0.24210  0.38170  0.74960  Biso   1.000  C
  C43      1.0000 0.75790  0.88170  0.75040  Biso   1.000  C
  C44      1.0000 0.25790  0.38170  0.25040  Biso   1.000  C
  C45      1.0000 0.25790  0.11830  0.75040  Biso   1.000  C
  C46      1.0000 0.75790  0.61830  0.25040  Biso   1.000  C
  C47      1.0000 0.24210  0.11830  0.24960  Biso   1.000  C
  C48      1.0000 0.74210  0.61830  0.74960  Biso   1.000  C
  C49      1.0000 0.75450  0.93810  0.30610  Biso   1.000  C
  C50      1.0000 0.25450  0.43810  0.80610  Biso   1.000  C
  C51      1.0000 0.74550  0.93810  0.69390  Biso   1.000  C
  C52      1.0000 0.24550  0.43810  0.19390  Biso   1.000  C
  C53      1.0000 0.24550  0.06190  0.69390  Biso   1.000  C
  C54      1.0000 0.74550  0.56190  0.19390  Biso   1.000  C
  C55      1.0000 0.25450  0.06190  0.30610  Biso   1.000  C
  C56      1.0000 0.75450  0.56190  0.80610  Biso   1.000  C
  C57      1.0000 0.81470  0.00960  0.31480  Biso   1.000  C
  C58      1.0000 0.31470  0.50960  0.81480  Biso   1.000  C
  C59      1.0000 0.68530  0.00960  0.68520  Biso   1.000  C
  C60      1.0000 0.18530  0.50960  0.18520  Biso   1.000  C
  C61      1.0000 0.18530  0.99040  0.68520  Biso   1.000  C
  C62      1.0000 0.68530  0.49040  0.18520  Biso   1.000  C
  C63      1.0000 0.31470  0.99040  0.31480  Biso   1.000  C
  C64      1.0000 0.81470  0.49040  0.81480  Biso   1.000  C
  C65      1.0000 0.82690  0.07120  0.37080  Biso   1.000  C
  C66      1.0000 0.32690  0.57120  0.87080  Biso   1.000  C
  C67      1.0000 0.67310  0.07120  0.62920  Biso   1.000  C
  C68      1.0000 0.17310  0.57120  0.12920  Biso   1.000  C
  C69      1.0000 0.17310  0.92880  0.62920  Biso   1.000  C
  C70      1.0000 0.67310  0.42880  0.12920  Biso   1.000  C
  C71      1.0000 0.32690  0.92880  0.37080  Biso   1.000  C
  C72      1.0000 0.82690  0.42880  0.87080  Biso   1.000  C
  C73      1.0000 0.88500  0.13790  0.37430  Biso   1.000  C
  C74      1.0000 0.38500  0.63790  0.87430  Biso   1.000  C
  C75      1.0000 0.61500  0.13790  0.62570  Biso   1.000  C
  C76      1.0000 0.11500  0.63790  0.12570  Biso   1.000  C
  C77      1.0000 0.11500  0.86210  0.62570  Biso   1.000  C
  C78      1.0000 0.61500  0.36210  0.12570  Biso   1.000  C
  C79      1.0000 0.38500  0.86210  0.37430  Biso   1.000  C
  C80      1.0000 0.88500  0.36210  0.87430  Biso   1.000  C
  C81      1.0000 0.92990  0.14250  0.32360  Biso   1.000  C
  C82      1.0000 0.42990  0.64250  0.82360  Biso   1.000  C
  C83      1.0000 0.57010  0.14250  0.67640  Biso   1.000  C
  C84      1.0000 0.07010  0.64250  0.17640  Biso   1.000  C
  C85      1.0000 0.07010  0.85750  0.67640  Biso   1.000  C
  C86      1.0000 0.57010  0.35750  0.17640  Biso   1.000  C
  C87      1.0000 0.42990  0.85750  0.32360  Biso   1.000  C
  C88      1.0000 0.92990  0.35750  0.82360  Biso   1.000  C
  C89      1.0000 0.99560  0.20780  0.32800  Biso   1.000  C
  C90      1.0000 0.49560  0.70780  0.82800  Biso   1.000  C
  C91      1.0000 0.50440  0.20780  0.67200  Biso   1.000  C
  C92      1.0000 0.00440  0.70780  0.17200  Biso   1.000  C
  C93      1.0000 0.00440  0.79220  0.67200  Biso   1.000  C
  C94      1.0000 0.50440  0.29220  0.17200  Biso   1.000  C
  C95      1.0000 0.49560  0.79220  0.32800  Biso   1.000  C
  C96      1.0000 0.99560  0.29220  0.82800  Biso   1.000  C
  C97      1.0000 0.85990  0.01820  0.26350  Biso   1.000  C
  C98      1.0000 0.35990  0.51820  0.76350  Biso   1.000  C
  C99      1.0000 0.64010  0.01820  0.73650  Biso   1.000  C
  C100     1.0000 0.14010  0.51820  0.23650  Biso   1.000  C
  C101     1.0000 0.14010  0.98180  0.73650  Biso   1.000  C
  C102     1.0000 0.64010  0.48180  0.23650  Biso   1.000  C
  C103     1.0000 0.35990  0.98180  0.26350  Biso   1.000  C
  C104     1.0000 0.85990  0.48180  0.76350  Biso   1.000  C
  C105     1.0000 0.84620  0.96060  0.20220  Biso   1.000  C
  C106     1.0000 0.34620  0.46060  0.70220  Biso   1.000  C
  C107     1.0000 0.65380  0.96060  0.79780  Biso   1.000  C
  C108     1.0000 0.15380  0.46060  0.29780  Biso   1.000  C
  C109     1.0000 0.15380  0.03940  0.79780  Biso   1.000  C
  C110     1.0000 0.65380  0.53940  0.29780  Biso   1.000  C
  C111     1.0000 0.34620  0.03940  0.20220  Biso   1.000  C
  C112     1.0000 0.84620  0.53940  0.70220  Biso   1.000  C
  C113     1.0000 0.10950  0.97450  0.15540  Biso   1.000  C
  C114     1.0000 0.60950  0.47450  0.65540  Biso   1.000  C
  C115     1.0000 0.39050  0.97450  0.84460  Biso   1.000  C
  C116     1.0000 0.89050  0.47450  0.34460  Biso   1.000  C
  C117     1.0000 0.89050  0.02550  0.84460  Biso   1.000  C
  C118     1.0000 0.39050  0.52550  0.34460  Biso   1.000  C
  C119     1.0000 0.60950  0.02550  0.15540  Biso   1.000  C
  C120     1.0000 0.10950  0.52550  0.65540  Biso   1.000  C
  C121     1.0000 0.16400  0.90620  0.16140  Biso   1.000  C
  C122     1.0000 0.66400  0.40620  0.66140  Biso   1.000  C
  C123     1.0000 0.33600  0.90620  0.83860  Biso   1.000  C
  C124     1.0000 0.83600  0.40620  0.33860  Biso   1.000  C
  C125     1.0000 0.83600  0.09380  0.83860  Biso   1.000  C
  C126     1.0000 0.33600  0.59380  0.33860  Biso   1.000  C
  C127     1.0000 0.66400  0.09380  0.16140  Biso   1.000  C
  C128     1.0000 0.16400  0.59380  0.66140  Biso   1.000  C
  C129     1.0000 0.17960  0.85310  0.21940  Biso   1.000  C
  C130     1.0000 0.67960  0.35310  0.71940  Biso   1.000  C
  C131     1.0000 0.32040  0.85310  0.78060  Biso   1.000  C
  C132     1.0000 0.82040  0.35310  0.28060  Biso   1.000  C
  C133     1.0000 0.82040  0.14690  0.78060  Biso   1.000  C
  C134     1.0000 0.32040  0.64690  0.28060  Biso   1.000  C
  C135     1.0000 0.67960  0.14690  0.21940  Biso   1.000  C
  C136     1.0000 0.17960  0.64690  0.71940  Biso   1.000  C
  C137     1.0000 0.13760  0.87440  0.27260  Biso   1.000  C
  C138     1.0000 0.63760  0.37440  0.77260  Biso   1.000  C
  C139     1.0000 0.36240  0.87440  0.72740  Biso   1.000  C
  C140     1.0000 0.86240  0.37440  0.22740  Biso   1.000  C
  C141     1.0000 0.86240  0.12560  0.72740  Biso   1.000  C
  C142     1.0000 0.36240  0.62560  0.22740  Biso   1.000  C
  C143     1.0000 0.63760  0.12560  0.27260  Biso   1.000  C
  C144     1.0000 0.13760  0.62560  0.77260  Biso   1.000  C
  C145     1.0000 0.08240  0.94640  0.26250  Biso   1.000  C
  C146     1.0000 0.58240  0.44640  0.76250  Biso   1.000  C
  C147     1.0000 0.41760  0.94640  0.73750  Biso   1.000  C
  C148     1.0000 0.91760  0.44640  0.23750  Biso   1.000  C
  C149     1.0000 0.91760  0.05360  0.73750  Biso   1.000  C
  C150     1.0000 0.41760  0.55360  0.23750  Biso   1.000  C
  C151     1.0000 0.58240  0.05360  0.26250  Biso   1.000  C
  C152     1.0000 0.08240  0.55360  0.76250  Biso   1.000  C
  C153     1.0000 0.24190  0.77670  0.22330  Biso   1.000  C
  C154     1.0000 0.74190  0.27670  0.72330  Biso   1.000  C
  C155     1.0000 0.25810  0.77670  0.77670  Biso   1.000  C
  C156     1.0000 0.75810  0.27670  0.27670  Biso   1.000  C
  C157     1.0000 0.75810  0.22330  0.77670  Biso   1.000  C
  C158     1.0000 0.25810  0.72330  0.27670  Biso   1.000  C
  C159     1.0000 0.74190  0.22330  0.22330  Biso   1.000  C
  C160     1.0000 0.24190  0.72330  0.72330  Biso   1.000  C
  C161     1.0000 0.92580  0.23810  0.09510  Biso   1.000  C
  C162     1.0000 0.42580  0.73810  0.59510  Biso   1.000  C
  C163     1.0000 0.57420  0.23810  0.90490  Biso   1.000  C
  C164     1.0000 0.07420  0.73810  0.40490  Biso   1.000  C
  C165     1.0000 0.07420  0.76190  0.90490  Biso   1.000  C
  C166     1.0000 0.57420  0.26190  0.40490  Biso   1.000  C
  C167     1.0000 0.42580  0.76190  0.09510  Biso   1.000  C
  C168     1.0000 0.92580  0.26190  0.59510  Biso   1.000  C
  C169     1.0000 0.04570  0.24760  0.12480  Biso   1.000  C
  C170     1.0000 0.54570  0.74760  0.62480  Biso   1.000  C
  C171     1.0000 0.45430  0.24760  0.87520  Biso   1.000  C
  C172     1.0000 0.95430  0.74760  0.37520  Biso   1.000  C
  C173     1.0000 0.95430  0.75240  0.87520  Biso   1.000  C
  C174     1.0000 0.45430  0.25240  0.37520  Biso   1.000  C
  C175     1.0000 0.54570  0.75240  0.12480  Biso   1.000  C
  C176     1.0000 0.04570  0.25240  0.62480  Biso   1.000  C
  N1       1.0000 0.89220  0.97180  0.15500  Biso   1.000  N
  N2       1.0000 0.39220  0.47180  0.65500  Biso   1.000  N
  N3       1.0000 0.60780  0.97180  0.84500  Biso   1.000  N
  N4       1.0000 0.10780  0.47180  0.34500  Biso   1.000  N
  N5       1.0000 0.10780  0.02820  0.84500  Biso   1.000  N
  N6       1.0000 0.60780  0.52820  0.34500  Biso   1.000  N
  N7       1.0000 0.39220  0.02820  0.15500  Biso   1.000  N
  N8       1.0000 0.89220  0.52820  0.65500  Biso   1.000  N
  N9       1.0000 0.91840  0.08300  0.26830  Biso   1.000  N
  N10      1.0000 0.41840  0.58300  0.76830  Biso   1.000  N
  N11      1.0000 0.58160  0.08300  0.73170  Biso   1.000  N
  N12      1.0000 0.08160  0.58300  0.23170  Biso   1.000  N
  N13      1.0000 0.08160  0.91700  0.73170  Biso   1.000  N
  N14      1.0000 0.58160  0.41700  0.23170  Biso   1.000  N
  N15      1.0000 0.41840  0.91700  0.26830  Biso   1.000  N
  N16      1.0000 0.91840  0.41700  0.76830  Biso   1.000  N
  N17      1.0000 0.98470  0.19740  0.12910  Biso   1.000  N
  N18      1.0000 0.48470  0.69740  0.62910  Biso   1.000  N
  N19      1.0000 0.51530  0.19740  0.87090  Biso   1.000  N
  N20      1.0000 0.01530  0.69740  0.37090  Biso   1.000  N
  N21      1.0000 0.01530  0.80260  0.87090  Biso   1.000  N
  N22      1.0000 0.51530  0.30260  0.37090  Biso   1.000  N
  N23      1.0000 0.48470  0.80260  0.12910  Biso   1.000  N
  N24      1.0000 0.98470  0.30260  0.62910  Biso   1.000  N
  N25      1.0000 0.06680  0.99590  0.20440  Biso   1.000  N
  N26      1.0000 0.56680  0.49590  0.70440  Biso   1.000  N
  N27      1.0000 0.43320  0.99590  0.79560  Biso   1.000  N
  N28      1.0000 0.93320  0.49590  0.29560  Biso   1.000  N
  N29      1.0000 0.93320  0.00410  0.79560  Biso   1.000  N
  N30      1.0000 0.43320  0.50410  0.29560  Biso   1.000  N
  N31      1.0000 0.56680  0.00410  0.20440  Biso   1.000  N
  N32      1.0000 0.06680  0.50410  0.70440  Biso   1.000  N
  H1       1.0000 0.81250  0.80930  0.04420  Biso   1.000  H
  H2       1.0000 0.31250  0.30930  0.54420  Biso   1.000  H
  H3       1.0000 0.68750  0.80930  0.95580  Biso   1.000  H
  H4       1.0000 0.18750  0.30930  0.45580  Biso   1.000  H
  H5       1.0000 0.18750  0.19070  0.95580  Biso   1.000  H
  H6       1.0000 0.68750  0.69070  0.45580  Biso   1.000  H
  H7       1.0000 0.31250  0.19070  0.04420  Biso   1.000  H
  H8       1.0000 0.81250  0.69070  0.54420  Biso   1.000  H
  H9       1.0000 0.73730  0.78080  0.13180  Biso   1.000  H
  H10      1.0000 0.23730  0.28080  0.63180  Biso   1.000  H
  H11      1.0000 0.76270  0.78080  0.86820  Biso   1.000  H
  H12      1.0000 0.26270  0.28080  0.36820  Biso   1.000  H
  H13      1.0000 0.26270  0.21920  0.86820  Biso   1.000  H
  H14      1.0000 0.76270  0.71920  0.36820  Biso   1.000  H
  H15      1.0000 0.23730  0.21920  0.13180  Biso   1.000  H
  H16      1.0000 0.73730  0.71920  0.63180  Biso   1.000  H
  H17      1.0000 0.70140  0.83140  0.24580  Biso   1.000  H
  H18      1.0000 0.20140  0.33140  0.74580  Biso   1.000  H
  H19      1.0000 0.79860  0.83140  0.75420  Biso   1.000  H
  H20      1.0000 0.29860  0.33140  0.25420  Biso   1.000  H
  H21      1.0000 0.29860  0.16860  0.75420  Biso   1.000  H
  H22      1.0000 0.79860  0.66860  0.25420  Biso   1.000  H
  H23      1.0000 0.20140  0.16860  0.24580  Biso   1.000  H
  H24      1.0000 0.70140  0.66860  0.74580  Biso   1.000  H
  H25      1.0000 0.72220  0.93120  0.34270  Biso   1.000  H
  H26      1.0000 0.22220  0.43120  0.84270  Biso   1.000  H
  H27      1.0000 0.77780  0.93120  0.65730  Biso   1.000  H
  H28      1.0000 0.27780  0.43120  0.15730  Biso   1.000  H
  H29      1.0000 0.27780  0.06880  0.65730  Biso   1.000  H
  H30      1.0000 0.77780  0.56880  0.15730  Biso   1.000  H
  H31      1.0000 0.22220  0.06880  0.34270  Biso   1.000  H
  H32      1.0000 0.72220  0.56880  0.84270  Biso   1.000  H
  H33      1.0000 0.79580  0.06570  0.40840  Biso   1.000  H
  H34      1.0000 0.29580  0.56570  0.90840  Biso   1.000  H
  H35      1.0000 0.70420  0.06570  0.59160  Biso   1.000  H
  H36      1.0000 0.20420  0.56570  0.09160  Biso   1.000  H
  H37      1.0000 0.20420  0.93430  0.59160  Biso   1.000  H
  H38      1.0000 0.70420  0.43430  0.09160  Biso   1.000  H
  H39      1.0000 0.29580  0.93430  0.40840  Biso   1.000  H
  H40      1.0000 0.79580  0.43430  0.90840  Biso   1.000  H
  H41      1.0000 0.89440  0.18490  0.41370  Biso   1.000  H
  H42      1.0000 0.39440  0.68490  0.91370  Biso   1.000  H
  H43      1.0000 0.60560  0.18490  0.58630  Biso   1.000  H
  H44      1.0000 0.10560  0.68490  0.08630  Biso   1.000  H
  H45      1.0000 0.10560  0.81510  0.58630  Biso   1.000  H
  H46      1.0000 0.60560  0.31510  0.08630  Biso   1.000  H
  H47      1.0000 0.39440  0.81510  0.41370  Biso   1.000  H
  H48      1.0000 0.89440  0.31510  0.91370  Biso   1.000  H
  H49      1.0000 0.09830  0.01010  0.11150  Biso   1.000  H
  H50      1.0000 0.59830  0.51010  0.61150  Biso   1.000  H
  H51      1.0000 0.40170  0.01010  0.88850  Biso   1.000  H
  H52      1.0000 0.90170  0.51010  0.38850  Biso   1.000  H
  H53      1.0000 0.90170  0.98990  0.88850  Biso   1.000  H
  H54      1.0000 0.40170  0.48990  0.38850  Biso   1.000  H
  H55      1.0000 0.59830  0.98990  0.11150  Biso   1.000  H
  H56      1.0000 0.09830  0.48990  0.61150  Biso   1.000  H
  H57      1.0000 0.19360  0.89510  0.12320  Biso   1.000  H
  H58      1.0000 0.69360  0.39510  0.62320  Biso   1.000  H
  H59      1.0000 0.30640  0.89510  0.87680  Biso   1.000  H
  H60      1.0000 0.80640  0.39510  0.37680  Biso   1.000  H
  H61      1.0000 0.80640  0.10490  0.87680  Biso   1.000  H
  H62      1.0000 0.30640  0.60490  0.37680  Biso   1.000  H
  H63      1.0000 0.69360  0.10490  0.12320  Biso   1.000  H
  H64      1.0000 0.19360  0.60490  0.62320  Biso   1.000  H
  H65      1.0000 0.14690  0.83860  0.31660  Biso   1.000  H
  H66      1.0000 0.64690  0.33860  0.81660  Biso   1.000  H
  H67      1.0000 0.35310  0.83860  0.68340  Biso   1.000  H
  H68      1.0000 0.85310  0.33860  0.18340  Biso   1.000  H
  H69      1.0000 0.85310  0.16140  0.68340  Biso   1.000  H
  H70      1.0000 0.35310  0.66140  0.18340  Biso   1.000  H
  H71      1.0000 0.64690  0.16140  0.31660  Biso   1.000  H
  H72      1.0000 0.14690  0.66140  0.81660  Biso   1.000  H
  H73      1.0000 0.05120  0.95970  0.29930  Biso   1.000  H
  H74      1.0000 0.55120  0.45970  0.79930  Biso   1.000  H
  H75      1.0000 0.44880  0.95970  0.70070  Biso   1.000  H
  H76      1.0000 0.94880  0.45970  0.20070  Biso   1.000  H
  H77      1.0000 0.94880  0.04030  0.70070  Biso   1.000  H
  H78      1.0000 0.44880  0.54030  0.20070  Biso   1.000  H
  H79      1.0000 0.55120  0.04030  0.29930  Biso   1.000  H
  H80      1.0000 0.05120  0.54030  0.79930  Biso   1.000  H
  H81      1.0000 0.87910  0.20170  0.09750  Biso   1.000  H
  H82      1.0000 0.37910  0.70170  0.59750  Biso   1.000  H
  H83      1.0000 0.62090  0.20170  0.90250  Biso   1.000  H
  H84      1.0000 0.12090  0.70170  0.40250  Biso   1.000  H
  H85      1.0000 0.12090  0.79830  0.90250  Biso   1.000  H
  H86      1.0000 0.62090  0.29830  0.40250  Biso   1.000  H
  H87      1.0000 0.37910  0.79830  0.09750  Biso   1.000  H
  H88      1.0000 0.87910  0.29830  0.59750  Biso   1.000  H
  H89      1.0000 0.08960  0.21820  0.14980  Biso   1.000  H
  H90      1.0000 0.58960  0.71820  0.64980  Biso   1.000  H
  H91      1.0000 0.41040  0.21820  0.85020  Biso   1.000  H
  H92      1.0000 0.91040  0.71820  0.35020  Biso   1.000  H
  H93      1.0000 0.91040  0.78180  0.85020  Biso   1.000  H
  H94      1.0000 0.41040  0.28180  0.35020  Biso   1.000  H
  H95      1.0000 0.58960  0.78180  0.14980  Biso   1.000  H
  H96      1.0000 0.08960  0.28180  0.64980  Biso   1.000  H
  H97      1.0000 0.92190  0.94550  0.99500  Biso   1.000  H
  H98      1.0000 0.42190  0.44550  0.49500  Biso   1.000  H
  H99      1.0000 0.57810  0.94550  0.00500  Biso   1.000  H
  H100     1.0000 0.07810  0.44550  0.50500  Biso   1.000  H
  H101     1.0000 0.07810  0.05450  0.00500  Biso   1.000  H
  H102     1.0000 0.57810  0.55450  0.50500  Biso   1.000  H
  H103     1.0000 0.42190  0.05450  0.99500  Biso   1.000  H
  H104     1.0000 0.92190  0.55450  0.49500  Biso   1.000  H
  H105     1.0000 0.96340  0.87520  0.04420  Biso   1.000  H
  H106     1.0000 0.46340  0.37520  0.54420  Biso   1.000  H
  H107     1.0000 0.53660  0.87520  0.95580  Biso   1.000  H
  H108     1.0000 0.03660  0.37520  0.45580  Biso   1.000  H
  H109     1.0000 0.03660  0.12480  0.95580  Biso   1.000  H
  H110     1.0000 0.53660  0.62480  0.45580  Biso   1.000  H
  H111     1.0000 0.46340  0.12480  0.04420  Biso   1.000  H
  H112     1.0000 0.96340  0.62480  0.54420  Biso   1.000  H
  H113     1.0000 0.95790  0.00020  0.05520  Biso   1.000  H
  H114     1.0000 0.45790  0.50020  0.55520  Biso   1.000  H
  H115     1.0000 0.54210  0.00020  0.94480  Biso   1.000  H
  H116     1.0000 0.04210  0.50020  0.44480  Biso   1.000  H
  H117     1.0000 0.04210  0.99980  0.94480  Biso   1.000  H
  H118     1.0000 0.54210  0.49980  0.44480  Biso   1.000  H
  H119     1.0000 0.45790  0.99980  0.05520  Biso   1.000  H
  H120     1.0000 0.95790  0.49980  0.55520  Biso   1.000  H
  H121     1.0000 0.01770  0.25100  0.29410  Biso   1.000  H
  H122     1.0000 0.51770  0.75100  0.79410  Biso   1.000  H
  H123     1.0000 0.48230  0.25100  0.70590  Biso   1.000  H
  H124     1.0000 0.98230  0.75100  0.20590  Biso   1.000  H
  H125     1.0000 0.98230  0.74900  0.70590  Biso   1.000  H
  H126     1.0000 0.48230  0.24900  0.20590  Biso   1.000  H
  H127     1.0000 0.51770  0.74900  0.29410  Biso   1.000  H
  H128     1.0000 0.01770  0.24900  0.79410  Biso   1.000  H
  H129     1.0000 0.03830  0.16380  0.34180  Biso   1.000  H
  H130     1.0000 0.53830  0.66380  0.84180  Biso   1.000  H
  H131     1.0000 0.46170  0.16380  0.65820  Biso   1.000  H
  H132     1.0000 0.96170  0.66380  0.15820  Biso   1.000  H
  H133     1.0000 0.96170  0.83620  0.65820  Biso   1.000  H
  H134     1.0000 0.46170  0.33620  0.15820  Biso   1.000  H
  H135     1.0000 0.53830  0.83620  0.34180  Biso   1.000  H
  H136     1.0000 0.03830  0.33620  0.84180  Biso   1.000  H
  H137     1.0000 0.99110  0.26340  0.36190  Biso   1.000  H
  H138     1.0000 0.49110  0.76340  0.86190  Biso   1.000  H
  H139     1.0000 0.50890  0.26340  0.63810  Biso   1.000  H
  H140     1.0000 0.00890  0.76340  0.13810  Biso   1.000  H
  H141     1.0000 0.00890  0.73660  0.63810  Biso   1.000  H
  H142     1.0000 0.50890  0.23660  0.13810  Biso   1.000  H
  H143     1.0000 0.49110  0.73660  0.36190  Biso   1.000  H
  H144     1.0000 0.99110  0.23660  0.86190  Biso   1.000  H
  H145     1.0000 0.25950  0.74970  0.16950  Biso   1.000  H
  H146     1.0000 0.75950  0.24970  0.66950  Biso   1.000  H
  H147     1.0000 0.24050  0.74970  0.83050  Biso   1.000  H
  H148     1.0000 0.74050  0.24970  0.33050  Biso   1.000  H
  H149     1.0000 0.74050  0.25030  0.83050  Biso   1.000  H
  H150     1.0000 0.24050  0.75030  0.33050  Biso   1.000  H
  H151     1.0000 0.75950  0.25030  0.16950  Biso   1.000  H
  H152     1.0000 0.25950  0.75030  0.66950  Biso   1.000  H
  C177     1.0000 0.91500  0.32100  0.05730  Biso   1.000  C
  C178     1.0000 0.41500  0.82100  0.55730  Biso   1.000  C
  C179     1.0000 0.58500  0.32100  0.94270  Biso   1.000  C
  C180     1.0000 0.08500  0.82100  0.44270  Biso   1.000  C
  C181     1.0000 0.08500  0.67900  0.94270  Biso   1.000  C
  C182     1.0000 0.58500  0.17900  0.44270  Biso   1.000  C
  C183     1.0000 0.41500  0.67900  0.05730  Biso   1.000  C
  C184     1.0000 0.91500  0.17900  0.55730  Biso   1.000  C
  C185     1.0000 0.97800  0.38100  0.05230  Biso   1.000  C
  C186     1.0000 0.47800  0.88100  0.55230  Biso   1.000  C
  C187     1.0000 0.52200  0.38100  0.94770  Biso   1.000  C
  C188     1.0000 0.02200  0.88100  0.44770  Biso   1.000  C
  C189     1.0000 0.02200  0.61900  0.94770  Biso   1.000  C
  C190     1.0000 0.52200  0.11900  0.44770  Biso   1.000  C
  C191     1.0000 0.47800  0.61900  0.05230  Biso   1.000  C
  C192     1.0000 0.97800  0.11900  0.55230  Biso   1.000  C
  C193     1.0000 0.03900  0.34800  0.08700  Biso   1.000  C
  C194     1.0000 0.53900  0.84800  0.58700  Biso   1.000  C
  C195     1.0000 0.46100  0.34800  0.91300  Biso   1.000  C
  C196     1.0000 0.96100  0.84800  0.41300  Biso   1.000  C
  C197     1.0000 0.96100  0.65200  0.91300  Biso   1.000  C
  C198     1.0000 0.46100  0.15200  0.41300  Biso   1.000  C
  C199     1.0000 0.53900  0.65200  0.08700  Biso   1.000  C
  C200     1.0000 0.03900  0.15200  0.58700  Biso   1.000  C
  C201     1.0000 0.97370  0.47400  0.01300  Biso   1.000  C
  C202     1.0000 0.47370  0.97400  0.51300  Biso   1.000  C
  C203     1.0000 0.52630  0.47400  0.98700  Biso   1.000  C
  C204     1.0000 0.02630  0.97400  0.48700  Biso   1.000  C
  C205     1.0000 0.02630  0.52600  0.98700  Biso   1.000  C
  C206     1.0000 0.52630  0.02600  0.48700  Biso   1.000  C
  C207     1.0000 0.47370  0.52600  0.01300  Biso   1.000  C
  C208     1.0000 0.97370  0.02600  0.51300  Biso   1.000  C
  H153     1.0000 0.86700  0.34100  0.03440  Biso   1.000  H
  H154     1.0000 0.36700  0.84100  0.53440  Biso   1.000  H
  H155     1.0000 0.63300  0.34100  0.96560  Biso   1.000  H
  H156     1.0000 0.13300  0.84100  0.46560  Biso   1.000  H
  H157     1.0000 0.13300  0.65900  0.96560  Biso   1.000  H
  H158     1.0000 0.63300  0.15900  0.46560  Biso   1.000  H
  H159     1.0000 0.36700  0.65900  0.03440  Biso   1.000  H
  H160     1.0000 0.86700  0.15900  0.53440  Biso   1.000  H
  H161     1.0000 0.08300  0.39100  0.08700  Biso   1.000  H
  H162     1.0000 0.58300  0.89100  0.58700  Biso   1.000  H
  H163     1.0000 0.41700  0.39100  0.91300  Biso   1.000  H
  H164     1.0000 0.91700  0.89100  0.41300  Biso   1.000  H
  H165     1.0000 0.91700  0.60900  0.91300  Biso   1.000  H
  H166     1.0000 0.41700  0.10900  0.41300  Biso   1.000  H
  H167     1.0000 0.58300  0.60900  0.08700  Biso   1.000  H
  H168     1.0000 0.08300  0.10900  0.58700  Biso   1.000  H
  H169     1.0000 0.92470  0.50500  0.00430  Biso   1.000  H
  H170     1.0000 0.42470  0.00500  0.50430  Biso   1.000  H
  H171     1.0000 0.57530  0.50500  0.99570  Biso   1.000  H
  H172     1.0000 0.07530  0.00500  0.49570  Biso   1.000  H
  H173     1.0000 0.07530  0.49500  0.99570  Biso   1.000  H
  H174     1.0000 0.57530  0.99500  0.49570  Biso   1.000  H
  H175     1.0000 0.42470  0.49500  0.00430  Biso   1.000  H
  H176     1.0000 0.92470  0.99500  0.50430  Biso   1.000  H
  Cu1      1.0000 0.97417  0.07369  0.18562  Biso   1.000  Cu
  Cu2      1.0000 0.47417  0.57369  0.68562  Biso   1.000  Cu
  Cu3      1.0000 0.52583  0.07369  0.81438  Biso   1.000  Cu
  Cu4      1.0000 0.02583  0.57369  0.31438  Biso   1.000  Cu
  Cu5      1.0000 0.02583  0.92631  0.81438  Biso   1.000  Cu
  Cu6      1.0000 0.52583  0.42631  0.31438  Biso   1.000  Cu
  Cu7      1.0000 0.47417  0.92631  0.18562  Biso   1.000  Cu
  Cu8      1.0000 0.97417  0.42631  0.68562  Biso   1.000  Cu
  B1       1.0000 0.75000  0.90800  0.50000  Biso   1.000  B
  B2       1.0000 0.25000  0.40800  0.00000  Biso   1.000  B
  B3       1.0000 0.25000  0.09200  0.50000  Biso   1.000  B
  B4       1.0000 0.75000  0.59200  0.00000  Biso   1.000  B
  F1       1.0000 0.79930  0.97030  0.53700  Biso   1.000  F
  F2       1.0000 0.29930  0.47030  0.03700  Biso   1.000  F
  F3       1.0000 0.70070  0.97030  0.46300  Biso   1.000  F
  F4       1.0000 0.20070  0.47030  0.96300  Biso   1.000  F
  F5       1.0000 0.20070  0.02970  0.46300  Biso   1.000  F
  F6       1.0000 0.70070  0.52970  0.96300  Biso   1.000  F
  F7       1.0000 0.29930  0.02970  0.53700  Biso   1.000  F
  F8       1.0000 0.79930  0.52970  0.03700  Biso   1.000  F
  F9       1.0000 0.78640  0.84690  0.45820  Biso   1.000  F
  F10      1.0000 0.28640  0.34690  0.95820  Biso   1.000  F
  F11      1.0000 0.71360  0.84690  0.54180  Biso   1.000  F
  F12      1.0000 0.21360  0.34690  0.04180  Biso   1.000  F
  F13      1.0000 0.21360  0.15310  0.54180  Biso   1.000  F
  F14      1.0000 0.71360  0.65310  0.04180  Biso   1.000  F
  F15      1.0000 0.28640  0.15310  0.45820  Biso   1.000  F
  F16      1.0000 0.78640  0.65310  0.95820  Biso   1.000  F
  B5       1.0000 0.75000  0.17400  0.00000  Biso   1.000  B
  B6       1.0000 0.25000  0.67400  0.50000  Biso   1.000  B
  B7       1.0000 0.25000  0.82600  0.00000  Biso   1.000  B
  B8       1.0000 0.75000  0.32600  0.50000  Biso   1.000  B
  F17      1.0000 0.75760  0.23530  0.05690  Biso   1.000  F
  F18      1.0000 0.25760  0.73530  0.55690  Biso   1.000  F
  F19      1.0000 0.74240  0.23530  0.94310  Biso   1.000  F
  F20      1.0000 0.24240  0.73530  0.44310  Biso   1.000  F
  F21      1.0000 0.24240  0.76470  0.94310  Biso   1.000  F
  F22      1.0000 0.74240  0.26470  0.44310  Biso   1.000  F
  F23      1.0000 0.25760  0.76470  0.05690  Biso   1.000  F
  F24      1.0000 0.75760  0.26470  0.55690  Biso   1.000  F
  F25      1.0000 0.68960  0.11190  0.00190  Biso   1.000  F
  F26      1.0000 0.18960  0.61190  0.50190  Biso   1.000  F
  F27      1.0000 0.81040  0.11190  0.99810  Biso   1.000  F
  F28      1.0000 0.31040  0.61190  0.49810  Biso   1.000  F
  F29      1.0000 0.31040  0.88810  0.99810  Biso   1.000  F
  F30      1.0000 0.81040  0.38810  0.49810  Biso   1.000  F
  F31      1.0000 0.18960  0.88810  0.00190  Biso   1.000  F
  F32      1.0000 0.68960  0.38810  0.50190  Biso   1.000  F
  C209     1.0000 0.94100  0.33500  0.05880  Biso   1.000  C
  C210     1.0000 0.44100  0.83500  0.55880  Biso   1.000  C
  C211     1.0000 0.55900  0.33500  0.94120  Biso   1.000  C
  C212     1.0000 0.05900  0.83500  0.44120  Biso   1.000  C
  C213     1.0000 0.05900  0.66500  0.94120  Biso   1.000  C
  C214     1.0000 0.55900  0.16500  0.44120  Biso   1.000  C
  C215     1.0000 0.44100  0.66500  0.05880  Biso   1.000  C
  C216     1.0000 0.94100  0.16500  0.55880  Biso   1.000  C
  C217     1.0000 0.01200  0.37200  0.05400  Biso   1.000  C
  C218     1.0000 0.51200  0.87200  0.55400  Biso   1.000  C
  C219     1.0000 0.48800  0.37200  0.94600  Biso   1.000  C
  C220     1.0000 0.98800  0.87200  0.44600  Biso   1.000  C
  C221     1.0000 0.98800  0.62800  0.94600  Biso   1.000  C
  C222     1.0000 0.48800  0.12800  0.44600  Biso   1.000  C
  C223     1.0000 0.51200  0.62800  0.05400  Biso   1.000  C
  C224     1.0000 0.01200  0.12800  0.55400  Biso   1.000  C
  C225     1.0000 0.06500  0.32600  0.09100  Biso   1.000  C
  C226     1.0000 0.56500  0.82600  0.59100  Biso   1.000  C
  C227     1.0000 0.43500  0.32600  0.90900  Biso   1.000  C
  C228     1.0000 0.93500  0.82600  0.40900  Biso   1.000  C
  C229     1.0000 0.93500  0.67400  0.90900  Biso   1.000  C
  C230     1.0000 0.43500  0.17400  0.40900  Biso   1.000  C
  C231     1.0000 0.56500  0.67400  0.09100  Biso   1.000  C
  C232     1.0000 0.06500  0.17400  0.59100  Biso   1.000  C
  C233     1.0000 0.02520  0.46700  0.01250  Biso   1.000  C
  C234     1.0000 0.52520  0.96700  0.51250  Biso   1.000  C
  C235     1.0000 0.47480  0.46700  0.98750  Biso   1.000  C
  C236     1.0000 0.97480  0.96700  0.48750  Biso   1.000  C
  C237     1.0000 0.97480  0.53300  0.98750  Biso   1.000  C
  C238     1.0000 0.47480  0.03300  0.48750  Biso   1.000  C
  C239     1.0000 0.52520  0.53300  0.01250  Biso   1.000  C
  C240     1.0000 0.02520  0.03300  0.51250  Biso   1.000  C
  H177     1.0000 0.90100  0.37600  0.03580  Biso   1.000  H
  H178     1.0000 0.40100  0.87600  0.53580  Biso   1.000  H
  H179     1.0000 0.59900  0.37600  0.96420  Biso   1.000  H
  H180     1.0000 0.09900  0.87600  0.46420  Biso   1.000  H
  H181     1.0000 0.09900  0.62400  0.96420  Biso   1.000  H
  H182     1.0000 0.59900  0.12400  0.46420  Biso   1.000  H
  H183     1.0000 0.40100  0.62400  0.03580  Biso   1.000  H
  H184     1.0000 0.90100  0.12400  0.53580  Biso   1.000  H
  H185     1.0000 0.11500  0.35000  0.09200  Biso   1.000  H
  H186     1.0000 0.61500  0.85000  0.59200  Biso   1.000  H
  H187     1.0000 0.38500  0.35000  0.90800  Biso   1.000  H
  H188     1.0000 0.88500  0.85000  0.40800  Biso   1.000  H
  H189     1.0000 0.88500  0.65000  0.90800  Biso   1.000  H
  H190     1.0000 0.38500  0.15000  0.40800  Biso   1.000  H
  H191     1.0000 0.61500  0.65000  0.09200  Biso   1.000  H
  H192     1.0000 0.11500  0.15000  0.59200  Biso   1.000  H
  H193     1.0000 0.07480  0.47900  0.99960  Biso   1.000  H
  H194     1.0000 0.57480  0.97900  0.49960  Biso   1.000  H
  H195     1.0000 0.42520  0.47900  0.00040  Biso   1.000  H
  H196     1.0000 0.92520  0.97900  0.50040  Biso   1.000  H
  H197     1.0000 0.92520  0.52100  0.00040  Biso   1.000  H
  H198     1.0000 0.42520  0.02100  0.50040  Biso   1.000  H
  H199     1.0000 0.57480  0.52100  0.99960  Biso   1.000  H
  H200     1.0000 0.07480  0.02100  0.49960  Biso   1.000  H
