data_image0
_cell_length_a       19.6238
_cell_length_b       9.2933
_cell_length_c       22.3113
_cell_angle_alpha    90
_cell_angle_beta     114.138
_cell_angle_gamma    90

_symmetry_space_group_name_H-M    "P 1"
_symmetry_int_tables_number       1

loop_
  _symmetry_equiv_pos_as_xyz
  'x, y, z'

loop_
  _atom_site_label
  _atom_site_occupancy
  _atom_site_fract_x
  _atom_site_fract_y
  _atom_site_fract_z
  _atom_site_thermal_displace_type
  _atom_site_B_iso_or_equiv
  _atom_site_type_symbol
  Cu1      1.0000 0.33551  0.56605  0.26760  Biso   1.000  Cu
  Cu2      1.0000 0.66449  0.06605  0.23240  Biso   1.000  Cu
  Cu3      1.0000 0.66449  0.43395  0.73240  Biso   1.000  Cu
  Cu4      1.0000 0.33551  0.93395  0.76760  Biso   1.000  Cu
  Cu5      1.0000 0.17697  0.46799  0.26098  Biso   1.000  Cu
  Cu6      1.0000 0.82303  0.96799  0.23902  Biso   1.000  Cu
  Cu7      1.0000 0.82303  0.53201  0.73902  Biso   1.000  Cu
  Cu8      1.0000 0.17697  0.03201  0.76098  Biso   1.000  Cu
  Br1      1.0000 0.21048  0.66339  0.19791  Biso   1.000  Br
  Br2      1.0000 0.78952  0.16339  0.30209  Biso   1.000  Br
  Br3      1.0000 0.78952  0.33661  0.80209  Biso   1.000  Br
  Br4      1.0000 0.21048  0.83661  0.69791  Biso   1.000  Br
  Br5      1.0000 0.30517  0.40239  0.34358  Biso   1.000  Br
  Br6      1.0000 0.69483  0.90239  0.15642  Biso   1.000  Br
  Br7      1.0000 0.69483  0.59761  0.65642  Biso   1.000  Br
  Br8      1.0000 0.30517  0.09761  0.84358  Biso   1.000  Br
  S1       1.0000 0.58925  0.23715  0.16551  Biso   1.000  S
  S2       1.0000 0.41075  0.73715  0.33449  Biso   1.000  S
  S3       1.0000 0.41075  0.76285  0.83449  Biso   1.000  S
  S4       1.0000 0.58925  0.26285  0.66551  Biso   1.000  S
  S5       1.0000 0.37104  0.41987  0.20225  Biso   1.000  S
  S6       1.0000 0.62896  0.91987  0.29775  Biso   1.000  S
  S7       1.0000 0.62896  0.58013  0.79775  Biso   1.000  S
  S8       1.0000 0.37104  0.08013  0.70225  Biso   1.000  S
  S9       1.0000 0.12501  0.59672  0.32133  Biso   1.000  S
  S10      1.0000 0.87499  0.09672  0.17867  Biso   1.000  S
  S11      1.0000 0.87499  0.40328  0.67867  Biso   1.000  S
  S12      1.0000 0.12501  0.90328  0.82133  Biso   1.000  S
  S13      1.0000 0.88451  0.79089  0.31186  Biso   1.000  S
  S14      1.0000 0.11549  0.29089  0.18814  Biso   1.000  S
  S15      1.0000 0.11549  0.20911  0.68814  Biso   1.000  S
  S16      1.0000 0.88451  0.70911  0.81186  Biso   1.000  S
  O1       1.0000 0.40522  0.33500  0.04344  Biso   1.000  O
  O2       1.0000 0.59478  0.83500  0.45656  Biso   1.000  O
  O3       1.0000 0.59478  0.66500  0.95656  Biso   1.000  O
  O4       1.0000 0.40522  0.16500  0.54344  Biso   1.000  O
  O5       1.0000 0.29400  0.32850  0.05216  Biso   1.000  O
  O6       1.0000 0.70600  0.82850  0.44784  Biso   1.000  O
  O7       1.0000 0.70600  0.67150  0.94784  Biso   1.000  O
  O8       1.0000 0.29400  0.17150  0.55216  Biso   1.000  O
  O9       1.0000 0.14598  0.79190  0.46007  Biso   1.000  O
  O10      1.0000 0.85402  0.29190  0.03993  Biso   1.000  O
  O11      1.0000 0.85402  0.20810  0.53993  Biso   1.000  O
  O12      1.0000 0.14598  0.70810  0.96007  Biso   1.000  O
  O13      1.0000 0.06770  0.88480  0.50666  Biso   1.000  O
  O14      1.0000 0.93230  0.38480  0.99334  Biso   1.000  O
  O15      1.0000 0.93230  0.11520  0.49334  Biso   1.000  O
  O16      1.0000 0.06770  0.61520  0.00666  Biso   1.000  O
  C1       1.0000 0.44480  0.31770  0.00550  Biso   1.000  C
  C2       1.0000 0.55520  0.81770  0.49450  Biso   1.000  C
  C3       1.0000 0.55520  0.68230  0.99450  Biso   1.000  C
  C4       1.0000 0.44480  0.18230  0.50550  Biso   1.000  C
  C5       1.0000 0.42790  0.39260  0.94760  Biso   1.000  C
  C6       1.0000 0.57210  0.89260  0.55240  Biso   1.000  C
  C7       1.0000 0.57210  0.60740  0.05240  Biso   1.000  C
  C8       1.0000 0.42790  0.10740  0.44760  Biso   1.000  C
  H1       1.0000 0.38630  0.45610  0.93130  Biso   1.000  H
  H2       1.0000 0.61370  0.95610  0.56870  Biso   1.000  H
  H3       1.0000 0.61370  0.54390  0.06870  Biso   1.000  H
  H4       1.0000 0.38630  0.04390  0.43130  Biso   1.000  H
  C9       1.0000 0.47260  0.37370  0.91360  Biso   1.000  C
  C10      1.0000 0.52740  0.87370  0.58640  Biso   1.000  C
  C11      1.0000 0.52740  0.62630  0.08640  Biso   1.000  C
  C12      1.0000 0.47260  0.12630  0.41360  Biso   1.000  C
  H5       1.0000 0.46160  0.42490  0.87390  Biso   1.000  H
  H6       1.0000 0.53840  0.92490  0.62610  Biso   1.000  H
  H7       1.0000 0.53840  0.57510  0.12610  Biso   1.000  H
  H8       1.0000 0.46160  0.07510  0.37390  Biso   1.000  H
  C13      1.0000 0.53320  0.28090  0.93680  Biso   1.000  C
  C14      1.0000 0.46680  0.78090  0.56320  Biso   1.000  C
  C15      1.0000 0.46680  0.71910  0.06320  Biso   1.000  C
  C16      1.0000 0.53320  0.21910  0.43680  Biso   1.000  C
  H9       1.0000 0.56330  0.26800  0.91300  Biso   1.000  H
  H10      1.0000 0.43670  0.76800  0.58700  Biso   1.000  H
  H11      1.0000 0.43670  0.73200  0.08700  Biso   1.000  H
  H12      1.0000 0.56330  0.23200  0.41300  Biso   1.000  H
  C17      1.0000 0.54940  0.20700  0.99520  Biso   1.000  C
  C18      1.0000 0.45060  0.70700  0.50480  Biso   1.000  C
  C19      1.0000 0.45060  0.79300  0.00480  Biso   1.000  C
  C20      1.0000 0.54940  0.29300  0.49520  Biso   1.000  C
  H13      1.0000 0.59120  0.14400  0.01130  Biso   1.000  H
  H14      1.0000 0.40880  0.64400  0.48870  Biso   1.000  H
  H15      1.0000 0.40880  0.85600  0.98870  Biso   1.000  H
  H16      1.0000 0.59120  0.35600  0.51130  Biso   1.000  H
  C21      1.0000 0.50560  0.22370  0.03030  Biso   1.000  C
  C22      1.0000 0.49440  0.72370  0.46970  Biso   1.000  C
  C23      1.0000 0.49440  0.77630  0.96970  Biso   1.000  C
  C24      1.0000 0.50560  0.27630  0.53030  Biso   1.000  C
  C25      1.0000 0.52360  0.14130  0.09290  Biso   1.000  C
  C26      1.0000 0.47640  0.64130  0.40710  Biso   1.000  C
  C27      1.0000 0.47640  0.85870  0.90710  Biso   1.000  C
  C28      1.0000 0.52360  0.35870  0.59290  Biso   1.000  C
  H17      1.0000 0.54530  0.04700  0.08960  Biso   1.000  H
  H18      1.0000 0.45470  0.54700  0.41040  Biso   1.000  H
  H19      1.0000 0.45470  0.95300  0.91040  Biso   1.000  H
  H20      1.0000 0.54530  0.45300  0.58960  Biso   1.000  H
  H21      1.0000 0.47680  0.12290  0.09840  Biso   1.000  H
  H22      1.0000 0.52320  0.62290  0.40160  Biso   1.000  H
  H23      1.0000 0.52320  0.87710  0.90160  Biso   1.000  H
  H24      1.0000 0.47680  0.37710  0.59840  Biso   1.000  H
  C29      1.0000 0.52880  0.32330  0.19880  Biso   1.000  C
  C30      1.0000 0.47120  0.82330  0.30120  Biso   1.000  C
  C31      1.0000 0.47120  0.67670  0.80120  Biso   1.000  C
  C32      1.0000 0.52880  0.17670  0.69880  Biso   1.000  C
  H25      1.0000 0.55890  0.39420  0.23220  Biso   1.000  H
  H26      1.0000 0.44110  0.89420  0.26780  Biso   1.000  H
  H27      1.0000 0.44110  0.60580  0.76780  Biso   1.000  H
  H28      1.0000 0.55890  0.10580  0.73220  Biso   1.000  H
  H29      1.0000 0.48970  0.37740  0.16290  Biso   1.000  H
  H30      1.0000 0.51030  0.87740  0.33710  Biso   1.000  H
  H31      1.0000 0.51030  0.62260  0.83710  Biso   1.000  H
  H32      1.0000 0.48970  0.12260  0.66290  Biso   1.000  H
  C33      1.0000 0.49080  0.22500  0.22970  Biso   1.000  C
  C34      1.0000 0.50920  0.72500  0.27030  Biso   1.000  C
  C35      1.0000 0.50920  0.77500  0.77030  Biso   1.000  C
  C36      1.0000 0.49080  0.27500  0.72970  Biso   1.000  C
  H33      1.0000 0.52900  0.16660  0.26430  Biso   1.000  H
  H34      1.0000 0.47100  0.66660  0.23570  Biso   1.000  H
  H35      1.0000 0.47100  0.83340  0.73570  Biso   1.000  H
  H36      1.0000 0.52900  0.33340  0.76430  Biso   1.000  H
  H37      1.0000 0.45720  0.15850  0.19580  Biso   1.000  H
  H38      1.0000 0.54280  0.65850  0.30420  Biso   1.000  H
  H39      1.0000 0.54280  0.84150  0.80420  Biso   1.000  H
  H40      1.0000 0.45720  0.34150  0.69580  Biso   1.000  H
  C37      1.0000 0.44540  0.30960  0.25980  Biso   1.000  C
  C38      1.0000 0.55460  0.80960  0.24020  Biso   1.000  C
  C39      1.0000 0.55460  0.69040  0.74020  Biso   1.000  C
  C40      1.0000 0.44540  0.19040  0.75980  Biso   1.000  C
  H41      1.0000 0.47990  0.37250  0.29490  Biso   1.000  H
  H42      1.0000 0.52010  0.87250  0.20510  Biso   1.000  H
  H43      1.0000 0.52010  0.62750  0.70510  Biso   1.000  H
  H44      1.0000 0.47990  0.12750  0.79490  Biso   1.000  H
  H45      1.0000 0.42330  0.24050  0.28060  Biso   1.000  H
  H46      1.0000 0.57670  0.74050  0.21940  Biso   1.000  H
  H47      1.0000 0.57670  0.75950  0.71940  Biso   1.000  H
  H48      1.0000 0.42330  0.25950  0.78060  Biso   1.000  H
  C41      1.0000 0.29250  0.29430  0.17350  Biso   1.000  C
  C42      1.0000 0.70750  0.79430  0.32650  Biso   1.000  C
  C43      1.0000 0.70750  0.70570  0.82650  Biso   1.000  C
  C44      1.0000 0.29250  0.20570  0.67350  Biso   1.000  C
  H49      1.0000 0.28500  0.25810  0.21210  Biso   1.000  H
  H50      1.0000 0.71500  0.75810  0.28790  Biso   1.000  H
  H51      1.0000 0.71500  0.74190  0.78790  Biso   1.000  H
  H52      1.0000 0.28500  0.24190  0.71210  Biso   1.000  H
  H53      1.0000 0.24690  0.34790  0.14570  Biso   1.000  H
  H54      1.0000 0.75310  0.84790  0.35430  Biso   1.000  H
  H55      1.0000 0.75310  0.65210  0.85430  Biso   1.000  H
  H56      1.0000 0.24690  0.15210  0.64570  Biso   1.000  H
  C45      1.0000 0.30010  0.16700  0.13510  Biso   1.000  C
  C46      1.0000 0.69990  0.66700  0.36490  Biso   1.000  C
  C47      1.0000 0.69990  0.83300  0.86490  Biso   1.000  C
  C48      1.0000 0.30010  0.33300  0.63510  Biso   1.000  C
  C49      1.0000 0.30230  0.02690  0.15760  Biso   1.000  C
  C50      1.0000 0.69770  0.52690  0.34240  Biso   1.000  C
  C51      1.0000 0.69770  0.97310  0.84240  Biso   1.000  C
  C52      1.0000 0.30230  0.47310  0.65760  Biso   1.000  C
  H57      1.0000 0.30060  0.01080  0.19900  Biso   1.000  H
  H58      1.0000 0.69940  0.51080  0.30100  Biso   1.000  H
  H59      1.0000 0.69940  0.98920  0.80100  Biso   1.000  H
  H60      1.0000 0.30060  0.48920  0.69900  Biso   1.000  H
  C53      1.0000 0.30700  0.91100  0.12110  Biso   1.000  C
  C54      1.0000 0.69300  0.41100  0.37890  Biso   1.000  C
  C55      1.0000 0.69300  0.08900  0.87890  Biso   1.000  C
  C56      1.0000 0.30700  0.58900  0.62110  Biso   1.000  C
  H61      1.0000 0.30950  0.81620  0.13780  Biso   1.000  H
  H62      1.0000 0.69050  0.31620  0.36220  Biso   1.000  H
  H63      1.0000 0.69050  0.18380  0.86220  Biso   1.000  H
  H64      1.0000 0.30950  0.68380  0.63780  Biso   1.000  H
  C57      1.0000 0.30810  0.93210  0.06030  Biso   1.000  C
  C58      1.0000 0.69190  0.43210  0.43970  Biso   1.000  C
  C59      1.0000 0.69190  0.06790  0.93970  Biso   1.000  C
  C60      1.0000 0.30810  0.56790  0.56030  Biso   1.000  C
  H65      1.0000 0.31060  0.85170  0.03490  Biso   1.000  H
  H66      1.0000 0.68940  0.35170  0.46510  Biso   1.000  H
  H67      1.0000 0.68940  0.14830  0.96510  Biso   1.000  H
  H68      1.0000 0.31060  0.64830  0.53490  Biso   1.000  H
  C61      1.0000 0.30560  0.06920  0.03620  Biso   1.000  C
  C62      1.0000 0.69440  0.56920  0.46380  Biso   1.000  C
  C63      1.0000 0.69440  0.93080  0.96380  Biso   1.000  C
  C64      1.0000 0.30560  0.43080  0.53620  Biso   1.000  C
  H69      1.0000 0.30730  0.08330  0.99470  Biso   1.000  H
  H70      1.0000 0.69270  0.58330  0.50530  Biso   1.000  H
  H71      1.0000 0.69270  0.91670  0.00530  Biso   1.000  H
  H72      1.0000 0.30730  0.41670  0.49470  Biso   1.000  H
  C65      1.0000 0.30070  0.18740  0.07270  Biso   1.000  C
  C66      1.0000 0.69930  0.68740  0.42730  Biso   1.000  C
  C67      1.0000 0.69930  0.81260  0.92730  Biso   1.000  C
  C68      1.0000 0.30070  0.31260  0.57270  Biso   1.000  C
  C69      1.0000 0.32760  0.36650  0.00970  Biso   1.000  C
  C70      1.0000 0.67240  0.86650  0.49030  Biso   1.000  C
  C71      1.0000 0.67240  0.63350  0.99030  Biso   1.000  C
  C72      1.0000 0.32760  0.13350  0.50970  Biso   1.000  C
  H73      1.0000 0.32010  0.47010  0.99870  Biso   1.000  H
  H74      1.0000 0.67990  0.97010  0.50130  Biso   1.000  H
  H75      1.0000 0.67990  0.52990  0.00130  Biso   1.000  H
  H76      1.0000 0.32010  0.02990  0.49870  Biso   1.000  H
  H77      1.0000 0.30560  0.31030  0.96840  Biso   1.000  H
  H78      1.0000 0.69440  0.81030  0.53160  Biso   1.000  H
  H79      1.0000 0.69440  0.68970  0.03160  Biso   1.000  H
  H80      1.0000 0.30560  0.18970  0.46840  Biso   1.000  H
  C73      1.0000 0.15630  0.90350  0.42400  Biso   1.000  C
  C74      1.0000 0.84370  0.40350  0.07600  Biso   1.000  C
  C75      1.0000 0.84370  0.09650  0.57600  Biso   1.000  C
  C76      1.0000 0.15630  0.59650  0.92400  Biso   1.000  C
  C77      1.0000 0.13740  0.04600  0.42850  Biso   1.000  C
  C78      1.0000 0.86260  0.54600  0.07150  Biso   1.000  C
  C79      1.0000 0.86260  0.95400  0.57150  Biso   1.000  C
  C80      1.0000 0.13740  0.45400  0.92850  Biso   1.000  C
  H81      1.0000 0.11540  0.07170  0.45780  Biso   1.000  H
  H82      1.0000 0.88460  0.57170  0.04220  Biso   1.000  H
  H83      1.0000 0.88460  0.92830  0.54220  Biso   1.000  H
  H84      1.0000 0.11540  0.42830  0.95780  Biso   1.000  H
  C81      1.0000 0.15050  0.15030  0.39030  Biso   1.000  C
  C82      1.0000 0.84950  0.65030  0.10970  Biso   1.000  C
  C83      1.0000 0.84950  0.84970  0.60970  Biso   1.000  C
  C84      1.0000 0.15050  0.34970  0.89030  Biso   1.000  C
  H85      1.0000 0.13800  0.24770  0.39390  Biso   1.000  H
  H86      1.0000 0.86200  0.74770  0.10610  Biso   1.000  H
  H87      1.0000 0.86200  0.75230  0.60610  Biso   1.000  H
  H88      1.0000 0.13800  0.25230  0.89390  Biso   1.000  H
  C85      1.0000 0.18180  0.11400  0.34690  Biso   1.000  C
  C86      1.0000 0.81820  0.61400  0.15310  Biso   1.000  C
  C87      1.0000 0.81820  0.88600  0.65310  Biso   1.000  C
  C88      1.0000 0.18180  0.38600  0.84690  Biso   1.000  C
  H89      1.0000 0.19150  0.18600  0.32120  Biso   1.000  H
  H90      1.0000 0.80850  0.68600  0.17880  Biso   1.000  H
  H91      1.0000 0.80850  0.81400  0.67880  Biso   1.000  H
  H92      1.0000 0.19150  0.31400  0.82120  Biso   1.000  H
  C89      1.0000 0.19900  0.97000  0.34150  Biso   1.000  C
  C90      1.0000 0.80100  0.47000  0.15850  Biso   1.000  C
  C91      1.0000 0.80100  0.03000  0.65850  Biso   1.000  C
  C92      1.0000 0.19900  0.53000  0.84150  Biso   1.000  C
  H93      1.0000 0.21980  0.94440  0.31120  Biso   1.000  H
  H94      1.0000 0.78020  0.44440  0.18880  Biso   1.000  H
  H95      1.0000 0.78020  0.05560  0.68880  Biso   1.000  H
  H96      1.0000 0.21980  0.55560  0.81120  Biso   1.000  H
  C93      1.0000 0.18630  0.86360  0.37940  Biso   1.000  C
  C94      1.0000 0.81370  0.36360  0.12060  Biso   1.000  C
  C95      1.0000 0.81370  0.13640  0.62060  Biso   1.000  C
  C96      1.0000 0.18630  0.63640  0.87940  Biso   1.000  C
  C97      1.0000 0.20510  0.71000  0.37100  Biso   1.000  C
  C98      1.0000 0.79490  0.21000  0.12900  Biso   1.000  C
  C99      1.0000 0.79490  0.29000  0.62900  Biso   1.000  C
  C100     1.0000 0.20510  0.79000  0.87100  Biso   1.000  C
  H97      1.0000 0.23030  0.66580  0.41500  Biso   1.000  H
  H98      1.0000 0.76970  0.16580  0.08500  Biso   1.000  H
  H99      1.0000 0.76970  0.33420  0.58500  Biso   1.000  H
  H100     1.0000 0.23030  0.83420  0.91500  Biso   1.000  H
  H101     1.0000 0.24120  0.71000  0.35030  Biso   1.000  H
  H102     1.0000 0.75880  0.21000  0.14970  Biso   1.000  H
  H103     1.0000 0.75880  0.29000  0.64970  Biso   1.000  H
  H104     1.0000 0.24120  0.79000  0.85030  Biso   1.000  H
  C101     1.0000 0.06290  0.71610  0.25740  Biso   1.000  C
  C102     1.0000 0.93710  0.21610  0.24260  Biso   1.000  C
  C103     1.0000 0.93710  0.28390  0.74260  Biso   1.000  C
  C104     1.0000 0.06290  0.78390  0.75740  Biso   1.000  C
  H105     1.0000 0.09390  0.78560  0.24590  Biso   1.000  H
  H106     1.0000 0.90610  0.28560  0.25410  Biso   1.000  H
  H107     1.0000 0.90610  0.21440  0.75410  Biso   1.000  H
  H108     1.0000 0.09390  0.71440  0.74590  Biso   1.000  H
  H109     1.0000 0.03500  0.65780  0.21780  Biso   1.000  H
  H110     1.0000 0.96500  0.15780  0.28220  Biso   1.000  H
  H111     1.0000 0.96500  0.34220  0.78220  Biso   1.000  H
  H112     1.0000 0.03500  0.84220  0.71780  Biso   1.000  H
  C105     1.0000 0.00640  0.80100  0.27500  Biso   1.000  C
  C106     1.0000 0.99360  0.30100  0.22500  Biso   1.000  C
  C107     1.0000 0.99360  0.19900  0.72500  Biso   1.000  C
  C108     1.0000 0.00640  0.69900  0.77500  Biso   1.000  C
  H113     1.0000 0.03340  0.87380  0.30880  Biso   1.000  H
  H114     1.0000 0.96660  0.37380  0.19120  Biso   1.000  H
  H115     1.0000 0.96660  0.12620  0.69120  Biso   1.000  H
  H116     1.0000 0.03340  0.62620  0.80880  Biso   1.000  H
  H117     1.0000 0.97160  0.85260  0.23550  Biso   1.000  H
  H118     1.0000 0.02840  0.35260  0.26450  Biso   1.000  H
  H119     1.0000 0.02840  0.14740  0.76450  Biso   1.000  H
  H120     1.0000 0.97160  0.64740  0.73550  Biso   1.000  H
  C109     1.0000 0.96160  0.70390  0.30070  Biso   1.000  C
  C110     1.0000 0.03840  0.20390  0.19930  Biso   1.000  C
  C111     1.0000 0.03840  0.29610  0.69930  Biso   1.000  C
  C112     1.0000 0.96160  0.79610  0.80070  Biso   1.000  C
  H121     1.0000 0.99600  0.66320  0.34340  Biso   1.000  H
  H122     1.0000 0.00400  0.16320  0.15660  Biso   1.000  H
  H123     1.0000 0.00400  0.33680  0.65660  Biso   1.000  H
  H124     1.0000 0.99600  0.83680  0.84340  Biso   1.000  H
  H125     1.0000 0.94150  0.62260  0.26980  Biso   1.000  H
  H126     1.0000 0.05850  0.12260  0.23020  Biso   1.000  H
  H127     1.0000 0.05850  0.37740  0.73020  Biso   1.000  H
  H128     1.0000 0.94150  0.87740  0.76980  Biso   1.000  H
  C113     1.0000 0.93320  0.87450  0.39150  Biso   1.000  C
  C114     1.0000 0.06680  0.37450  0.10850  Biso   1.000  C
  C115     1.0000 0.06680  0.12550  0.60850  Biso   1.000  C
  C116     1.0000 0.93320  0.62550  0.89150  Biso   1.000  C
  H129     1.0000 0.98150  0.91280  0.39420  Biso   1.000  H
  H130     1.0000 0.01850  0.41280  0.10580  Biso   1.000  H
  H131     1.0000 0.01850  0.08720  0.60580  Biso   1.000  H
  H132     1.0000 0.98150  0.58720  0.89420  Biso   1.000  H
  H133     1.0000 0.90330  0.95680  0.39530  Biso   1.000  H
  H134     1.0000 0.09670  0.45680  0.10470  Biso   1.000  H
  H135     1.0000 0.09670  0.04320  0.60470  Biso   1.000  H
  H136     1.0000 0.90330  0.54320  0.89530  Biso   1.000  H
  C117     1.0000 0.94820  0.77360  0.44890  Biso   1.000  C
  C118     1.0000 0.05180  0.27360  0.05110  Biso   1.000  C
  C119     1.0000 0.05180  0.22640  0.55110  Biso   1.000  C
  C120     1.0000 0.94820  0.72640  0.94890  Biso   1.000  C
  C121     1.0000 0.89500  0.67720  0.44990  Biso   1.000  C
  C122     1.0000 0.10500  0.17720  0.05010  Biso   1.000  C
  C123     1.0000 0.10500  0.32280  0.55010  Biso   1.000  C
  C124     1.0000 0.89500  0.82280  0.94990  Biso   1.000  C
  H137     1.0000 0.84960  0.66730  0.41190  Biso   1.000  H
  H138     1.0000 0.15040  0.16730  0.08810  Biso   1.000  H
  H139     1.0000 0.15040  0.33270  0.58810  Biso   1.000  H
  H140     1.0000 0.84960  0.83270  0.91190  Biso   1.000  H
  C125     1.0000 0.90600  0.59490  0.50470  Biso   1.000  C
  C126     1.0000 0.09400  0.09490  0.99530  Biso   1.000  C
  C127     1.0000 0.09400  0.40510  0.49530  Biso   1.000  C
  C128     1.0000 0.90600  0.90510  0.00470  Biso   1.000  C
  H141     1.0000 0.86840  0.52930  0.50380  Biso   1.000  H
  H142     1.0000 0.13160  0.02930  0.99620  Biso   1.000  H
  H143     1.0000 0.13160  0.47070  0.49620  Biso   1.000  H
  H144     1.0000 0.86840  0.97070  0.00380  Biso   1.000  H
  C129     1.0000 0.97110  0.60720  0.56050  Biso   1.000  C
  C130     1.0000 0.02890  0.10720  0.93950  Biso   1.000  C
  C131     1.0000 0.02890  0.39280  0.43950  Biso   1.000  C
  C132     1.0000 0.97110  0.89280  0.06050  Biso   1.000  C
  H145     1.0000 0.97860  0.55070  0.59820  Biso   1.000  H
  H146     1.0000 0.02140  0.05070  0.90180  Biso   1.000  H
  H147     1.0000 0.02140  0.44930  0.40180  Biso   1.000  H
  H148     1.0000 0.97860  0.94930  0.09820  Biso   1.000  H
  C133     1.0000 0.02590  0.70330  0.56130  Biso   1.000  C
  C134     1.0000 0.97410  0.20330  0.93870  Biso   1.000  C
  C135     1.0000 0.97410  0.29670  0.43870  Biso   1.000  C
  C136     1.0000 0.02590  0.79670  0.06130  Biso   1.000  C
  H149     1.0000 0.07080  0.71360  0.59970  Biso   1.000  H
  H150     1.0000 0.92920  0.21360  0.90030  Biso   1.000  H
  H151     1.0000 0.92920  0.28640  0.40030  Biso   1.000  H
  H152     1.0000 0.07080  0.78640  0.09970  Biso   1.000  H
  C137     1.0000 0.01450  0.78370  0.50580  Biso   1.000  C
  C138     1.0000 0.98550  0.28370  0.99420  Biso   1.000  C
  C139     1.0000 0.98550  0.21630  0.49420  Biso   1.000  C
  C140     1.0000 0.01450  0.71630  0.00580  Biso   1.000  C
  C141     1.0000 0.13950  0.83040  0.51920  Biso   1.000  C
  C142     1.0000 0.86050  0.33040  0.98080  Biso   1.000  C
  C143     1.0000 0.86050  0.16960  0.48080  Biso   1.000  C
  C144     1.0000 0.13950  0.66960  0.01920  Biso   1.000  C
  H153     1.0000 0.14930  0.74480  0.54800  Biso   1.000  H
  H154     1.0000 0.85070  0.24480  0.95200  Biso   1.000  H
  H155     1.0000 0.85070  0.25520  0.45200  Biso   1.000  H
  H156     1.0000 0.14930  0.75520  0.04800  Biso   1.000  H
  H157     1.0000 0.17740  0.90420  0.54260  Biso   1.000  H
  H158     1.0000 0.82260  0.40420  0.95740  Biso   1.000  H
  H159     1.0000 0.82260  0.09580  0.45740  Biso   1.000  H
  H160     1.0000 0.17740  0.59580  0.04260  Biso   1.000  H
