data_image0
_cell_length_a       11.4008
_cell_length_b       9.6644
_cell_length_c       16.7665
_cell_angle_alpha    90
_cell_angle_beta     96.393
_cell_angle_gamma    90

_symmetry_space_group_name_H-M    "P 1"
_symmetry_int_tables_number       1

loop_
  _symmetry_equiv_pos_as_xyz
  'x, y, z'

loop_
  _atom_site_label
  _atom_site_occupancy
  _atom_site_fract_x
  _atom_site_fract_y
  _atom_site_fract_z
  _atom_site_thermal_displace_type
  _atom_site_B_iso_or_equiv
  _atom_site_type_symbol
  Cu1      1.0000 0.08519  0.55591  0.07449  Biso   1.000  Cu
  Cu2      1.0000 0.41481  0.05591  0.42551  Biso   1.000  Cu
  Cu3      1.0000 0.91481  0.44409  0.92551  Biso   1.000  Cu
  Cu4      1.0000 0.58519  0.94409  0.57449  Biso   1.000  Cu
  Cl1      1.0000 0.89350  0.62445  0.02383  Biso   1.000  Cl
  Cl2      1.0000 0.60650  0.12445  0.47617  Biso   1.000  Cl
  Cl3      1.0000 0.10650  0.37555  0.97617  Biso   1.000  Cl
  Cl4      1.0000 0.39350  0.87555  0.52383  Biso   1.000  Cl
  S1       1.0000 0.06799  0.42293  0.18808  Biso   1.000  S
  S2       1.0000 0.43201  0.92293  0.31192  Biso   1.000  S
  S3       1.0000 0.93201  0.57707  0.81192  Biso   1.000  S
  S4       1.0000 0.56799  0.07707  0.68808  Biso   1.000  S
  S5       1.0000 0.27117  0.21396  0.42956  Biso   1.000  S
  S6       1.0000 0.22883  0.71396  0.07044  Biso   1.000  S
  S7       1.0000 0.72883  0.78604  0.57044  Biso   1.000  S
  S8       1.0000 0.77117  0.28604  0.92956  Biso   1.000  S
  O1       1.0000 0.91610  0.16170  0.42860  Biso   1.000  O
  O2       1.0000 0.58390  0.66170  0.07140  Biso   1.000  O
  O3       1.0000 0.08390  0.83830  0.57140  Biso   1.000  O
  O4       1.0000 0.41610  0.33830  0.92860  Biso   1.000  O
  O5       1.0000 0.88370  0.24650  0.29920  Biso   1.000  O
  O6       1.0000 0.61630  0.74650  0.20080  Biso   1.000  O
  O7       1.0000 0.11630  0.75350  0.70080  Biso   1.000  O
  O8       1.0000 0.38370  0.25350  0.79920  Biso   1.000  O
  C1       1.0000 0.83240  0.21950  0.36980  Biso   1.000  C
  C2       1.0000 0.66760  0.71950  0.13020  Biso   1.000  C
  C3       1.0000 0.16760  0.78050  0.63020  Biso   1.000  C
  C4       1.0000 0.33240  0.28050  0.86980  Biso   1.000  C
  H1       1.0000 0.76690  0.15590  0.35820  Biso   1.000  H
  H2       1.0000 0.73310  0.65590  0.14180  Biso   1.000  H
  H3       1.0000 0.23310  0.84410  0.64180  Biso   1.000  H
  H4       1.0000 0.26690  0.34410  0.85820  Biso   1.000  H
  H5       1.0000 0.80190  0.30480  0.38990  Biso   1.000  H
  H6       1.0000 0.69810  0.80480  0.11010  Biso   1.000  H
  H7       1.0000 0.19810  0.69520  0.61010  Biso   1.000  H
  H8       1.0000 0.30190  0.19520  0.88990  Biso   1.000  H
  C5       1.0000 0.90710  0.13760  0.25170  Biso   1.000  C
  C6       1.0000 0.59290  0.63760  0.24830  Biso   1.000  C
  C7       1.0000 0.09290  0.86240  0.74830  Biso   1.000  C
  C8       1.0000 0.40710  0.36240  0.75170  Biso   1.000  C
  C9       1.0000 0.90410  0.99980  0.27480  Biso   1.000  C
  C10      1.0000 0.59590  0.49980  0.22520  Biso   1.000  C
  C11      1.0000 0.09590  0.00020  0.72520  Biso   1.000  C
  C12      1.0000 0.40410  0.50020  0.77480  Biso   1.000  C
  H9       1.0000 0.88640  0.97580  0.32580  Biso   1.000  H
  H10      1.0000 0.61360  0.47580  0.17420  Biso   1.000  H
  H11      1.0000 0.11360  0.02420  0.67420  Biso   1.000  H
  H12      1.0000 0.38640  0.52420  0.82580  Biso   1.000  H
  C13      1.0000 0.92770  0.89910  0.22050  Biso   1.000  C
  C14      1.0000 0.57230  0.39910  0.27950  Biso   1.000  C
  C15      1.0000 0.07230  0.10090  0.77950  Biso   1.000  C
  C16      1.0000 0.42770  0.60090  0.72050  Biso   1.000  C
  H13      1.0000 0.92420  0.80650  0.23520  Biso   1.000  H
  H14      1.0000 0.57580  0.30650  0.26480  Biso   1.000  H
  H15      1.0000 0.07580  0.19350  0.76480  Biso   1.000  H
  H16      1.0000 0.42420  0.69350  0.73520  Biso   1.000  H
  C17      1.0000 0.95570  0.93130  0.14700  Biso   1.000  C
  C18      1.0000 0.54430  0.43130  0.35300  Biso   1.000  C
  C19      1.0000 0.04430  0.06870  0.85300  Biso   1.000  C
  C20      1.0000 0.45570  0.56870  0.64700  Biso   1.000  C
  H17      1.0000 0.97200  0.86140  0.11170  Biso   1.000  H
  H18      1.0000 0.52800  0.36140  0.38830  Biso   1.000  H
  H19      1.0000 0.02800  0.13860  0.88830  Biso   1.000  H
  H20      1.0000 0.47200  0.63860  0.61170  Biso   1.000  H
  C21      1.0000 0.96020  0.06900  0.12350  Biso   1.000  C
  C22      1.0000 0.53980  0.56900  0.37650  Biso   1.000  C
  C23      1.0000 0.03980  0.93100  0.87650  Biso   1.000  C
  C24      1.0000 0.46020  0.43100  0.62350  Biso   1.000  C
  H21      1.0000 0.97970  0.09080  0.07260  Biso   1.000  H
  H22      1.0000 0.52030  0.59080  0.42740  Biso   1.000  H
  H23      1.0000 0.02030  0.90920  0.92740  Biso   1.000  H
  H24      1.0000 0.47970  0.40920  0.57260  Biso   1.000  H
  C25      1.0000 0.93590  0.17460  0.17600  Biso   1.000  C
  C26      1.0000 0.56410  0.67460  0.32400  Biso   1.000  C
  C27      1.0000 0.06410  0.82540  0.82400  Biso   1.000  C
  C28      1.0000 0.43590  0.32540  0.67600  Biso   1.000  C
  C29      1.0000 0.93800  0.32080  0.14930  Biso   1.000  C
  C30      1.0000 0.56200  0.82080  0.35070  Biso   1.000  C
  C31      1.0000 0.06200  0.67920  0.85070  Biso   1.000  C
  C32      1.0000 0.43800  0.17920  0.64930  Biso   1.000  C
  H25      1.0000 0.86840  0.36660  0.16490  Biso   1.000  H
  H26      1.0000 0.63160  0.86660  0.33510  Biso   1.000  H
  H27      1.0000 0.13160  0.63340  0.83510  Biso   1.000  H
  H28      1.0000 0.36840  0.13340  0.66490  Biso   1.000  H
  H29      1.0000 0.93220  0.32190  0.09120  Biso   1.000  H
  H30      1.0000 0.56780  0.82190  0.40880  Biso   1.000  H
  H31      1.0000 0.06780  0.67810  0.90880  Biso   1.000  H
  H32      1.0000 0.43220  0.17810  0.59120  Biso   1.000  H
  C33      1.0000 0.19170  0.30590  0.18770  Biso   1.000  C
  C34      1.0000 0.30830  0.80590  0.31230  Biso   1.000  C
  C35      1.0000 0.80830  0.69410  0.81230  Biso   1.000  C
  C36      1.0000 0.69170  0.19410  0.68770  Biso   1.000  C
  H33      1.0000 0.16360  0.21670  0.16700  Biso   1.000  H
  H34      1.0000 0.33640  0.71670  0.33300  Biso   1.000  H
  H35      1.0000 0.83640  0.78330  0.83300  Biso   1.000  H
  H36      1.0000 0.66360  0.28330  0.66700  Biso   1.000  H
  H37      1.0000 0.24600  0.34190  0.15220  Biso   1.000  H
  H38      1.0000 0.25400  0.84190  0.34780  Biso   1.000  H
  H39      1.0000 0.75400  0.65810  0.84780  Biso   1.000  H
  H40      1.0000 0.74600  0.15810  0.65220  Biso   1.000  H
  C37      1.0000 0.25660  0.28680  0.27080  Biso   1.000  C
  C38      1.0000 0.24340  0.78680  0.22920  Biso   1.000  C
  C39      1.0000 0.74340  0.71320  0.72920  Biso   1.000  C
  C40      1.0000 0.75660  0.21320  0.77080  Biso   1.000  C
  H41      1.0000 0.32590  0.23030  0.26650  Biso   1.000  H
  H42      1.0000 0.17410  0.73030  0.23350  Biso   1.000  H
  H43      1.0000 0.67410  0.76970  0.73350  Biso   1.000  H
  H44      1.0000 0.82590  0.26970  0.76650  Biso   1.000  H
  H45      1.0000 0.28360  0.37670  0.29110  Biso   1.000  H
  H46      1.0000 0.21640  0.87670  0.20890  Biso   1.000  H
  H47      1.0000 0.71640  0.62330  0.70890  Biso   1.000  H
  H48      1.0000 0.78360  0.12330  0.79110  Biso   1.000  H
  C41      1.0000 0.18700  0.22260  0.32970  Biso   1.000  C
  C42      1.0000 0.31300  0.72260  0.17030  Biso   1.000  C
  C43      1.0000 0.81300  0.77740  0.67030  Biso   1.000  C
  C44      1.0000 0.68700  0.27740  0.82970  Biso   1.000  C
  H49      1.0000 0.16430  0.12980  0.31200  Biso   1.000  H
  H50      1.0000 0.33570  0.62980  0.18800  Biso   1.000  H
  H51      1.0000 0.83570  0.87020  0.68800  Biso   1.000  H
  H52      1.0000 0.66430  0.37020  0.81200  Biso   1.000  H
  H53      1.0000 0.11560  0.27580  0.33280  Biso   1.000  H
  H54      1.0000 0.38440  0.77580  0.16720  Biso   1.000  H
  H55      1.0000 0.88440  0.72420  0.66720  Biso   1.000  H
  H56      1.0000 0.61560  0.22420  0.83280  Biso   1.000  H
  C45      1.0000 0.15760  0.13240  0.48260  Biso   1.000  C
  C46      1.0000 0.34240  0.63240  0.01740  Biso   1.000  C
  C47      1.0000 0.84240  0.86760  0.51740  Biso   1.000  C
  C48      1.0000 0.65760  0.36760  0.98260  Biso   1.000  C
  H57      1.0000 0.10950  0.07350  0.44520  Biso   1.000  H
  H58      1.0000 0.39050  0.57350  0.05480  Biso   1.000  H
  H59      1.0000 0.89050  0.92650  0.55480  Biso   1.000  H
  H60      1.0000 0.60950  0.42650  0.94520  Biso   1.000  H
  H61      1.0000 0.19590  0.07360  0.52460  Biso   1.000  H
  H62      1.0000 0.30410  0.57360  0.97540  Biso   1.000  H
  H63      1.0000 0.80410  0.92640  0.47540  Biso   1.000  H
  H64      1.0000 0.69590  0.42640  0.02460  Biso   1.000  H
  C49      1.0000 0.07900  0.23140  0.51910  Biso   1.000  C
  C50      1.0000 0.42100  0.73140  0.98090  Biso   1.000  C
  C51      1.0000 0.92100  0.76860  0.48090  Biso   1.000  C
  C52      1.0000 0.57900  0.26860  0.01910  Biso   1.000  C
  C53      1.0000 0.12420  0.31140  0.58500  Biso   1.000  C
  C54      1.0000 0.37580  0.81140  0.91500  Biso   1.000  C
  C55      1.0000 0.87580  0.68860  0.41500  Biso   1.000  C
  C56      1.0000 0.62420  0.18860  0.08500  Biso   1.000  C
  H65      1.0000 0.20370  0.30460  0.60410  Biso   1.000  H
  H66      1.0000 0.29630  0.80460  0.89590  Biso   1.000  H
  H67      1.0000 0.79630  0.69540  0.39590  Biso   1.000  H
  H68      1.0000 0.70370  0.19540  0.10410  Biso   1.000  H
  C57      1.0000 0.05300  0.40010  0.62190  Biso   1.000  C
  C58      1.0000 0.44700  0.90010  0.87810  Biso   1.000  C
  C59      1.0000 0.94700  0.59990  0.37810  Biso   1.000  C
  C60      1.0000 0.55300  0.09990  0.12190  Biso   1.000  C
  H69      1.0000 0.08490  0.45460  0.66460  Biso   1.000  H
  H70      1.0000 0.41510  0.95460  0.83540  Biso   1.000  H
  H71      1.0000 0.91510  0.54540  0.33540  Biso   1.000  H
  H72      1.0000 0.58490  0.04540  0.16460  Biso   1.000  H
  C61      1.0000 0.93320  0.40810  0.59530  Biso   1.000  C
  C62      1.0000 0.56680  0.90810  0.90470  Biso   1.000  C
  C63      1.0000 0.06680  0.59190  0.40470  Biso   1.000  C
  C64      1.0000 0.43320  0.09190  0.09530  Biso   1.000  C
  H73      1.0000 0.88410  0.46580  0.62110  Biso   1.000  H
  H74      1.0000 0.61590  0.96580  0.87890  Biso   1.000  H
  H75      1.0000 0.11590  0.53420  0.37890  Biso   1.000  H
  H76      1.0000 0.38410  0.03420  0.12110  Biso   1.000  H
  C65      1.0000 0.88850  0.33060  0.53120  Biso   1.000  C
  C66      1.0000 0.61150  0.83060  0.96880  Biso   1.000  C
  C67      1.0000 0.11150  0.66940  0.46880  Biso   1.000  C
  C68      1.0000 0.38850  0.16940  0.03120  Biso   1.000  C
  H77      1.0000 0.80840  0.33610  0.51320  Biso   1.000  H
  H78      1.0000 0.69160  0.83610  0.98680  Biso   1.000  H
  H79      1.0000 0.19160  0.66390  0.48680  Biso   1.000  H
  H80      1.0000 0.30840  0.16390  0.01320  Biso   1.000  H
  C69      1.0000 0.95980  0.24460  0.49270  Biso   1.000  C
  C70      1.0000 0.54020  0.74460  0.00730  Biso   1.000  C
  C71      1.0000 0.04020  0.75540  0.50730  Biso   1.000  C
  C72      1.0000 0.45980  0.25540  0.99270  Biso   1.000  C
