data_image0
_cell_length_a       11.814
_cell_length_b       14.973
_cell_length_c       11.418
_cell_angle_alpha    90
_cell_angle_beta     105.401
_cell_angle_gamma    90

_symmetry_space_group_name_H-M    "P 1"
_symmetry_int_tables_number       1

loop_
  _symmetry_equiv_pos_as_xyz
  'x, y, z'

loop_
  _atom_site_label
  _atom_site_occupancy
  _atom_site_fract_x
  _atom_site_fract_y
  _atom_site_fract_z
  _atom_site_thermal_displace_type
  _atom_site_B_iso_or_equiv
  _atom_site_type_symbol
  Cu1      1.0000 0.67299  0.22213  0.78086  Biso   1.000  Cu
  Cu2      1.0000 0.32701  0.72213  0.71914  Biso   1.000  Cu
  Cu3      1.0000 0.32701  0.77787  0.21914  Biso   1.000  Cu
  Cu4      1.0000 0.67299  0.27787  0.28086  Biso   1.000  Cu
  O1       1.0000 0.92870  0.89050  0.95720  Biso   1.000  O
  O2       1.0000 0.07130  0.39050  0.54280  Biso   1.000  O
  O3       1.0000 0.07130  0.10950  0.04280  Biso   1.000  O
  O4       1.0000 0.92870  0.60950  0.45720  Biso   1.000  O
  O5       1.0000 0.78950  0.79520  0.83370  Biso   1.000  O
  O6       1.0000 0.21050  0.29520  0.66630  Biso   1.000  O
  O7       1.0000 0.21050  0.20480  0.16630  Biso   1.000  O
  O8       1.0000 0.78950  0.70480  0.33370  Biso   1.000  O
  S1       1.0000 0.65450  0.10238  0.90830  Biso   1.000  S
  S2       1.0000 0.34550  0.60238  0.59170  Biso   1.000  S
  S3       1.0000 0.34550  0.89762  0.09170  Biso   1.000  S
  S4       1.0000 0.65450  0.39762  0.40830  Biso   1.000  S
  S5       1.0000 0.49880  0.80626  0.75670  Biso   1.000  S
  S6       1.0000 0.50120  0.30626  0.74330  Biso   1.000  S
  S7       1.0000 0.50120  0.19374  0.24330  Biso   1.000  S
  S8       1.0000 0.49880  0.69374  0.25670  Biso   1.000  S
  S9       1.0000 0.82180  0.20054  0.43300  Biso   1.000  S
  S10      1.0000 0.17820  0.70054  0.06700  Biso   1.000  S
  S11      1.0000 0.17820  0.79946  0.56700  Biso   1.000  S
  S12      1.0000 0.82180  0.29946  0.93300  Biso   1.000  S
  N1       1.0000 0.73080  0.20350  0.63910  Biso   1.000  N
  N2       1.0000 0.26920  0.70350  0.86090  Biso   1.000  N
  N3       1.0000 0.26920  0.79650  0.36090  Biso   1.000  N
  N4       1.0000 0.73080  0.29650  0.13910  Biso   1.000  N
  C1       1.0000 0.89960  0.91920  0.06180  Biso   1.000  C
  C2       1.0000 0.10040  0.41920  0.43820  Biso   1.000  C
  C3       1.0000 0.10040  0.08080  0.93820  Biso   1.000  C
  C4       1.0000 0.89960  0.58080  0.56180  Biso   1.000  C
  C5       1.0000 0.94480  0.87790  0.17300  Biso   1.000  C
  C6       1.0000 0.05520  0.37790  0.32700  Biso   1.000  C
  C7       1.0000 0.05520  0.12210  0.82700  Biso   1.000  C
  C8       1.0000 0.94480  0.62210  0.67300  Biso   1.000  C
  H1       1.0000 0.98850  0.82420  0.17640  Biso   1.000  H
  H2       1.0000 0.01150  0.32420  0.32360  Biso   1.000  H
  H3       1.0000 0.01150  0.17580  0.82360  Biso   1.000  H
  H4       1.0000 0.98850  0.67580  0.67640  Biso   1.000  H
  C9       1.0000 0.92780  0.91280  0.27900  Biso   1.000  C
  C10      1.0000 0.07220  0.41280  0.22100  Biso   1.000  C
  C11      1.0000 0.07220  0.08720  0.72100  Biso   1.000  C
  C12      1.0000 0.92780  0.58720  0.77900  Biso   1.000  C
  H5       1.0000 0.95810  0.88390  0.35490  Biso   1.000  H
  H6       1.0000 0.04190  0.38390  0.14510  Biso   1.000  H
  H7       1.0000 0.04190  0.11610  0.64510  Biso   1.000  H
  H8       1.0000 0.95810  0.61610  0.85490  Biso   1.000  H
  C13      1.0000 0.86390  0.99300  0.27010  Biso   1.000  C
  C14      1.0000 0.13610  0.49300  0.22990  Biso   1.000  C
  C15      1.0000 0.13610  0.00700  0.72990  Biso   1.000  C
  C16      1.0000 0.86390  0.50700  0.77010  Biso   1.000  C
  H9       1.0000 0.85080  0.01880  0.34140  Biso   1.000  H
  H10      1.0000 0.14920  0.51880  0.15860  Biso   1.000  H
  H11      1.0000 0.14920  0.98120  0.65860  Biso   1.000  H
  H12      1.0000 0.85080  0.48120  0.84140  Biso   1.000  H
  C17      1.0000 0.82080  0.03370  0.16160  Biso   1.000  C
  C18      1.0000 0.17920  0.53370  0.33840  Biso   1.000  C
  C19      1.0000 0.17920  0.96630  0.83840  Biso   1.000  C
  C20      1.0000 0.82080  0.46630  0.66160  Biso   1.000  C
  H13      1.0000 0.77840  0.08790  0.15930  Biso   1.000  H
  H14      1.0000 0.22160  0.58790  0.34070  Biso   1.000  H
  H15      1.0000 0.22160  0.91210  0.84070  Biso   1.000  H
  H16      1.0000 0.77840  0.41210  0.65930  Biso   1.000  H
  C21      1.0000 0.83580  0.99940  0.05240  Biso   1.000  C
  C22      1.0000 0.16420  0.49940  0.44760  Biso   1.000  C
  C23      1.0000 0.16420  0.00060  0.94760  Biso   1.000  C
  C24      1.0000 0.83580  0.50060  0.55240  Biso   1.000  C
  C25      1.0000 0.79530  0.04740  0.93310  Biso   1.000  C
  C26      1.0000 0.20470  0.54740  0.56690  Biso   1.000  C
  C27      1.0000 0.20470  0.95260  0.06690  Biso   1.000  C
  C28      1.0000 0.79530  0.45260  0.43310  Biso   1.000  C
  H17      1.0000 0.79070  0.00390  0.86670  Biso   1.000  H
  H18      1.0000 0.20930  0.50390  0.63330  Biso   1.000  H
  H19      1.0000 0.20930  0.99610  0.13330  Biso   1.000  H
  H20      1.0000 0.79070  0.49610  0.36670  Biso   1.000  H
  H21      1.0000 0.85490  0.09270  0.92820  Biso   1.000  H
  H22      1.0000 0.14510  0.59270  0.57180  Biso   1.000  H
  H23      1.0000 0.14510  0.90730  0.07180  Biso   1.000  H
  H24      1.0000 0.85490  0.40730  0.42820  Biso   1.000  H
  C29      1.0000 0.55390  0.01140  0.84920  Biso   1.000  C
  C30      1.0000 0.44610  0.51140  0.65080  Biso   1.000  C
  C31      1.0000 0.44610  0.98860  0.15080  Biso   1.000  C
  C32      1.0000 0.55390  0.48860  0.34920  Biso   1.000  C
  H25      1.0000 0.57940  0.95800  0.90060  Biso   1.000  H
  H26      1.0000 0.42060  0.45800  0.59940  Biso   1.000  H
  H27      1.0000 0.42060  0.04200  0.09940  Biso   1.000  H
  H28      1.0000 0.57940  0.54200  0.40060  Biso   1.000  H
  H29      1.0000 0.47480  0.02810  0.85580  Biso   1.000  H
  H30      1.0000 0.52520  0.52810  0.64420  Biso   1.000  H
  H31      1.0000 0.52520  0.97190  0.14420  Biso   1.000  H
  H32      1.0000 0.47480  0.47190  0.35580  Biso   1.000  H
  C33      1.0000 0.54530  0.98650  0.71700  Biso   1.000  C
  C34      1.0000 0.45470  0.48650  0.78300  Biso   1.000  C
  C35      1.0000 0.45470  0.01350  0.28300  Biso   1.000  C
  C36      1.0000 0.54530  0.51350  0.21700  Biso   1.000  C
  H33      1.0000 0.62330  0.96680  0.71030  Biso   1.000  H
  H34      1.0000 0.37670  0.46680  0.78970  Biso   1.000  H
  H35      1.0000 0.37670  0.03320  0.28970  Biso   1.000  H
  H36      1.0000 0.62330  0.53320  0.21030  Biso   1.000  H
  H37      1.0000 0.52250  0.04010  0.66520  Biso   1.000  H
  H38      1.0000 0.47750  0.54010  0.83480  Biso   1.000  H
  H39      1.0000 0.47750  0.95990  0.33480  Biso   1.000  H
  H40      1.0000 0.52250  0.45990  0.16520  Biso   1.000  H
  C37      1.0000 0.45430  0.91110  0.67000  Biso   1.000  C
  C38      1.0000 0.54570  0.41110  0.83000  Biso   1.000  C
  C39      1.0000 0.54570  0.08890  0.33000  Biso   1.000  C
  C40      1.0000 0.45430  0.58890  0.17000  Biso   1.000  C
  H41      1.0000 0.44730  0.90020  0.58280  Biso   1.000  H
  H42      1.0000 0.55270  0.40020  0.91720  Biso   1.000  H
  H43      1.0000 0.55270  0.09980  0.41720  Biso   1.000  H
  H44      1.0000 0.44730  0.59980  0.08280  Biso   1.000  H
  H45      1.0000 0.37640  0.93020  0.67810  Biso   1.000  H
  H46      1.0000 0.62360  0.43020  0.82190  Biso   1.000  H
  H47      1.0000 0.62360  0.06980  0.32190  Biso   1.000  H
  H48      1.0000 0.37640  0.56980  0.17810  Biso   1.000  H
  C41      1.0000 0.58150  0.75070  0.66320  Biso   1.000  C
  C42      1.0000 0.41850  0.25070  0.83680  Biso   1.000  C
  C43      1.0000 0.41850  0.24930  0.33680  Biso   1.000  C
  C44      1.0000 0.58150  0.74930  0.16320  Biso   1.000  C
  H49      1.0000 0.61960  0.69690  0.70700  Biso   1.000  H
  H50      1.0000 0.38040  0.19690  0.79300  Biso   1.000  H
  H51      1.0000 0.38040  0.30310  0.29300  Biso   1.000  H
  H52      1.0000 0.61960  0.80310  0.20700  Biso   1.000  H
  H53      1.0000 0.52560  0.73030  0.58710  Biso   1.000  H
  H54      1.0000 0.47440  0.23030  0.91290  Biso   1.000  H
  H55      1.0000 0.47440  0.26970  0.41290  Biso   1.000  H
  H56      1.0000 0.52560  0.76970  0.08710  Biso   1.000  H
  C45      1.0000 0.67360  0.80690  0.63130  Biso   1.000  C
  C46      1.0000 0.32640  0.30690  0.86870  Biso   1.000  C
  C47      1.0000 0.32640  0.19310  0.36870  Biso   1.000  C
  C48      1.0000 0.67360  0.69310  0.13130  Biso   1.000  C
  C49      1.0000 0.65400  0.84050  0.51520  Biso   1.000  C
  C50      1.0000 0.34600  0.34050  0.98480  Biso   1.000  C
  C51      1.0000 0.34600  0.15950  0.48480  Biso   1.000  C
  C52      1.0000 0.65400  0.65950  0.01520  Biso   1.000  C
  H57      1.0000 0.58400  0.82470  0.45570  Biso   1.000  H
  H58      1.0000 0.41600  0.32470  0.04430  Biso   1.000  H
  H59      1.0000 0.41600  0.17530  0.54430  Biso   1.000  H
  H60      1.0000 0.58400  0.67530  0.95570  Biso   1.000  H
  C53      1.0000 0.73480  0.89720  0.48320  Biso   1.000  C
  C54      1.0000 0.26520  0.39720  0.01680  Biso   1.000  C
  C55      1.0000 0.26520  0.10280  0.51680  Biso   1.000  C
  C56      1.0000 0.73480  0.60280  0.98320  Biso   1.000  C
  H61      1.0000 0.71970  0.92080  0.40340  Biso   1.000  H
  H62      1.0000 0.28030  0.42080  0.09660  Biso   1.000  H
  H63      1.0000 0.28030  0.07920  0.59660  Biso   1.000  H
  H64      1.0000 0.71970  0.57920  0.90340  Biso   1.000  H
  C57      1.0000 0.83720  0.91820  0.57000  Biso   1.000  C
  C58      1.0000 0.16280  0.41820  0.93000  Biso   1.000  C
  C59      1.0000 0.16280  0.08180  0.43000  Biso   1.000  C
  C60      1.0000 0.83720  0.58180  0.07000  Biso   1.000  C
  H65      1.0000 0.89300  0.95580  0.54810  Biso   1.000  H
  H66      1.0000 0.10700  0.45580  0.95190  Biso   1.000  H
  H67      1.0000 0.10700  0.04420  0.45190  Biso   1.000  H
  H68      1.0000 0.89300  0.54420  0.04810  Biso   1.000  H
  C61      1.0000 0.86110  0.88640  0.68780  Biso   1.000  C
  C62      1.0000 0.13890  0.38640  0.81220  Biso   1.000  C
  C63      1.0000 0.13890  0.11360  0.31220  Biso   1.000  C
  C64      1.0000 0.86110  0.61360  0.18780  Biso   1.000  C
  H69      1.0000 0.93190  0.90200  0.74620  Biso   1.000  H
  H70      1.0000 0.06810  0.40200  0.75380  Biso   1.000  H
  H71      1.0000 0.06810  0.09800  0.25380  Biso   1.000  H
  H72      1.0000 0.93190  0.59800  0.24620  Biso   1.000  H
  C65      1.0000 0.77740  0.83000  0.71910  Biso   1.000  C
  C66      1.0000 0.22260  0.33000  0.78090  Biso   1.000  C
  C67      1.0000 0.22260  0.17000  0.28090  Biso   1.000  C
  C68      1.0000 0.77740  0.67000  0.21910  Biso   1.000  C
  C69      1.0000 0.89990  0.80090  0.91700  Biso   1.000  C
  C70      1.0000 0.10010  0.30090  0.58300  Biso   1.000  C
  C71      1.0000 0.10010  0.19910  0.08300  Biso   1.000  C
  C72      1.0000 0.89990  0.69910  0.41700  Biso   1.000  C
  H73      1.0000 0.96020  0.77800  0.87870  Biso   1.000  H
  H74      1.0000 0.03980  0.27800  0.62130  Biso   1.000  H
  H75      1.0000 0.03980  0.22200  0.12130  Biso   1.000  H
  H76      1.0000 0.96020  0.72200  0.37870  Biso   1.000  H
  H77      1.0000 0.90100  0.76270  0.98800  Biso   1.000  H
  H78      1.0000 0.09900  0.26270  0.51200  Biso   1.000  H
  H79      1.0000 0.09900  0.23730  0.01200  Biso   1.000  H
  H80      1.0000 0.90100  0.73730  0.48800  Biso   1.000  H
  C73      1.0000 0.76870  0.20320  0.55050  Biso   1.000  C
  C74      1.0000 0.23130  0.70320  0.94950  Biso   1.000  C
  C75      1.0000 0.23130  0.79680  0.44950  Biso   1.000  C
  C76      1.0000 0.76870  0.29680  0.05050  Biso   1.000  C
