data_image0
_cell_length_a       8.4553
_cell_length_b       15.72
_cell_length_c       27.6308
_cell_angle_alpha    91.99
_cell_angle_beta     93.966
_cell_angle_gamma    97.283

_symmetry_space_group_name_H-M    "P 1"
_symmetry_int_tables_number       1

loop_
  _symmetry_equiv_pos_as_xyz
  'x, y, z'

loop_
  _atom_site_label
  _atom_site_occupancy
  _atom_site_fract_x
  _atom_site_fract_y
  _atom_site_fract_z
  _atom_site_thermal_displace_type
  _atom_site_B_iso_or_equiv
  _atom_site_type_symbol
  Cu1      1.0000 0.10426  0.36740  0.60168  Biso   1.000  Cu
  Cu2      1.0000 0.89574  0.63260  0.39832  Biso   1.000  Cu
  Cu3      1.0000 0.48085  0.49263  0.73369  Biso   1.000  Cu
  Cu4      1.0000 0.51915  0.50737  0.26631  Biso   1.000  Cu
  Cu5      1.0000 0.86547  0.62205  0.86390  Biso   1.000  Cu
  Cu6      1.0000 0.13453  0.37795  0.13610  Biso   1.000  Cu
  Cu7      1.0000 0.24611  0.74875  0.99658  Biso   1.000  Cu
  Cu8      1.0000 0.75389  0.25125  0.00342  Biso   1.000  Cu
  Cu9      1.0000 0.62712  0.87511  0.12904  Biso   1.000  Cu
  Cu10     1.0000 0.37288  0.12489  0.87096  Biso   1.000  Cu
  Cu11     1.0000 0.00892  0.00163  0.26040  Biso   1.000  Cu
  Cu12     1.0000 0.99108  0.99837  0.73960  Biso   1.000  Cu
  Cu13     1.0000 0.26772  0.09166  0.41922  Biso   1.000  Cu
  Cu14     1.0000 0.73228  0.90834  0.58078  Biso   1.000  Cu
  Cu15     1.0000 0.66272  0.31551  0.48965  Biso   1.000  Cu
  Cu16     1.0000 0.33728  0.68449  0.51035  Biso   1.000  Cu
  Cu17     1.0000 0.71095  0.23748  0.37931  Biso   1.000  Cu
  Cu18     1.0000 0.28905  0.76252  0.62069  Biso   1.000  Cu
  Cu19     1.0000 0.68242  0.56192  0.65343  Biso   1.000  Cu
  Cu20     1.0000 0.31758  0.43808  0.34657  Biso   1.000  Cu
  Cu21     1.0000 0.10361  0.70182  0.79898  Biso   1.000  Cu
  Cu22     1.0000 0.89639  0.29818  0.20102  Biso   1.000  Cu
  Cu23     1.0000 0.49790  0.83265  0.94278  Biso   1.000  Cu
  Cu24     1.0000 0.50210  0.16735  0.05722  Biso   1.000  Cu
  Cu25     1.0000 0.89607  0.96470  0.08718  Biso   1.000  Cu
  Cu26     1.0000 0.10393  0.03530  0.91282  Biso   1.000  Cu
  Cu27     1.0000 0.29086  0.09664  0.23272  Biso   1.000  Cu
  Cu28     1.0000 0.70914  0.90336  0.76728  Biso   1.000  Cu
  Cu29     1.0000 0.80826  0.26773  0.62295  Biso   1.000  Cu
  Cu30     1.0000 0.19174  0.73227  0.37705  Biso   1.000  Cu
  Cu31     1.0000 0.79874  0.93595  0.35428  Biso   1.000  Cu
  Cu32     1.0000 0.20126  0.06405  0.64572  Biso   1.000  Cu
  Cu33     1.0000 0.20506  0.40242  0.76997  Biso   1.000  Cu
  Cu34     1.0000 0.79494  0.59758  0.23003  Biso   1.000  Cu
  Cu35     1.0000 0.60362  0.53434  0.91204  Biso   1.000  Cu
  Cu36     1.0000 0.39638  0.46566  0.08796  Biso   1.000  Cu
  Cu37     1.0000 0.00157  0.66667  0.05512  Biso   1.000  Cu
  Cu38     1.0000 0.99843  0.33333  0.94488  Biso   1.000  Cu
  Cu39     1.0000 0.40072  0.79966  0.20052  Biso   1.000  Cu
  Cu40     1.0000 0.59928  0.20034  0.79948  Biso   1.000  Cu
  N1       1.0000 0.24830  0.41240  0.65201  Biso   1.000  N
  N2       1.0000 0.75170  0.58760  0.34799  Biso   1.000  N
  C1       1.0000 0.33990  0.44440  0.68248  Biso   1.000  C
  C2       1.0000 0.66010  0.55560  0.31752  Biso   1.000  C
  N3       1.0000 0.63170  0.54330  0.78200  Biso   1.000  N
  N4       1.0000 0.36830  0.45670  0.21800  Biso   1.000  N
  C3       1.0000 0.72080  0.57400  0.81282  Biso   1.000  C
  C4       1.0000 0.27920  0.42600  0.18718  Biso   1.000  C
  N5       1.0000 0.01220  0.67080  0.91417  Biso   1.000  N
  N6       1.0000 0.98780  0.32920  0.08583  Biso   1.000  N
  C5       1.0000 0.09940  0.70000  0.94613  Biso   1.000  C
  C6       1.0000 0.90060  0.30000  0.05387  Biso   1.000  C
  C7       1.0000 0.39220  0.79710  0.04715  Biso   1.000  C
  C8       1.0000 0.60780  0.20290  0.95285  Biso   1.000  C
  N7       1.0000 0.47900  0.82610  0.07913  Biso   1.000  N
  N8       1.0000 0.52100  0.17390  0.92087  Biso   1.000  N
  C9       1.0000 0.77080  0.92230  0.18032  Biso   1.000  C
  C10      1.0000 0.22920  0.07770  0.81968  Biso   1.000  C
  N9       1.0000 0.85960  0.95280  0.21101  Biso   1.000  N
  N10      1.0000 0.14040  0.04720  0.78899  Biso   1.000  N
  C11      1.0000 0.13260  0.04150  0.31667  Biso   1.000  C
  C12      1.0000 0.86740  0.95850  0.68333  Biso   1.000  C
  N11      1.0000 0.20010  0.06410  0.35314  Biso   1.000  N
  N12      1.0000 0.79990  0.93590  0.64686  Biso   1.000  N
  C13      1.0000 0.42370  0.16270  0.45810  Biso   1.000  C
  C14      1.0000 0.57630  0.83730  0.54190  Biso   1.000  C
  N13      1.0000 0.51330  0.21760  0.47720  Biso   1.000  N
  N14      1.0000 0.48670  0.78240  0.52280  Biso   1.000  N
  C15      1.0000 0.87560  0.33560  0.51610  Biso   1.000  C
  C16      1.0000 0.12440  0.66440  0.48390  Biso   1.000  C
  N15      1.0000 0.98240  0.34690  0.54340  Biso   1.000  N
  N16      1.0000 0.01760  0.65310  0.45660  Biso   1.000  N
  C17      1.0000 0.56120  0.31510  0.36660  Biso   1.000  C
  C18      1.0000 0.43880  0.68490  0.63340  Biso   1.000  C
  N17      1.0000 0.52710  0.63660  0.64056  Biso   1.000  N
  N18      1.0000 0.47290  0.36340  0.35944  Biso   1.000  N
  C19      1.0000 0.76730  0.05100  0.36691  Biso   1.000  C
  C20      1.0000 0.23270  0.94900  0.63309  Biso   1.000  C
  N19      1.0000 0.74170  0.12040  0.37209  Biso   1.000  N
  N20      1.0000 0.25830  0.87960  0.62791  Biso   1.000  N
  N21      1.0000 0.72560  0.44800  0.64239  Biso   1.000  N
  N22      1.0000 0.27440  0.55200  0.35761  Biso   1.000  N
  C21      1.0000 0.76230  0.38050  0.63633  Biso   1.000  C
  C22      1.0000 0.23770  0.61950  0.36367  Biso   1.000  C
  C23      1.0000 0.13730  0.17270  0.21927  Biso   1.000  C
  C24      1.0000 0.86270  0.82730  0.78073  Biso   1.000  C
  N23      1.0000 0.95070  0.77780  0.78819  Biso   1.000  N
  N24      1.0000 0.04930  0.22220  0.21181  Biso   1.000  N
  N25      1.0000 0.14000  0.58640  0.78884  Biso   1.000  N
  N26      1.0000 0.86000  0.41360  0.21116  Biso   1.000  N
  C25      1.0000 0.16880  0.51720  0.78202  Biso   1.000  C
  C26      1.0000 0.83120  0.48280  0.21798  Biso   1.000  C
  C27      1.0000 0.74270  0.04110  0.07550  Biso   1.000  C
  C28      1.0000 0.25730  0.95890  0.92450  Biso   1.000  C
  N27      1.0000 0.34470  0.90880  0.93105  Biso   1.000  N
  N28      1.0000 0.65530  0.09120  0.06895  Biso   1.000  N
  C29      1.0000 0.53500  0.71830  0.93070  Biso   1.000  C
  C30      1.0000 0.46500  0.28170  0.06930  Biso   1.000  C
  N29      1.0000 0.56670  0.64940  0.92295  Biso   1.000  N
  N30      1.0000 0.43330  0.35060  0.07705  Biso   1.000  N
  N31      1.0000 0.96430  0.78110  0.06668  Biso   1.000  N
  N32      1.0000 0.03570  0.21890  0.93332  Biso   1.000  N
  C31      1.0000 0.93280  0.85030  0.07442  Biso   1.000  C
  C32      1.0000 0.06720  0.14970  0.92558  Biso   1.000  C
  N33      1.0000 0.36160  0.91400  0.21212  Biso   1.000  N
  N34      1.0000 0.63840  0.08600  0.78788  Biso   1.000  N
  C33      1.0000 0.33010  0.98250  0.21954  Biso   1.000  C
  C34      1.0000 0.66990  0.01750  0.78046  Biso   1.000  C
  C35      1.0000 0.96750  0.19450  0.63075  Biso   1.000  C
  C36      1.0000 0.03250  0.80550  0.36925  Biso   1.000  C
  N35      1.0000 0.94510  0.85530  0.36501  Biso   1.000  N
  N36      1.0000 0.05490  0.14470  0.63499  Biso   1.000  N
  N37      1.0000 0.55370  0.72340  0.21120  Biso   1.000  N
  N38      1.0000 0.44630  0.27660  0.78880  Biso   1.000  N
  C37      1.0000 0.35860  0.32620  0.78224  Biso   1.000  C
  C38      1.0000 0.64140  0.67380  0.21776  Biso   1.000  C
  C39      1.0000 0.75810  0.45880  0.92479  Biso   1.000  C
  C40      1.0000 0.24190  0.54120  0.07521  Biso   1.000  C
  N39      1.0000 0.15530  0.59080  0.06749  Biso   1.000  N
  N40      1.0000 0.84470  0.40920  0.93251  Biso   1.000  N
  N41      1.0000 0.08340  0.02690  0.45722  Biso   1.000  N
  N42      1.0000 0.91660  0.97310  0.54278  Biso   1.000  N
  H1       1.0000 0.00870  0.00070  0.43430  Biso   1.000  H
  H2       1.0000 0.99130  0.99930  0.56570  Biso   1.000  H
  N43      1.0000 0.55480  0.42390  0.47980  Biso   1.000  N
  N44      1.0000 0.44520  0.57610  0.52020  Biso   1.000  N
  H3       1.0000 0.52840  0.42550  0.44740  Biso   1.000  H
  H4       1.0000 0.47160  0.57450  0.55260  Biso   1.000  H
  N45      1.0000 0.93730  0.30990  0.40250  Biso   1.000  N
  N46      1.0000 0.06270  0.69010  0.59750  Biso   1.000  N
  H5       1.0000 0.94360  0.31220  0.43550  Biso   1.000  H
  H6       1.0000 0.05640  0.68780  0.56450  Biso   1.000  H
  N47      1.0000 0.90000  0.63750  0.68080  Biso   1.000  N
  N48      1.0000 0.10000  0.36250  0.31920  Biso   1.000  N
  H7       1.0000 0.90240  0.63870  0.71380  Biso   1.000  H
  H8       1.0000 0.09760  0.36130  0.28620  Biso   1.000  H
  N49      1.0000 0.32420  0.77600  0.82308  Biso   1.000  N
  N50      1.0000 0.67580  0.22400  0.17692  Biso   1.000  N
  H9       1.0000 0.32940  0.77780  0.85610  Biso   1.000  H
  H10      1.0000 0.67060  0.22220  0.14390  Biso   1.000  H
  N51      1.0000 0.51010  0.16940  0.25979  Biso   1.000  N
  N52      1.0000 0.48990  0.83060  0.74021  Biso   1.000  N
  H11      1.0000 0.51240  0.17030  0.29280  Biso   1.000  H
  H12      1.0000 0.48760  0.82970  0.70720  Biso   1.000  H
  N53      1.0000 0.71710  0.90540  0.96907  Biso   1.000  N
  N54      1.0000 0.28290  0.09460  0.03093  Biso   1.000  N
  H13      1.0000 0.71990  0.90590  0.00210  Biso   1.000  H
  H14      1.0000 0.28010  0.09410  0.99790  Biso   1.000  H
  N55      1.0000 0.11650  0.03740  0.11275  Biso   1.000  N
  N56      1.0000 0.88350  0.96260  0.88725  Biso   1.000  N
  H15      1.0000 0.12000  0.03810  0.14580  Biso   1.000  H
  H16      1.0000 0.88000  0.96190  0.85420  Biso   1.000  H
  N57      1.0000 0.58960  0.19500  0.59644  Biso   1.000  N
  N58      1.0000 0.41040  0.80500  0.40356  Biso   1.000  N
  H17      1.0000 0.58680  0.19560  0.56350  Biso   1.000  H
  H18      1.0000 0.41320  0.80440  0.43650  Biso   1.000  H
  N59      1.0000 0.58110  0.86520  0.32307  Biso   1.000  N
  N60      1.0000 0.41890  0.13480  0.67693  Biso   1.000  N
  H19      1.0000 0.58260  0.86710  0.29020  Biso   1.000  H
  H20      1.0000 0.41740  0.13290  0.70980  Biso   1.000  H
  N61      1.0000 0.98570  0.32980  0.74357  Biso   1.000  N
  N62      1.0000 0.01430  0.67020  0.25643  Biso   1.000  N
  H21      1.0000 0.98220  0.32960  0.71060  Biso   1.000  H
  H22      1.0000 0.01780  0.67040  0.28940  Biso   1.000  H
  N63      1.0000 0.18030  0.72730  0.17398  Biso   1.000  N
  N64      1.0000 0.81970  0.27270  0.82602  Biso   1.000  N
  H23      1.0000 0.17700  0.72710  0.14100  Biso   1.000  H
  H24      1.0000 0.82300  0.27290  0.85900  Biso   1.000  H
  N65      1.0000 0.38350  0.46060  0.88771  Biso   1.000  N
  N66      1.0000 0.61650  0.53940  0.11229  Biso   1.000  N
  H25      1.0000 0.37920  0.45860  0.85470  Biso   1.000  H
  H26      1.0000 0.62080  0.54140  0.14530  Biso   1.000  H
  N67      1.0000 0.78170  0.59320  0.02955  Biso   1.000  N
  N68      1.0000 0.21830  0.40680  0.97045  Biso   1.000  N
  H27      1.0000 0.77860  0.59140  0.99650  Biso   1.000  H
  H28      1.0000 0.22140  0.40860  0.00350  Biso   1.000  H
  C41      1.0000 0.00210  0.08680  0.48600  Biso   1.000  C
  C42      1.0000 0.99790  0.91320  0.51400  Biso   1.000  C
  H29      1.0000 0.96010  0.12760  0.46460  Biso   1.000  H
  H30      1.0000 0.03990  0.87240  0.53540  Biso   1.000  H
  H31      1.0000 0.07950  0.11880  0.50960  Biso   1.000  H
  H32      1.0000 0.92050  0.88120  0.49040  Biso   1.000  H
  C43      1.0000 0.13360  0.95880  0.48770  Biso   1.000  C
  C44      1.0000 0.86640  0.04120  0.51230  Biso   1.000  C
  H33      1.0000 0.21810  0.98380  0.51140  Biso   1.000  H
  H34      1.0000 0.78190  0.01620  0.48860  Biso   1.000  H
  H35      1.0000 0.17690  0.91710  0.46740  Biso   1.000  H
  H36      1.0000 0.82310  0.08290  0.53260  Biso   1.000  H
  C45      1.0000 0.66140  0.50410  0.49390  Biso   1.000  C
  C46      1.0000 0.33860  0.49590  0.50610  Biso   1.000  C
  H37      1.0000 0.71370  0.49720  0.52560  Biso   1.000  H
  H38      1.0000 0.28630  0.50280  0.47440  Biso   1.000  H
  H39      1.0000 0.74400  0.51080  0.47120  Biso   1.000  H
  H40      1.0000 0.25600  0.48920  0.52880  Biso   1.000  H
  C47      1.0000 0.40470  0.42330  0.50420  Biso   1.000  C
  C48      1.0000 0.59530  0.57670  0.49580  Biso   1.000  C
  H41      1.0000 0.32660  0.37910  0.48800  Biso   1.000  H
  H42      1.0000 0.67340  0.62090  0.51200  Biso   1.000  H
  H43      1.0000 0.42470  0.40630  0.53730  Biso   1.000  H
  H44      1.0000 0.57530  0.59370  0.46270  Biso   1.000  H
  C49      1.0000 0.07720  0.27090  0.38811  Biso   1.000  C
  C50      1.0000 0.92280  0.72910  0.61189  Biso   1.000  C
  H45      1.0000 0.17380  0.30210  0.40430  Biso   1.000  H
  H46      1.0000 0.82620  0.69790  0.59570  Biso   1.000  H
  H47      1.0000 0.06880  0.21190  0.39790  Biso   1.000  H
  H48      1.0000 0.93120  0.78810  0.60210  Biso   1.000  H
  C51      1.0000 0.95010  0.39980  0.38754  Biso   1.000  C
  C52      1.0000 0.04990  0.60020  0.61246  Biso   1.000  C
  H49      1.0000 0.85790  0.42570  0.39690  Biso   1.000  H
  H50      1.0000 0.14210  0.57430  0.60310  Biso   1.000  H
  H51      1.0000 0.04540  0.43270  0.40360  Biso   1.000  H
  H52      1.0000 0.95460  0.56730  0.59640  Biso   1.000  H
  C53      1.0000 0.04170  0.59890  0.66633  Biso   1.000  C
  C54      1.0000 0.95830  0.40110  0.33367  Biso   1.000  C
  H53      1.0000 0.03510  0.54020  0.67650  Biso   1.000  H
  H54      1.0000 0.96490  0.45980  0.32350  Biso   1.000  H
  H55      1.0000 0.13800  0.63100  0.68220  Biso   1.000  H
  H56      1.0000 0.86200  0.36900  0.31780  Biso   1.000  H
  C55      1.0000 0.91360  0.72690  0.66573  Biso   1.000  C
  C56      1.0000 0.08640  0.27310  0.33427  Biso   1.000  C
  H57      1.0000 0.00870  0.75950  0.68200  Biso   1.000  H
  H58      1.0000 0.99130  0.24050  0.31800  Biso   1.000  H
  H59      1.0000 0.82150  0.75290  0.67500  Biso   1.000  H
  H60      1.0000 0.17850  0.24710  0.32500  Biso   1.000  H
  C57      1.0000 0.46570  0.73720  0.80858  Biso   1.000  C
  C58      1.0000 0.53430  0.26280  0.19142  Biso   1.000  C
  H61      1.0000 0.45720  0.67800  0.81800  Biso   1.000  H
  H62      1.0000 0.54280  0.32200  0.18200  Biso   1.000  H
  H63      1.0000 0.56180  0.76810  0.82520  Biso   1.000  H
  H64      1.0000 0.43820  0.23190  0.17480  Biso   1.000  H
  C59      1.0000 0.33610  0.86600  0.80831  Biso   1.000  C
  C60      1.0000 0.66390  0.13400  0.19169  Biso   1.000  C
  H65      1.0000 0.42970  0.89920  0.82500  Biso   1.000  H
  H66      1.0000 0.57030  0.10080  0.17500  Biso   1.000  H
  H67      1.0000 0.24250  0.89110  0.81720  Biso   1.000  H
  H68      1.0000 0.75750  0.10890  0.18280  Biso   1.000  H
  C61      1.0000 0.52300  0.25950  0.24529  Biso   1.000  C
  C62      1.0000 0.47700  0.74050  0.75471  Biso   1.000  C
  H69      1.0000 0.43000  0.28490  0.25440  Biso   1.000  H
  H70      1.0000 0.57000  0.71510  0.74560  Biso   1.000  H
  H71      1.0000 0.61720  0.29220  0.26200  Biso   1.000  H
  H72      1.0000 0.38280  0.70780  0.73800  Biso   1.000  H
  C63      1.0000 0.65180  0.13130  0.24560  Biso   1.000  C
  C64      1.0000 0.34820  0.86870  0.75440  Biso   1.000  C
  H73      1.0000 0.74750  0.16270  0.26230  Biso   1.000  H
  H74      1.0000 0.25250  0.83730  0.73770  Biso   1.000  H
  H75      1.0000 0.64410  0.07220  0.25520  Biso   1.000  H
  H76      1.0000 0.35590  0.92780  0.74480  Biso   1.000  H
  C65      1.0000 0.85880  0.86720  0.95494  Biso   1.000  C
  C66      1.0000 0.14120  0.13280  0.04506  Biso   1.000  C
  H77      1.0000 0.84990  0.80770  0.96390  Biso   1.000  H
  H78      1.0000 0.15010  0.19230  0.03610  Biso   1.000  H
  H79      1.0000 0.95440  0.89780  0.97200  Biso   1.000  H
  H80      1.0000 0.04560  0.10220  0.02800  Biso   1.000  H
  C67      1.0000 0.73060  0.99610  0.95533  Biso   1.000  C
  C68      1.0000 0.26940  0.00390  0.04467  Biso   1.000  C
  H81      1.0000 0.82490  0.02830  0.97230  Biso   1.000  H
  H82      1.0000 0.17510  0.97170  0.02770  Biso   1.000  H
  H83      1.0000 0.63770  0.02130  0.96470  Biso   1.000  H
  H84      1.0000 0.36230  0.97870  0.03530  Biso   1.000  H
  C69      1.0000 0.12860  0.12810  0.09905  Biso   1.000  C
  C70      1.0000 0.87140  0.87190  0.90095  Biso   1.000  C
  H85      1.0000 0.03490  0.15280  0.10820  Biso   1.000  H
  H86      1.0000 0.96510  0.84720  0.89180  Biso   1.000  H
  H87      1.0000 0.22210  0.16070  0.11620  Biso   1.000  H
  H88      1.0000 0.77790  0.83930  0.88380  Biso   1.000  H
  C71      1.0000 0.25790  0.99890  0.09855  Biso   1.000  C
  C72      1.0000 0.74210  0.00110  0.90145  Biso   1.000  C
  H89      1.0000 0.35380  0.02930  0.11560  Biso   1.000  H
  H90      1.0000 0.64620  0.97070  0.88440  Biso   1.000  H
  H91      1.0000 0.24880  0.93940  0.10740  Biso   1.000  H
  H92      1.0000 0.75120  0.06060  0.89260  Biso   1.000  H
  C73      1.0000 0.44760  0.23270  0.61086  Biso   1.000  C
  C74      1.0000 0.55240  0.76730  0.38914  Biso   1.000  C
  H93      1.0000 0.35230  0.20270  0.59330  Biso   1.000  H
  H94      1.0000 0.64770  0.79730  0.40670  Biso   1.000  H
  H95      1.0000 0.45670  0.29250  0.60260  Biso   1.000  H
  H96      1.0000 0.54330  0.70750  0.39740  Biso   1.000  H
  C75      1.0000 0.57300  0.10330  0.60905  Biso   1.000  C
  C76      1.0000 0.42700  0.89670  0.39095  Biso   1.000  C
  H97      1.0000 0.66490  0.07750  0.59940  Biso   1.000  H
  H98      1.0000 0.33510  0.92250  0.40060  Biso   1.000  H
  H99      1.0000 0.47800  0.07240  0.59170  Biso   1.000  H
  H100     1.0000 0.52200  0.92760  0.40830  Biso   1.000  H
  C77      1.0000 0.56620  0.77400  0.33554  Biso   1.000  C
  C78      1.0000 0.43380  0.22600  0.66446  Biso   1.000  C
  H101     1.0000 0.47230  0.74260  0.31790  Biso   1.000  H
  H102     1.0000 0.52770  0.25740  0.68210  Biso   1.000  H
  H103     1.0000 0.65930  0.74890  0.32620  Biso   1.000  H
  H104     1.0000 0.34070  0.25110  0.67380  Biso   1.000  H
  C79      1.0000 0.43930  0.90310  0.33720  Biso   1.000  C
  C80      1.0000 0.56070  0.09690  0.66280  Biso   1.000  C
  H105     1.0000 0.44830  0.96280  0.32880  Biso   1.000  H
  H106     1.0000 0.55170  0.03720  0.67120  Biso   1.000  H
  H107     1.0000 0.34380  0.87280  0.31990  Biso   1.000  H
  H108     1.0000 0.65620  0.12720  0.68010  Biso   1.000  H
  C81      1.0000 0.84400  0.36770  0.75832  Biso   1.000  C
  C82      1.0000 0.15600  0.63230  0.24168  Biso   1.000  C
  H109     1.0000 0.74810  0.33670  0.74160  Biso   1.000  H
  H110     1.0000 0.25190  0.66330  0.25840  Biso   1.000  H
  H111     1.0000 0.85170  0.42700  0.74920  Biso   1.000  H
  H112     1.0000 0.14830  0.57300  0.25080  Biso   1.000  H
  C83      1.0000 0.97200  0.23880  0.75729  Biso   1.000  C
  C84      1.0000 0.02800  0.76120  0.24271  Biso   1.000  C
  H113     1.0000 0.06470  0.21350  0.74790  Biso   1.000  H
  H114     1.0000 0.93530  0.78650  0.25210  Biso   1.000  H
  H115     1.0000 0.87750  0.20670  0.74040  Biso   1.000  H
  H116     1.0000 0.12250  0.79330  0.25960  Biso   1.000  H
  C85      1.0000 0.16700  0.63640  0.18773  Biso   1.000  C
  C86      1.0000 0.83300  0.36360  0.81227  Biso   1.000  C
  H117     1.0000 0.07250  0.60420  0.17090  Biso   1.000  H
  H118     1.0000 0.92750  0.39580  0.82910  Biso   1.000  H
  H119     1.0000 0.25980  0.61110  0.17840  Biso   1.000  H
  H120     1.0000 0.74020  0.38890  0.82160  Biso   1.000  H
  C87      1.0000 0.03910  0.76600  0.18876  Biso   1.000  C
  C88      1.0000 0.96090  0.23400  0.81124  Biso   1.000  C
  H121     1.0000 0.04800  0.82540  0.17990  Biso   1.000  H
  H122     1.0000 0.95200  0.17460  0.82010  Biso   1.000  H
  H123     1.0000 0.94290  0.73550  0.17190  Biso   1.000  H
  H124     1.0000 0.05710  0.26450  0.82810  Biso   1.000  H
  C89      1.0000 0.24180  0.49950  0.90155  Biso   1.000  C
  C90      1.0000 0.75820  0.50050  0.09845  Biso   1.000  C
  H125     1.0000 0.14590  0.46840  0.88490  Biso   1.000  H
  H126     1.0000 0.85410  0.53160  0.11510  Biso   1.000  H
  H127     1.0000 0.25030  0.55860  0.89190  Biso   1.000  H
  H128     1.0000 0.74970  0.44140  0.10810  Biso   1.000  H
  C91      1.0000 0.37130  0.37050  0.90254  Biso   1.000  C
  C92      1.0000 0.62870  0.62950  0.09746  Biso   1.000  C
  H129     1.0000 0.46480  0.34540  0.89360  Biso   1.000  H
  H130     1.0000 0.53520  0.65460  0.10640  Biso   1.000  H
  H131     1.0000 0.27760  0.33740  0.88580  Biso   1.000  H
  H132     1.0000 0.72240  0.66260  0.11420  Biso   1.000  H
  C93      1.0000 0.76920  0.50330  0.04453  Biso   1.000  C
  C94      1.0000 0.23080  0.49670  0.95547  Biso   1.000  C
  H133     1.0000 0.67500  0.47030  0.02800  Biso   1.000  H
  H134     1.0000 0.32500  0.52970  0.97200  Biso   1.000  H
  H135     1.0000 0.86230  0.47790  0.03550  Biso   1.000  H
  H136     1.0000 0.13770  0.52210  0.96450  Biso   1.000  H
  C95      1.0000 0.64070  0.63260  0.04328  Biso   1.000  C
  C96      1.0000 0.35930  0.36740  0.95672  Biso   1.000  C
  H137     1.0000 0.65020  0.69170  0.03370  Biso   1.000  H
  H138     1.0000 0.34980  0.30830  0.96630  Biso   1.000  H
  H139     1.0000 0.54470  0.60180  0.02650  Biso   1.000  H
  H140     1.0000 0.45530  0.39820  0.97350  Biso   1.000  H
