data_image0
_cell_length_a       21.1765
_cell_length_b       9.341
_cell_length_c       17.3954
_cell_angle_alpha    90
_cell_angle_beta     106.453
_cell_angle_gamma    90

_symmetry_space_group_name_H-M    "P 1"
_symmetry_int_tables_number       1

loop_
  _symmetry_equiv_pos_as_xyz
  'x, y, z'

loop_
  _atom_site_label
  _atom_site_occupancy
  _atom_site_fract_x
  _atom_site_fract_y
  _atom_site_fract_z
  _atom_site_thermal_displace_type
  _atom_site_B_iso_or_equiv
  _atom_site_type_symbol
  Ce1      1.0000 0.01380  0.68367  0.07305  Biso   1.000  Ce
  Ce2      1.0000 0.51380  0.18367  0.07305  Biso   1.000  Ce
  Ce3      1.0000 0.98620  0.68367  0.42695  Biso   1.000  Ce
  Ce4      1.0000 0.48620  0.18367  0.42695  Biso   1.000  Ce
  Ce5      1.0000 0.98620  0.31633  0.92695  Biso   1.000  Ce
  Ce6      1.0000 0.48620  0.81633  0.92695  Biso   1.000  Ce
  Ce7      1.0000 0.01380  0.31633  0.57305  Biso   1.000  Ce
  Ce8      1.0000 0.51380  0.81633  0.57305  Biso   1.000  Ce
  Cu1      1.0000 0.33504  0.42960  0.86410  Biso   1.000  Cu
  Cu2      1.0000 0.83504  0.92960  0.86410  Biso   1.000  Cu
  Cu3      1.0000 0.66496  0.42960  0.63590  Biso   1.000  Cu
  Cu4      1.0000 0.16496  0.92960  0.63590  Biso   1.000  Cu
  Cu5      1.0000 0.66496  0.57040  0.13590  Biso   1.000  Cu
  Cu6      1.0000 0.16496  0.07040  0.13590  Biso   1.000  Cu
  Cu7      1.0000 0.33504  0.57040  0.36410  Biso   1.000  Cu
  Cu8      1.0000 0.83504  0.07040  0.36410  Biso   1.000  Cu
  C1       1.0000 0.95910  0.35600  0.11860  Biso   1.000  C
  C2       1.0000 0.45910  0.85600  0.11860  Biso   1.000  C
  C3       1.0000 0.04090  0.35600  0.38140  Biso   1.000  C
  C4       1.0000 0.54090  0.85600  0.38140  Biso   1.000  C
  C5       1.0000 0.04090  0.64400  0.88140  Biso   1.000  C
  C6       1.0000 0.54090  0.14400  0.88140  Biso   1.000  C
  C7       1.0000 0.95910  0.64400  0.61860  Biso   1.000  C
  C8       1.0000 0.45910  0.14400  0.61860  Biso   1.000  C
  C9       1.0000 0.92570  0.27680  0.17370  Biso   1.000  C
  C10      1.0000 0.42570  0.77680  0.17370  Biso   1.000  C
  C11      1.0000 0.07430  0.27680  0.32630  Biso   1.000  C
  C12      1.0000 0.57430  0.77680  0.32630  Biso   1.000  C
  C13      1.0000 0.07430  0.72320  0.82630  Biso   1.000  C
  C14      1.0000 0.57430  0.22320  0.82630  Biso   1.000  C
  C15      1.0000 0.92570  0.72320  0.67370  Biso   1.000  C
  C16      1.0000 0.42570  0.22320  0.67370  Biso   1.000  C
  C17      1.0000 0.89930  0.36200  0.22280  Biso   1.000  C
  C18      1.0000 0.39930  0.86200  0.22280  Biso   1.000  C
  C19      1.0000 0.10070  0.36200  0.27720  Biso   1.000  C
  C20      1.0000 0.60070  0.86200  0.27720  Biso   1.000  C
  C21      1.0000 0.10070  0.63800  0.77720  Biso   1.000  C
  C22      1.0000 0.60070  0.13800  0.77720  Biso   1.000  C
  C23      1.0000 0.89930  0.63800  0.72280  Biso   1.000  C
  C24      1.0000 0.39930  0.13800  0.72280  Biso   1.000  C
  H1       1.0000 0.90140  0.46120  0.22040  Biso   1.000  H
  H2       1.0000 0.40140  0.96120  0.22040  Biso   1.000  H
  H3       1.0000 0.09860  0.46120  0.27960  Biso   1.000  H
  H4       1.0000 0.59860  0.96120  0.27960  Biso   1.000  H
  H5       1.0000 0.09860  0.53880  0.77960  Biso   1.000  H
  H6       1.0000 0.59860  0.03880  0.77960  Biso   1.000  H
  H7       1.0000 0.90140  0.53880  0.72040  Biso   1.000  H
  H8       1.0000 0.40140  0.03880  0.72040  Biso   1.000  H
  C25      1.0000 0.86930  0.29600  0.27590  Biso   1.000  C
  C26      1.0000 0.36930  0.79600  0.27590  Biso   1.000  C
  C27      1.0000 0.13070  0.29600  0.22410  Biso   1.000  C
  C28      1.0000 0.63070  0.79600  0.22410  Biso   1.000  C
  C29      1.0000 0.13070  0.70400  0.72410  Biso   1.000  C
  C30      1.0000 0.63070  0.20400  0.72410  Biso   1.000  C
  C31      1.0000 0.86930  0.70400  0.77590  Biso   1.000  C
  C32      1.0000 0.36930  0.20400  0.77590  Biso   1.000  C
  H9       1.0000 0.85120  0.35170  0.30840  Biso   1.000  H
  H10      1.0000 0.35120  0.85170  0.30840  Biso   1.000  H
  H11      1.0000 0.14880  0.35170  0.19160  Biso   1.000  H
  H12      1.0000 0.64880  0.85170  0.19160  Biso   1.000  H
  H13      1.0000 0.14880  0.64830  0.69160  Biso   1.000  H
  H14      1.0000 0.64880  0.14830  0.69160  Biso   1.000  H
  H15      1.0000 0.85120  0.64830  0.80840  Biso   1.000  H
  H16      1.0000 0.35120  0.14830  0.80840  Biso   1.000  H
  C33      1.0000 0.88900  0.07500  0.23030  Biso   1.000  C
  C34      1.0000 0.38900  0.57500  0.23030  Biso   1.000  C
  C35      1.0000 0.11100  0.07500  0.26970  Biso   1.000  C
  C36      1.0000 0.61100  0.57500  0.26970  Biso   1.000  C
  C37      1.0000 0.11100  0.92500  0.76970  Biso   1.000  C
  C38      1.0000 0.61100  0.42500  0.76970  Biso   1.000  C
  C39      1.0000 0.88900  0.92500  0.73030  Biso   1.000  C
  C40      1.0000 0.38900  0.42500  0.73030  Biso   1.000  C
  H17      1.0000 0.88460  0.97590  0.23170  Biso   1.000  H
  H18      1.0000 0.38460  0.47590  0.23170  Biso   1.000  H
  H19      1.0000 0.11540  0.97590  0.26830  Biso   1.000  H
  H20      1.0000 0.61540  0.47590  0.26830  Biso   1.000  H
  H21      1.0000 0.11540  0.02410  0.76830  Biso   1.000  H
  H22      1.0000 0.61540  0.52410  0.76830  Biso   1.000  H
  H23      1.0000 0.88460  0.02410  0.73170  Biso   1.000  H
  H24      1.0000 0.38460  0.52410  0.73170  Biso   1.000  H
  C41      1.0000 0.91790  0.13300  0.17760  Biso   1.000  C
  C42      1.0000 0.41790  0.63300  0.17760  Biso   1.000  C
  C43      1.0000 0.08210  0.13300  0.32240  Biso   1.000  C
  C44      1.0000 0.58210  0.63300  0.32240  Biso   1.000  C
  C45      1.0000 0.08210  0.86700  0.82240  Biso   1.000  C
  C46      1.0000 0.58210  0.36700  0.82240  Biso   1.000  C
  C47      1.0000 0.91790  0.86700  0.67760  Biso   1.000  C
  C48      1.0000 0.41790  0.36700  0.67760  Biso   1.000  C
  H25      1.0000 0.93270  0.07350  0.14340  Biso   1.000  H
  H26      1.0000 0.43270  0.57350  0.14340  Biso   1.000  H
  H27      1.0000 0.06730  0.07350  0.35660  Biso   1.000  H
  H28      1.0000 0.56730  0.57350  0.35660  Biso   1.000  H
  H29      1.0000 0.06730  0.92650  0.85660  Biso   1.000  H
  H30      1.0000 0.56730  0.42650  0.85660  Biso   1.000  H
  H31      1.0000 0.93270  0.92650  0.64340  Biso   1.000  H
  H32      1.0000 0.43270  0.42650  0.64340  Biso   1.000  H
  C49      1.0000 0.12810  0.52000  0.05000  Biso   1.000  C
  C50      1.0000 0.62810  0.02000  0.05000  Biso   1.000  C
  C51      1.0000 0.87190  0.52000  0.45000  Biso   1.000  C
  C52      1.0000 0.37190  0.02000  0.45000  Biso   1.000  C
  C53      1.0000 0.87190  0.48000  0.95000  Biso   1.000  C
  C54      1.0000 0.37190  0.98000  0.95000  Biso   1.000  C
  C55      1.0000 0.12810  0.48000  0.55000  Biso   1.000  C
  C56      1.0000 0.62810  0.98000  0.55000  Biso   1.000  C
  C57      1.0000 0.18460  0.48900  0.01400  Biso   1.000  C
  C58      1.0000 0.68460  0.98900  0.01400  Biso   1.000  C
  C59      1.0000 0.81540  0.48900  0.48600  Biso   1.000  C
  C60      1.0000 0.31540  0.98900  0.48600  Biso   1.000  C
  C61      1.0000 0.81540  0.51100  0.98600  Biso   1.000  C
  C62      1.0000 0.31540  0.01100  0.98600  Biso   1.000  C
  C63      1.0000 0.18460  0.51100  0.51400  Biso   1.000  C
  C64      1.0000 0.68460  0.01100  0.51400  Biso   1.000  C
  C65      1.0000 0.17660  0.38500  0.95690  Biso   1.000  C
  C66      1.0000 0.67660  0.88500  0.95690  Biso   1.000  C
  C67      1.0000 0.82340  0.38500  0.54310  Biso   1.000  C
  C68      1.0000 0.32340  0.88500  0.54310  Biso   1.000  C
  C69      1.0000 0.82340  0.61500  0.04310  Biso   1.000  C
  C70      1.0000 0.32340  0.11500  0.04310  Biso   1.000  C
  C71      1.0000 0.17660  0.61500  0.45690  Biso   1.000  C
  C72      1.0000 0.67660  0.11500  0.45690  Biso   1.000  C
  H33      1.0000 0.14020  0.32510  0.94510  Biso   1.000  H
  H34      1.0000 0.64020  0.82510  0.94510  Biso   1.000  H
  H35      1.0000 0.85980  0.32510  0.55490  Biso   1.000  H
  H36      1.0000 0.35980  0.82510  0.55490  Biso   1.000  H
  H37      1.0000 0.85980  0.67490  0.05490  Biso   1.000  H
  H38      1.0000 0.35980  0.17490  0.05490  Biso   1.000  H
  H39      1.0000 0.14020  0.67490  0.44510  Biso   1.000  H
  H40      1.0000 0.64020  0.17490  0.44510  Biso   1.000  H
  C73      1.0000 0.22380  0.37200  0.91730  Biso   1.000  C
  C74      1.0000 0.72380  0.87200  0.91730  Biso   1.000  C
  C75      1.0000 0.77620  0.37200  0.58270  Biso   1.000  C
  C76      1.0000 0.27620  0.87200  0.58270  Biso   1.000  C
  C77      1.0000 0.77620  0.62800  0.08270  Biso   1.000  C
  C78      1.0000 0.27620  0.12800  0.08270  Biso   1.000  C
  C79      1.0000 0.22380  0.62800  0.41730  Biso   1.000  C
  C80      1.0000 0.72380  0.12800  0.41730  Biso   1.000  C
  H41      1.0000 0.21810  0.30050  0.87880  Biso   1.000  H
  H42      1.0000 0.71810  0.80050  0.87880  Biso   1.000  H
  H43      1.0000 0.78190  0.30050  0.62120  Biso   1.000  H
  H44      1.0000 0.28190  0.80050  0.62120  Biso   1.000  H
  H45      1.0000 0.78190  0.69950  0.12120  Biso   1.000  H
  H46      1.0000 0.28190  0.19950  0.12120  Biso   1.000  H
  H47      1.0000 0.21810  0.69950  0.37880  Biso   1.000  H
  H48      1.0000 0.71810  0.19950  0.37880  Biso   1.000  H
  C81      1.0000 0.28430  0.55100  0.98660  Biso   1.000  C
  C82      1.0000 0.78430  0.05100  0.98660  Biso   1.000  C
  C83      1.0000 0.71570  0.55100  0.51340  Biso   1.000  C
  C84      1.0000 0.21570  0.05100  0.51340  Biso   1.000  C
  C85      1.0000 0.71570  0.44900  0.01340  Biso   1.000  C
  C86      1.0000 0.21570  0.94900  0.01340  Biso   1.000  C
  C87      1.0000 0.28430  0.44900  0.48660  Biso   1.000  C
  C88      1.0000 0.78430  0.94900  0.48660  Biso   1.000  C
  H49      1.0000 0.32100  0.61040  0.99770  Biso   1.000  H
  H50      1.0000 0.82100  0.11040  0.99770  Biso   1.000  H
  H51      1.0000 0.67900  0.61040  0.50230  Biso   1.000  H
  H52      1.0000 0.17900  0.11040  0.50230  Biso   1.000  H
  H53      1.0000 0.67900  0.38960  0.00230  Biso   1.000  H
  H54      1.0000 0.17900  0.88960  0.00230  Biso   1.000  H
  H55      1.0000 0.32100  0.38960  0.49770  Biso   1.000  H
  H56      1.0000 0.82100  0.88960  0.49770  Biso   1.000  H
  C89      1.0000 0.24040  0.57100  0.03080  Biso   1.000  C
  C90      1.0000 0.74040  0.07100  0.03080  Biso   1.000  C
  C91      1.0000 0.75960  0.57100  0.46920  Biso   1.000  C
  C92      1.0000 0.25960  0.07100  0.46920  Biso   1.000  C
  C93      1.0000 0.75960  0.42900  0.96920  Biso   1.000  C
  C94      1.0000 0.25960  0.92900  0.96920  Biso   1.000  C
  C95      1.0000 0.24040  0.42900  0.53080  Biso   1.000  C
  C96      1.0000 0.74040  0.92900  0.53080  Biso   1.000  C
  H57      1.0000 0.24860  0.63840  0.07160  Biso   1.000  H
  H58      1.0000 0.74860  0.13840  0.07160  Biso   1.000  H
  H59      1.0000 0.75140  0.63840  0.42840  Biso   1.000  H
  H60      1.0000 0.25140  0.13840  0.42840  Biso   1.000  H
  H61      1.0000 0.75140  0.36160  0.92840  Biso   1.000  H
  H62      1.0000 0.25140  0.86160  0.92840  Biso   1.000  H
  H63      1.0000 0.24860  0.36160  0.57160  Biso   1.000  H
  H64      1.0000 0.74860  0.86160  0.57160  Biso   1.000  H
  C97      1.0000 0.03570  0.01590  0.02380  Biso   1.000  C
  C98      1.0000 0.53570  0.51590  0.02380  Biso   1.000  C
  C99      1.0000 0.96430  0.01590  0.47620  Biso   1.000  C
  C100     1.0000 0.46430  0.51590  0.47620  Biso   1.000  C
  C101     1.0000 0.96430  0.98410  0.97620  Biso   1.000  C
  C102     1.0000 0.46430  0.48410  0.97620  Biso   1.000  C
  C103     1.0000 0.03570  0.98410  0.52380  Biso   1.000  C
  C104     1.0000 0.53570  0.48410  0.52380  Biso   1.000  C
  C105     1.0000 0.04010  0.74190  0.26940  Biso   1.000  C
  C106     1.0000 0.54010  0.24190  0.26940  Biso   1.000  C
  C107     1.0000 0.95990  0.74190  0.23060  Biso   1.000  C
  C108     1.0000 0.45990  0.24190  0.23060  Biso   1.000  C
  C109     1.0000 0.95990  0.25810  0.73060  Biso   1.000  C
  C110     1.0000 0.45990  0.75810  0.73060  Biso   1.000  C
  C111     1.0000 0.04010  0.25810  0.76940  Biso   1.000  C
  C112     1.0000 0.54010  0.75810  0.76940  Biso   1.000  C
  N1       1.0000 0.86660  0.15500  0.28020  Biso   1.000  N
  N2       1.0000 0.36660  0.65500  0.28020  Biso   1.000  N
  N3       1.0000 0.13340  0.15500  0.21980  Biso   1.000  N
  N4       1.0000 0.63340  0.65500  0.21980  Biso   1.000  N
  N5       1.0000 0.13340  0.84500  0.71980  Biso   1.000  N
  N6       1.0000 0.63340  0.34500  0.71980  Biso   1.000  N
  N7       1.0000 0.86660  0.84500  0.78020  Biso   1.000  N
  N8       1.0000 0.36660  0.34500  0.78020  Biso   1.000  N
  N9       1.0000 0.27800  0.45500  0.93020  Biso   1.000  N
  N10      1.0000 0.77800  0.95500  0.93020  Biso   1.000  N
  N11      1.0000 0.72200  0.45500  0.56980  Biso   1.000  N
  N12      1.0000 0.22200  0.95500  0.56980  Biso   1.000  N
  N13      1.0000 0.72200  0.54500  0.06980  Biso   1.000  N
  N14      1.0000 0.22200  0.04500  0.06980  Biso   1.000  N
  N15      1.0000 0.27800  0.54500  0.43020  Biso   1.000  N
  N16      1.0000 0.77800  0.04500  0.43020  Biso   1.000  N
  O1       1.0000 0.79370  0.80700  0.26600  Biso   1.000  O
  O2       1.0000 0.29370  0.30700  0.26600  Biso   1.000  O
  O3       1.0000 0.20630  0.80700  0.23400  Biso   1.000  O
  O4       1.0000 0.70630  0.30700  0.23400  Biso   1.000  O
  O5       1.0000 0.20630  0.19300  0.73400  Biso   1.000  O
  O6       1.0000 0.70630  0.69300  0.73400  Biso   1.000  O
  O7       1.0000 0.79370  0.19300  0.76600  Biso   1.000  O
  O8       1.0000 0.29370  0.69300  0.76600  Biso   1.000  O
  O9       1.0000 0.98160  0.47250  0.13510  Biso   1.000  O
  O10      1.0000 0.48160  0.97250  0.13510  Biso   1.000  O
  O11      1.0000 0.01840  0.47250  0.36490  Biso   1.000  O
  O12      1.0000 0.51840  0.97250  0.36490  Biso   1.000  O
  O13      1.0000 0.01840  0.52750  0.86490  Biso   1.000  O
  O14      1.0000 0.51840  0.02750  0.86490  Biso   1.000  O
  O15      1.0000 0.98160  0.52750  0.63510  Biso   1.000  O
  O16      1.0000 0.48160  0.02750  0.63510  Biso   1.000  O
  O17      1.0000 0.96070  0.27760  0.05690  Biso   1.000  O
  O18      1.0000 0.46070  0.77760  0.05690  Biso   1.000  O
  O19      1.0000 0.03930  0.27760  0.44310  Biso   1.000  O
  O20      1.0000 0.53930  0.77760  0.44310  Biso   1.000  O
  O21      1.0000 0.03930  0.72240  0.94310  Biso   1.000  O
  O22      1.0000 0.53930  0.22240  0.94310  Biso   1.000  O
  O23      1.0000 0.96070  0.72240  0.55690  Biso   1.000  O
  O24      1.0000 0.46070  0.22240  0.55690  Biso   1.000  O
  O25      1.0000 0.13600  0.62300  0.09950  Biso   1.000  O
  O26      1.0000 0.63600  0.12300  0.09950  Biso   1.000  O
  O27      1.0000 0.86400  0.62300  0.40050  Biso   1.000  O
  O28      1.0000 0.36400  0.12300  0.40050  Biso   1.000  O
  O29      1.0000 0.86400  0.37700  0.90050  Biso   1.000  O
  O30      1.0000 0.36400  0.87700  0.90050  Biso   1.000  O
  O31      1.0000 0.13600  0.37700  0.59950  Biso   1.000  O
  O32      1.0000 0.63600  0.87700  0.59950  Biso   1.000  O
  O33      1.0000 0.07550  0.44930  0.02780  Biso   1.000  O
  O34      1.0000 0.57550  0.94930  0.02780  Biso   1.000  O
  O35      1.0000 0.92450  0.44930  0.47220  Biso   1.000  O
  O36      1.0000 0.42450  0.94930  0.47220  Biso   1.000  O
  O37      1.0000 0.92450  0.55070  0.97220  Biso   1.000  O
  O38      1.0000 0.42450  0.05070  0.97220  Biso   1.000  O
  O39      1.0000 0.07550  0.55070  0.52780  Biso   1.000  O
  O40      1.0000 0.57550  0.05070  0.52780  Biso   1.000  O
  O41      1.0000 0.06410  0.92650  0.07630  Biso   1.000  O
  O42      1.0000 0.56410  0.42650  0.07630  Biso   1.000  O
  O43      1.0000 0.93590  0.92650  0.42370  Biso   1.000  O
  O44      1.0000 0.43590  0.42650  0.42370  Biso   1.000  O
  O45      1.0000 0.93590  0.07350  0.92370  Biso   1.000  O
  O46      1.0000 0.43590  0.57350  0.92370  Biso   1.000  O
  O47      1.0000 0.06410  0.07350  0.57630  Biso   1.000  O
  O48      1.0000 0.56410  0.57350  0.57630  Biso   1.000  O
  O49      1.0000 0.06140  0.12890  0.00400  Biso   1.000  O
  O50      1.0000 0.56140  0.62890  0.00400  Biso   1.000  O
  O51      1.0000 0.93860  0.12890  0.49600  Biso   1.000  O
  O52      1.0000 0.43860  0.62890  0.49600  Biso   1.000  O
  O53      1.0000 0.93860  0.87110  0.99600  Biso   1.000  O
  O54      1.0000 0.43860  0.37110  0.99600  Biso   1.000  O
  O55      1.0000 0.06140  0.87110  0.50400  Biso   1.000  O
  O56      1.0000 0.56140  0.37110  0.50400  Biso   1.000  O
  O57      1.0000 0.07210  0.72470  0.22030  Biso   1.000  O
  O58      1.0000 0.57210  0.22470  0.22030  Biso   1.000  O
  O59      1.0000 0.92790  0.72470  0.27970  Biso   1.000  O
  O60      1.0000 0.42790  0.22470  0.27970  Biso   1.000  O
  O61      1.0000 0.92790  0.27530  0.77970  Biso   1.000  O
  O62      1.0000 0.42790  0.77530  0.77970  Biso   1.000  O
  O63      1.0000 0.07210  0.27530  0.72030  Biso   1.000  O
  O64      1.0000 0.57210  0.77530  0.72030  Biso   1.000  O
  O65      1.0000 0.05880  0.76640  0.34260  Biso   1.000  O
  O66      1.0000 0.55880  0.26640  0.34260  Biso   1.000  O
  O67      1.0000 0.94120  0.76640  0.15740  Biso   1.000  O
  O68      1.0000 0.44120  0.26640  0.15740  Biso   1.000  O
  O69      1.0000 0.94120  0.23360  0.65740  Biso   1.000  O
  O70      1.0000 0.44120  0.73360  0.65740  Biso   1.000  O
  O71      1.0000 0.05880  0.23360  0.84260  Biso   1.000  O
  O72      1.0000 0.55880  0.73360  0.84260  Biso   1.000  O
