data_image0
_cell_length_a       21.113
_cell_length_b       9.306
_cell_length_c       17.348
_cell_angle_alpha    90
_cell_angle_beta     106.375
_cell_angle_gamma    90

_symmetry_space_group_name_H-M    "P 1"
_symmetry_int_tables_number       1

loop_
  _symmetry_equiv_pos_as_xyz
  'x, y, z'

loop_
  _atom_site_label
  _atom_site_occupancy
  _atom_site_fract_x
  _atom_site_fract_y
  _atom_site_fract_z
  _atom_site_thermal_displace_type
  _atom_site_B_iso_or_equiv
  _atom_site_type_symbol
  Pr1      1.0000 0.01374  0.68377  0.07314  Biso   1.000  Pr
  Pr2      1.0000 0.51374  0.18377  0.07314  Biso   1.000  Pr
  Pr3      1.0000 0.98627  0.68377  0.42686  Biso   1.000  Pr
  Pr4      1.0000 0.48627  0.18377  0.42686  Biso   1.000  Pr
  Pr5      1.0000 0.98626  0.31623  0.92686  Biso   1.000  Pr
  Pr6      1.0000 0.48627  0.81623  0.92686  Biso   1.000  Pr
  Pr7      1.0000 0.01374  0.31623  0.57314  Biso   1.000  Pr
  Pr8      1.0000 0.51374  0.81623  0.57314  Biso   1.000  Pr
  Cu1      1.0000 0.33537  0.42972  0.86426  Biso   1.000  Cu
  Cu2      1.0000 0.83537  0.92972  0.86426  Biso   1.000  Cu
  Cu3      1.0000 0.66463  0.42972  0.63574  Biso   1.000  Cu
  Cu4      1.0000 0.16463  0.92972  0.63574  Biso   1.000  Cu
  Cu5      1.0000 0.66463  0.57028  0.13574  Biso   1.000  Cu
  Cu6      1.0000 0.16463  0.07028  0.13574  Biso   1.000  Cu
  Cu7      1.0000 0.33537  0.57028  0.36426  Biso   1.000  Cu
  Cu8      1.0000 0.83537  0.07028  0.36426  Biso   1.000  Cu
  C1       1.0000 0.95925  0.34800  0.11695  Biso   1.000  C
  C2       1.0000 0.45925  0.84800  0.11695  Biso   1.000  C
  C3       1.0000 0.04075  0.34800  0.38305  Biso   1.000  C
  C4       1.0000 0.54075  0.84800  0.38305  Biso   1.000  C
  C5       1.0000 0.04075  0.65200  0.88305  Biso   1.000  C
  C6       1.0000 0.54075  0.15200  0.88305  Biso   1.000  C
  C7       1.0000 0.95925  0.65200  0.61695  Biso   1.000  C
  C8       1.0000 0.45925  0.15200  0.61695  Biso   1.000  C
  C9       1.0000 0.92465  0.27970  0.17285  Biso   1.000  C
  C10      1.0000 0.42465  0.77970  0.17285  Biso   1.000  C
  C11      1.0000 0.07535  0.27970  0.32715  Biso   1.000  C
  C12      1.0000 0.57535  0.77970  0.32715  Biso   1.000  C
  C13      1.0000 0.07535  0.72030  0.82715  Biso   1.000  C
  C14      1.0000 0.57535  0.22030  0.82715  Biso   1.000  C
  C15      1.0000 0.92465  0.72030  0.67285  Biso   1.000  C
  C16      1.0000 0.42465  0.22030  0.67285  Biso   1.000  C
  C17      1.0000 0.89930  0.36350  0.22250  Biso   1.000  C
  C18      1.0000 0.39930  0.86350  0.22250  Biso   1.000  C
  C19      1.0000 0.10070  0.36350  0.27750  Biso   1.000  C
  C20      1.0000 0.60070  0.86350  0.27750  Biso   1.000  C
  C21      1.0000 0.10070  0.63650  0.77750  Biso   1.000  C
  C22      1.0000 0.60070  0.13650  0.77750  Biso   1.000  C
  C23      1.0000 0.89930  0.63650  0.72250  Biso   1.000  C
  C24      1.0000 0.39930  0.13650  0.72250  Biso   1.000  C
  H1       1.0000 0.90180  0.46320  0.22090  Biso   1.000  H
  H2       1.0000 0.40180  0.96320  0.22090  Biso   1.000  H
  H3       1.0000 0.09820  0.46320  0.27910  Biso   1.000  H
  H4       1.0000 0.59820  0.96320  0.27910  Biso   1.000  H
  H5       1.0000 0.09820  0.53680  0.77910  Biso   1.000  H
  H6       1.0000 0.59820  0.03680  0.77910  Biso   1.000  H
  H7       1.0000 0.90180  0.53680  0.72090  Biso   1.000  H
  H8       1.0000 0.40180  0.03680  0.72090  Biso   1.000  H
  C25      1.0000 0.86990  0.29640  0.27470  Biso   1.000  C
  C26      1.0000 0.36990  0.79640  0.27470  Biso   1.000  C
  C27      1.0000 0.13010  0.29640  0.22530  Biso   1.000  C
  C28      1.0000 0.63010  0.79640  0.22530  Biso   1.000  C
  C29      1.0000 0.13010  0.70360  0.72530  Biso   1.000  C
  C30      1.0000 0.63010  0.20360  0.72530  Biso   1.000  C
  C31      1.0000 0.86990  0.70360  0.77470  Biso   1.000  C
  C32      1.0000 0.36990  0.20360  0.77470  Biso   1.000  C
  H9       1.0000 0.85190  0.35350  0.30720  Biso   1.000  H
  H10      1.0000 0.35190  0.85350  0.30720  Biso   1.000  H
  H11      1.0000 0.14810  0.35350  0.19280  Biso   1.000  H
  H12      1.0000 0.64810  0.85350  0.19280  Biso   1.000  H
  H13      1.0000 0.14810  0.64650  0.69280  Biso   1.000  H
  H14      1.0000 0.64810  0.14650  0.69280  Biso   1.000  H
  H15      1.0000 0.85190  0.64650  0.80720  Biso   1.000  H
  H16      1.0000 0.35190  0.14650  0.80720  Biso   1.000  H
  C33      1.0000 0.88890  0.07570  0.23100  Biso   1.000  C
  C34      1.0000 0.38890  0.57570  0.23100  Biso   1.000  C
  C35      1.0000 0.11110  0.07570  0.26900  Biso   1.000  C
  C36      1.0000 0.61110  0.57570  0.26900  Biso   1.000  C
  C37      1.0000 0.11110  0.92430  0.76900  Biso   1.000  C
  C38      1.0000 0.61110  0.42430  0.76900  Biso   1.000  C
  C39      1.0000 0.88890  0.92430  0.73100  Biso   1.000  C
  C40      1.0000 0.38890  0.42430  0.73100  Biso   1.000  C
  H17      1.0000 0.88480  0.97640  0.23280  Biso   1.000  H
  H18      1.0000 0.38480  0.47640  0.23280  Biso   1.000  H
  H19      1.0000 0.11520  0.97640  0.26720  Biso   1.000  H
  H20      1.0000 0.61520  0.47640  0.26720  Biso   1.000  H
  H21      1.0000 0.11520  0.02360  0.76720  Biso   1.000  H
  H22      1.0000 0.61520  0.52360  0.76720  Biso   1.000  H
  H23      1.0000 0.88480  0.02360  0.73280  Biso   1.000  H
  H24      1.0000 0.38480  0.52360  0.73280  Biso   1.000  H
  C41      1.0000 0.91850  0.13360  0.17660  Biso   1.000  C
  C42      1.0000 0.41850  0.63360  0.17660  Biso   1.000  C
  C43      1.0000 0.08150  0.13360  0.32340  Biso   1.000  C
  C44      1.0000 0.58150  0.63360  0.32340  Biso   1.000  C
  C45      1.0000 0.08150  0.86640  0.82340  Biso   1.000  C
  C46      1.0000 0.58150  0.36640  0.82340  Biso   1.000  C
  C47      1.0000 0.91850  0.86640  0.67660  Biso   1.000  C
  C48      1.0000 0.41850  0.36640  0.67660  Biso   1.000  C
  H25      1.0000 0.93410  0.07410  0.14290  Biso   1.000  H
  H26      1.0000 0.43410  0.57410  0.14290  Biso   1.000  H
  H27      1.0000 0.06590  0.07410  0.35710  Biso   1.000  H
  H28      1.0000 0.56590  0.57410  0.35710  Biso   1.000  H
  H29      1.0000 0.06590  0.92590  0.85710  Biso   1.000  H
  H30      1.0000 0.56590  0.42590  0.85710  Biso   1.000  H
  H31      1.0000 0.93410  0.92590  0.64290  Biso   1.000  H
  H32      1.0000 0.43410  0.42590  0.64290  Biso   1.000  H
  C49      1.0000 0.12865  0.52180  0.05077  Biso   1.000  C
  C50      1.0000 0.62865  0.02180  0.05077  Biso   1.000  C
  C51      1.0000 0.87135  0.52180  0.44923  Biso   1.000  C
  C52      1.0000 0.37135  0.02180  0.44923  Biso   1.000  C
  C53      1.0000 0.87135  0.47820  0.94923  Biso   1.000  C
  C54      1.0000 0.37135  0.97820  0.94923  Biso   1.000  C
  C55      1.0000 0.12865  0.47820  0.55077  Biso   1.000  C
  C56      1.0000 0.62865  0.97820  0.55077  Biso   1.000  C
  C57      1.0000 0.18406  0.48900  0.01420  Biso   1.000  C
  C58      1.0000 0.68406  0.98900  0.01420  Biso   1.000  C
  C59      1.0000 0.81594  0.48900  0.48580  Biso   1.000  C
  C60      1.0000 0.31594  0.98900  0.48580  Biso   1.000  C
  C61      1.0000 0.81594  0.51100  0.98580  Biso   1.000  C
  C62      1.0000 0.31594  0.01100  0.98580  Biso   1.000  C
  C63      1.0000 0.18406  0.51100  0.51420  Biso   1.000  C
  C64      1.0000 0.68406  0.01100  0.51420  Biso   1.000  C
  C65      1.0000 0.17720  0.38430  0.95730  Biso   1.000  C
  C66      1.0000 0.67720  0.88430  0.95730  Biso   1.000  C
  C67      1.0000 0.82280  0.38430  0.54270  Biso   1.000  C
  C68      1.0000 0.32280  0.88430  0.54270  Biso   1.000  C
  C69      1.0000 0.82280  0.61570  0.04270  Biso   1.000  C
  C70      1.0000 0.32280  0.11570  0.04270  Biso   1.000  C
  C71      1.0000 0.17720  0.61570  0.45730  Biso   1.000  C
  C72      1.0000 0.67720  0.11570  0.45730  Biso   1.000  C
  H33      1.0000 0.14110  0.32260  0.94620  Biso   1.000  H
  H34      1.0000 0.64110  0.82260  0.94620  Biso   1.000  H
  H35      1.0000 0.85890  0.32260  0.55380  Biso   1.000  H
  H36      1.0000 0.35890  0.82260  0.55380  Biso   1.000  H
  H37      1.0000 0.85890  0.67740  0.05380  Biso   1.000  H
  H38      1.0000 0.35890  0.17740  0.05380  Biso   1.000  H
  H39      1.0000 0.14110  0.67740  0.44620  Biso   1.000  H
  H40      1.0000 0.64110  0.17740  0.44620  Biso   1.000  H
  C73      1.0000 0.22410  0.37090  0.91630  Biso   1.000  C
  C74      1.0000 0.72410  0.87090  0.91630  Biso   1.000  C
  C75      1.0000 0.77590  0.37090  0.58370  Biso   1.000  C
  C76      1.0000 0.27590  0.87090  0.58370  Biso   1.000  C
  C77      1.0000 0.77590  0.62910  0.08370  Biso   1.000  C
  C78      1.0000 0.27590  0.12910  0.08370  Biso   1.000  C
  C79      1.0000 0.22410  0.62910  0.41630  Biso   1.000  C
  C80      1.0000 0.72410  0.12910  0.41630  Biso   1.000  C
  H41      1.0000 0.21810  0.30030  0.87700  Biso   1.000  H
  H42      1.0000 0.71810  0.80030  0.87700  Biso   1.000  H
  H43      1.0000 0.78190  0.30030  0.62300  Biso   1.000  H
  H44      1.0000 0.28190  0.80030  0.62300  Biso   1.000  H
  H45      1.0000 0.78190  0.69970  0.12300  Biso   1.000  H
  H46      1.0000 0.28190  0.19970  0.12300  Biso   1.000  H
  H47      1.0000 0.21810  0.69970  0.37700  Biso   1.000  H
  H48      1.0000 0.71810  0.19970  0.37700  Biso   1.000  H
  C81      1.0000 0.28640  0.54860  0.98920  Biso   1.000  C
  C82      1.0000 0.78640  0.04860  0.98920  Biso   1.000  C
  C83      1.0000 0.71360  0.54860  0.51080  Biso   1.000  C
  C84      1.0000 0.21360  0.04860  0.51080  Biso   1.000  C
  C85      1.0000 0.71360  0.45140  0.01080  Biso   1.000  C
  C86      1.0000 0.21360  0.95140  0.01080  Biso   1.000  C
  C87      1.0000 0.28640  0.45140  0.48920  Biso   1.000  C
  C88      1.0000 0.78640  0.95140  0.48920  Biso   1.000  C
  H49      1.0000 0.32490  0.60330  0.00230  Biso   1.000  H
  H50      1.0000 0.82490  0.10330  0.00230  Biso   1.000  H
  H51      1.0000 0.67510  0.60330  0.49770  Biso   1.000  H
  H52      1.0000 0.17510  0.10330  0.49770  Biso   1.000  H
  H53      1.0000 0.67510  0.39670  0.99770  Biso   1.000  H
  H54      1.0000 0.17510  0.89670  0.99770  Biso   1.000  H
  H55      1.0000 0.32490  0.39670  0.50230  Biso   1.000  H
  H56      1.0000 0.82490  0.89670  0.50230  Biso   1.000  H
  C89      1.0000 0.24050  0.56990  0.03220  Biso   1.000  C
  C90      1.0000 0.74050  0.06990  0.03220  Biso   1.000  C
  C91      1.0000 0.75950  0.56990  0.46780  Biso   1.000  C
  C92      1.0000 0.25950  0.06990  0.46780  Biso   1.000  C
  C93      1.0000 0.75950  0.43010  0.96780  Biso   1.000  C
  C94      1.0000 0.25950  0.93010  0.96780  Biso   1.000  C
  C95      1.0000 0.24050  0.43010  0.53220  Biso   1.000  C
  C96      1.0000 0.74050  0.93010  0.53220  Biso   1.000  C
  H57      1.0000 0.24820  0.63850  0.07270  Biso   1.000  H
  H58      1.0000 0.74820  0.13850  0.07270  Biso   1.000  H
  H59      1.0000 0.75180  0.63850  0.42730  Biso   1.000  H
  H60      1.0000 0.25180  0.13850  0.42730  Biso   1.000  H
  H61      1.0000 0.75180  0.36150  0.92730  Biso   1.000  H
  H62      1.0000 0.25180  0.86150  0.92730  Biso   1.000  H
  H63      1.0000 0.24820  0.36150  0.57270  Biso   1.000  H
  H64      1.0000 0.74820  0.86150  0.57270  Biso   1.000  H
  C97      1.0000 0.03588  0.01630  0.02343  Biso   1.000  C
  C98      1.0000 0.53588  0.51630  0.02343  Biso   1.000  C
  C99      1.0000 0.96412  0.01630  0.47657  Biso   1.000  C
  C100     1.0000 0.46412  0.51630  0.47657  Biso   1.000  C
  C101     1.0000 0.96412  0.98370  0.97657  Biso   1.000  C
  C102     1.0000 0.46412  0.48370  0.97657  Biso   1.000  C
  C103     1.0000 0.03588  0.98370  0.52343  Biso   1.000  C
  C104     1.0000 0.53588  0.48370  0.52343  Biso   1.000  C
  C105     1.0000 0.03745  0.74430  0.26811  Biso   1.000  C
  C106     1.0000 0.53745  0.24430  0.26811  Biso   1.000  C
  C107     1.0000 0.96255  0.74430  0.23189  Biso   1.000  C
  C108     1.0000 0.46255  0.24430  0.23189  Biso   1.000  C
  C109     1.0000 0.96255  0.25570  0.73189  Biso   1.000  C
  C110     1.0000 0.46255  0.75570  0.73189  Biso   1.000  C
  C111     1.0000 0.03745  0.25570  0.76811  Biso   1.000  C
  C112     1.0000 0.53745  0.75570  0.76811  Biso   1.000  C
  N1       1.0000 0.86617  0.15470  0.28080  Biso   1.000  N
  N2       1.0000 0.36617  0.65470  0.28080  Biso   1.000  N
  N3       1.0000 0.13383  0.15470  0.21920  Biso   1.000  N
  N4       1.0000 0.63383  0.65470  0.21920  Biso   1.000  N
  N5       1.0000 0.13383  0.84530  0.71920  Biso   1.000  N
  N6       1.0000 0.63383  0.34530  0.71920  Biso   1.000  N
  N7       1.0000 0.86617  0.84530  0.78080  Biso   1.000  N
  N8       1.0000 0.36617  0.34530  0.78080  Biso   1.000  N
  N9       1.0000 0.27729  0.45340  0.93020  Biso   1.000  N
  N10      1.0000 0.77729  0.95340  0.93020  Biso   1.000  N
  N11      1.0000 0.72271  0.45340  0.56980  Biso   1.000  N
  N12      1.0000 0.22271  0.95340  0.56980  Biso   1.000  N
  N13      1.0000 0.72271  0.54660  0.06980  Biso   1.000  N
  N14      1.0000 0.22271  0.04660  0.06980  Biso   1.000  N
  N15      1.0000 0.27729  0.54660  0.43020  Biso   1.000  N
  N16      1.0000 0.77729  0.04660  0.43020  Biso   1.000  N
  O1       1.0000 0.98175  0.47180  0.13507  Biso   1.000  O
  O2       1.0000 0.48175  0.97180  0.13507  Biso   1.000  O
  O3       1.0000 0.01825  0.47180  0.36493  Biso   1.000  O
  O4       1.0000 0.51825  0.97180  0.36493  Biso   1.000  O
  O5       1.0000 0.01825  0.52820  0.86493  Biso   1.000  O
  O6       1.0000 0.51825  0.02820  0.86493  Biso   1.000  O
  O7       1.0000 0.98175  0.52820  0.63507  Biso   1.000  O
  O8       1.0000 0.48175  0.02820  0.63507  Biso   1.000  O
  O9       1.0000 0.96079  0.27720  0.05639  Biso   1.000  O
  O10      1.0000 0.46079  0.77720  0.05639  Biso   1.000  O
  O11      1.0000 0.03921  0.27720  0.44361  Biso   1.000  O
  O12      1.0000 0.53921  0.77720  0.44361  Biso   1.000  O
  O13      1.0000 0.03921  0.72280  0.94361  Biso   1.000  O
  O14      1.0000 0.53921  0.22280  0.94361  Biso   1.000  O
  O15      1.0000 0.96079  0.72280  0.55639  Biso   1.000  O
  O16      1.0000 0.46079  0.22280  0.55639  Biso   1.000  O
  O17      1.0000 0.13566  0.62310  0.09922  Biso   1.000  O
  O18      1.0000 0.63566  0.12310  0.09922  Biso   1.000  O
  O19      1.0000 0.86434  0.62310  0.40078  Biso   1.000  O
  O20      1.0000 0.36434  0.12310  0.40078  Biso   1.000  O
  O21      1.0000 0.86434  0.37690  0.90078  Biso   1.000  O
  O22      1.0000 0.36434  0.87690  0.90078  Biso   1.000  O
  O23      1.0000 0.13566  0.37690  0.59922  Biso   1.000  O
  O24      1.0000 0.63566  0.87690  0.59922  Biso   1.000  O
  O25      1.0000 0.07548  0.45100  0.02771  Biso   1.000  O
  O26      1.0000 0.57548  0.95100  0.02771  Biso   1.000  O
  O27      1.0000 0.92452  0.45100  0.47229  Biso   1.000  O
  O28      1.0000 0.42452  0.95100  0.47229  Biso   1.000  O
  O29      1.0000 0.92452  0.54900  0.97229  Biso   1.000  O
  O30      1.0000 0.42452  0.04900  0.97229  Biso   1.000  O
  O31      1.0000 0.07548  0.54900  0.52771  Biso   1.000  O
  O32      1.0000 0.57548  0.04900  0.52771  Biso   1.000  O
  O33      1.0000 0.06463  0.92850  0.07681  Biso   1.000  O
  O34      1.0000 0.56463  0.42850  0.07681  Biso   1.000  O
  O35      1.0000 0.93537  0.92850  0.42319  Biso   1.000  O
  O36      1.0000 0.43537  0.42850  0.42319  Biso   1.000  O
  O37      1.0000 0.93537  0.07150  0.92319  Biso   1.000  O
  O38      1.0000 0.43537  0.57150  0.92319  Biso   1.000  O
  O39      1.0000 0.06463  0.07150  0.57681  Biso   1.000  O
  O40      1.0000 0.56463  0.57150  0.57681  Biso   1.000  O
  O41      1.0000 0.06134  0.12760  0.00439  Biso   1.000  O
  O42      1.0000 0.56134  0.62760  0.00439  Biso   1.000  O
  O43      1.0000 0.93866  0.12760  0.49561  Biso   1.000  O
  O44      1.0000 0.43866  0.62760  0.49561  Biso   1.000  O
  O45      1.0000 0.93866  0.87240  0.99561  Biso   1.000  O
  O46      1.0000 0.43866  0.37240  0.99561  Biso   1.000  O
  O47      1.0000 0.06134  0.87240  0.50439  Biso   1.000  O
  O48      1.0000 0.56134  0.37240  0.50439  Biso   1.000  O
  O49      1.0000 0.07160  0.72630  0.21970  Biso   1.000  O
  O50      1.0000 0.57160  0.22630  0.21970  Biso   1.000  O
  O51      1.0000 0.92840  0.72630  0.28030  Biso   1.000  O
  O52      1.0000 0.42840  0.22630  0.28030  Biso   1.000  O
  O53      1.0000 0.92840  0.27370  0.78030  Biso   1.000  O
  O54      1.0000 0.42840  0.77370  0.78030  Biso   1.000  O
  O55      1.0000 0.07160  0.27370  0.71970  Biso   1.000  O
  O56      1.0000 0.57160  0.77370  0.71970  Biso   1.000  O
  O57      1.0000 0.05858  0.76500  0.34206  Biso   1.000  O
  O58      1.0000 0.55858  0.26500  0.34206  Biso   1.000  O
  O59      1.0000 0.94142  0.76500  0.15794  Biso   1.000  O
  O60      1.0000 0.44142  0.26500  0.15794  Biso   1.000  O
  O61      1.0000 0.94142  0.23500  0.65794  Biso   1.000  O
  O62      1.0000 0.44142  0.73500  0.65794  Biso   1.000  O
  O63      1.0000 0.05858  0.23500  0.84206  Biso   1.000  O
  O64      1.0000 0.55858  0.73500  0.84206  Biso   1.000  O
  O65      1.0000 0.79490  0.80950  0.26750  Biso   1.000  O
  O66      1.0000 0.29490  0.30950  0.26750  Biso   1.000  O
  O67      1.0000 0.20510  0.80950  0.23250  Biso   1.000  O
  O68      1.0000 0.70510  0.30950  0.23250  Biso   1.000  O
  O69      1.0000 0.20510  0.19050  0.73250  Biso   1.000  O
  O70      1.0000 0.70510  0.69050  0.73250  Biso   1.000  O
  O71      1.0000 0.79490  0.19050  0.76750  Biso   1.000  O
  O72      1.0000 0.29490  0.69050  0.76750  Biso   1.000  O
