data_image0
_cell_length_a       21.0349
_cell_length_b       9.3939
_cell_length_c       17.5535
_cell_angle_alpha    90
_cell_angle_beta     106.785
_cell_angle_gamma    90

_symmetry_space_group_name_H-M    "P 1"
_symmetry_int_tables_number       1

loop_
  _symmetry_equiv_pos_as_xyz
  'x, y, z'

loop_
  _atom_site_label
  _atom_site_occupancy
  _atom_site_fract_x
  _atom_site_fract_y
  _atom_site_fract_z
  _atom_site_thermal_displace_type
  _atom_site_B_iso_or_equiv
  _atom_site_type_symbol
  La1      1.0000 0.01433  0.68291  0.07332  Biso   1.000  La
  La2      1.0000 0.51433  0.18291  0.07332  Biso   1.000  La
  La3      1.0000 0.98567  0.68291  0.42668  Biso   1.000  La
  La4      1.0000 0.48567  0.18291  0.42668  Biso   1.000  La
  La5      1.0000 0.98567  0.31709  0.92668  Biso   1.000  La
  La6      1.0000 0.48567  0.81709  0.92668  Biso   1.000  La
  La7      1.0000 0.01433  0.31709  0.57332  Biso   1.000  La
  La8      1.0000 0.51433  0.81709  0.57332  Biso   1.000  La
  Cu1      1.0000 0.33497  0.43009  0.86216  Biso   1.000  Cu
  Cu2      1.0000 0.83497  0.93009  0.86216  Biso   1.000  Cu
  Cu3      1.0000 0.66503  0.43009  0.63784  Biso   1.000  Cu
  Cu4      1.0000 0.16503  0.93009  0.63784  Biso   1.000  Cu
  Cu5      1.0000 0.66503  0.56991  0.13784  Biso   1.000  Cu
  Cu6      1.0000 0.16503  0.06991  0.13784  Biso   1.000  Cu
  Cu7      1.0000 0.33497  0.56991  0.36216  Biso   1.000  Cu
  Cu8      1.0000 0.83497  0.06991  0.36216  Biso   1.000  Cu
  C1       1.0000 0.95721  0.34660  0.11632  Biso   1.000  C
  C2       1.0000 0.45721  0.84660  0.11632  Biso   1.000  C
  C3       1.0000 0.04279  0.34660  0.38368  Biso   1.000  C
  C4       1.0000 0.54279  0.84660  0.38368  Biso   1.000  C
  C5       1.0000 0.04279  0.65340  0.88368  Biso   1.000  C
  C6       1.0000 0.54279  0.15340  0.88368  Biso   1.000  C
  C7       1.0000 0.95721  0.65340  0.61632  Biso   1.000  C
  C8       1.0000 0.45721  0.15340  0.61632  Biso   1.000  C
  C9       1.0000 0.92394  0.27850  0.17261  Biso   1.000  C
  C10      1.0000 0.42394  0.77850  0.17261  Biso   1.000  C
  C11      1.0000 0.07606  0.27850  0.32739  Biso   1.000  C
  C12      1.0000 0.57606  0.77850  0.32739  Biso   1.000  C
  C13      1.0000 0.07606  0.72150  0.82739  Biso   1.000  C
  C14      1.0000 0.57606  0.22150  0.82739  Biso   1.000  C
  C15      1.0000 0.92394  0.72150  0.67261  Biso   1.000  C
  C16      1.0000 0.42394  0.22150  0.67261  Biso   1.000  C
  C17      1.0000 0.89950  0.36070  0.22270  Biso   1.000  C
  C18      1.0000 0.39950  0.86070  0.22270  Biso   1.000  C
  C19      1.0000 0.10050  0.36070  0.27730  Biso   1.000  C
  C20      1.0000 0.60050  0.86070  0.27730  Biso   1.000  C
  C21      1.0000 0.10050  0.63930  0.77730  Biso   1.000  C
  C22      1.0000 0.60050  0.13930  0.77730  Biso   1.000  C
  C23      1.0000 0.89950  0.63930  0.72270  Biso   1.000  C
  C24      1.0000 0.39950  0.13930  0.72270  Biso   1.000  C
  H1       1.0000 0.90240  0.45950  0.22150  Biso   1.000  H
  H2       1.0000 0.40240  0.95950  0.22150  Biso   1.000  H
  H3       1.0000 0.09760  0.45950  0.27850  Biso   1.000  H
  H4       1.0000 0.59760  0.95950  0.27850  Biso   1.000  H
  H5       1.0000 0.09760  0.54050  0.77850  Biso   1.000  H
  H6       1.0000 0.59760  0.04050  0.77850  Biso   1.000  H
  H7       1.0000 0.90240  0.54050  0.72150  Biso   1.000  H
  H8       1.0000 0.40240  0.04050  0.72150  Biso   1.000  H
  C25      1.0000 0.87070  0.29500  0.27480  Biso   1.000  C
  C26      1.0000 0.37070  0.79500  0.27480  Biso   1.000  C
  C27      1.0000 0.12930  0.29500  0.22520  Biso   1.000  C
  C28      1.0000 0.62930  0.79500  0.22520  Biso   1.000  C
  C29      1.0000 0.12930  0.70500  0.72520  Biso   1.000  C
  C30      1.0000 0.62930  0.20500  0.72520  Biso   1.000  C
  C31      1.0000 0.87070  0.70500  0.77480  Biso   1.000  C
  C32      1.0000 0.37070  0.20500  0.77480  Biso   1.000  C
  H9       1.0000 0.85350  0.35160  0.30770  Biso   1.000  H
  H10      1.0000 0.35350  0.85160  0.30770  Biso   1.000  H
  H11      1.0000 0.14650  0.35160  0.19230  Biso   1.000  H
  H12      1.0000 0.64650  0.85160  0.19230  Biso   1.000  H
  H13      1.0000 0.14650  0.64840  0.69230  Biso   1.000  H
  H14      1.0000 0.64650  0.14840  0.69230  Biso   1.000  H
  H15      1.0000 0.85350  0.64840  0.80770  Biso   1.000  H
  H16      1.0000 0.35350  0.14840  0.80770  Biso   1.000  H
  C33      1.0000 0.88830  0.07550  0.23010  Biso   1.000  C
  C34      1.0000 0.38830  0.57550  0.23010  Biso   1.000  C
  C35      1.0000 0.11170  0.07550  0.26990  Biso   1.000  C
  C36      1.0000 0.61170  0.57550  0.26990  Biso   1.000  C
  C37      1.0000 0.11170  0.92450  0.76990  Biso   1.000  C
  C38      1.0000 0.61170  0.42450  0.76990  Biso   1.000  C
  C39      1.0000 0.88830  0.92450  0.73010  Biso   1.000  C
  C40      1.0000 0.38830  0.42450  0.73010  Biso   1.000  C
  H17      1.0000 0.88420  0.97710  0.23180  Biso   1.000  H
  H18      1.0000 0.38420  0.47710  0.23180  Biso   1.000  H
  H19      1.0000 0.11580  0.97710  0.26820  Biso   1.000  H
  H20      1.0000 0.61580  0.47710  0.26820  Biso   1.000  H
  H21      1.0000 0.11580  0.02290  0.76820  Biso   1.000  H
  H22      1.0000 0.61580  0.52290  0.76820  Biso   1.000  H
  H23      1.0000 0.88420  0.02290  0.73180  Biso   1.000  H
  H24      1.0000 0.38420  0.52290  0.73180  Biso   1.000  H
  C41      1.0000 0.91720  0.13330  0.17540  Biso   1.000  C
  C42      1.0000 0.41720  0.63330  0.17540  Biso   1.000  C
  C43      1.0000 0.08280  0.13330  0.32460  Biso   1.000  C
  C44      1.0000 0.58280  0.63330  0.32460  Biso   1.000  C
  C45      1.0000 0.08280  0.86670  0.82460  Biso   1.000  C
  C46      1.0000 0.58280  0.36670  0.82460  Biso   1.000  C
  C47      1.0000 0.91720  0.86670  0.67540  Biso   1.000  C
  C48      1.0000 0.41720  0.36670  0.67540  Biso   1.000  C
  H25      1.0000 0.93170  0.07470  0.14110  Biso   1.000  H
  H26      1.0000 0.43170  0.57470  0.14110  Biso   1.000  H
  H27      1.0000 0.06830  0.07470  0.35890  Biso   1.000  H
  H28      1.0000 0.56830  0.57470  0.35890  Biso   1.000  H
  H29      1.0000 0.06830  0.92530  0.85890  Biso   1.000  H
  H30      1.0000 0.56830  0.42530  0.85890  Biso   1.000  H
  H31      1.0000 0.93170  0.92530  0.64110  Biso   1.000  H
  H32      1.0000 0.43170  0.42530  0.64110  Biso   1.000  H
  C49      1.0000 0.13111  0.52120  0.05146  Biso   1.000  C
  C50      1.0000 0.63111  0.02120  0.05146  Biso   1.000  C
  C51      1.0000 0.86889  0.52120  0.44854  Biso   1.000  C
  C52      1.0000 0.36889  0.02120  0.44854  Biso   1.000  C
  C53      1.0000 0.86889  0.47880  0.94854  Biso   1.000  C
  C54      1.0000 0.36889  0.97880  0.94854  Biso   1.000  C
  C55      1.0000 0.13111  0.47880  0.55146  Biso   1.000  C
  C56      1.0000 0.63111  0.97880  0.55146  Biso   1.000  C
  C57      1.0000 0.18552  0.48920  0.01361  Biso   1.000  C
  C58      1.0000 0.68552  0.98920  0.01361  Biso   1.000  C
  C59      1.0000 0.81448  0.48920  0.48639  Biso   1.000  C
  C60      1.0000 0.31448  0.98920  0.48639  Biso   1.000  C
  C61      1.0000 0.81448  0.51080  0.98639  Biso   1.000  C
  C62      1.0000 0.31448  0.01080  0.98639  Biso   1.000  C
  C63      1.0000 0.18552  0.51080  0.51361  Biso   1.000  C
  C64      1.0000 0.68552  0.01080  0.51361  Biso   1.000  C
  C65      1.0000 0.17809  0.38320  0.95780  Biso   1.000  C
  C66      1.0000 0.67809  0.88320  0.95780  Biso   1.000  C
  C67      1.0000 0.82191  0.38320  0.54220  Biso   1.000  C
  C68      1.0000 0.32191  0.88320  0.54220  Biso   1.000  C
  C69      1.0000 0.82191  0.61680  0.04220  Biso   1.000  C
  C70      1.0000 0.32191  0.11680  0.04220  Biso   1.000  C
  C71      1.0000 0.17809  0.61680  0.45780  Biso   1.000  C
  C72      1.0000 0.67809  0.11680  0.45780  Biso   1.000  C
  H33      1.0000 0.14240  0.32060  0.94850  Biso   1.000  H
  H34      1.0000 0.64240  0.82060  0.94850  Biso   1.000  H
  H35      1.0000 0.85760  0.32060  0.55150  Biso   1.000  H
  H36      1.0000 0.35760  0.82060  0.55150  Biso   1.000  H
  H37      1.0000 0.85760  0.67940  0.05150  Biso   1.000  H
  H38      1.0000 0.35760  0.17940  0.05150  Biso   1.000  H
  H39      1.0000 0.14240  0.67940  0.44850  Biso   1.000  H
  H40      1.0000 0.64240  0.17940  0.44850  Biso   1.000  H
  C73      1.0000 0.22400  0.37030  0.91590  Biso   1.000  C
  C74      1.0000 0.72400  0.87030  0.91590  Biso   1.000  C
  C75      1.0000 0.77600  0.37030  0.58410  Biso   1.000  C
  C76      1.0000 0.27600  0.87030  0.58410  Biso   1.000  C
  C77      1.0000 0.77600  0.62970  0.08410  Biso   1.000  C
  C78      1.0000 0.27600  0.12970  0.08410  Biso   1.000  C
  C79      1.0000 0.22400  0.62970  0.41590  Biso   1.000  C
  C80      1.0000 0.72400  0.12970  0.41590  Biso   1.000  C
  H41      1.0000 0.21740  0.30010  0.87700  Biso   1.000  H
  H42      1.0000 0.71740  0.80010  0.87700  Biso   1.000  H
  H43      1.0000 0.78260  0.30010  0.62300  Biso   1.000  H
  H44      1.0000 0.28260  0.80010  0.62300  Biso   1.000  H
  H45      1.0000 0.78260  0.69990  0.12300  Biso   1.000  H
  H46      1.0000 0.28260  0.19990  0.12300  Biso   1.000  H
  H47      1.0000 0.21740  0.69990  0.37700  Biso   1.000  H
  H48      1.0000 0.71740  0.19990  0.37700  Biso   1.000  H
  C81      1.0000 0.28700  0.54910  0.98610  Biso   1.000  C
  C82      1.0000 0.78700  0.04910  0.98610  Biso   1.000  C
  C83      1.0000 0.71300  0.54910  0.51390  Biso   1.000  C
  C84      1.0000 0.21300  0.04910  0.51390  Biso   1.000  C
  C85      1.0000 0.71300  0.45090  0.01390  Biso   1.000  C
  C86      1.0000 0.21300  0.95090  0.01390  Biso   1.000  C
  C87      1.0000 0.28700  0.45090  0.48610  Biso   1.000  C
  C88      1.0000 0.78700  0.95090  0.48610  Biso   1.000  C
  H49      1.0000 0.32520  0.60450  0.99770  Biso   1.000  H
  H50      1.0000 0.82520  0.10450  0.99770  Biso   1.000  H
  H51      1.0000 0.67480  0.60450  0.50230  Biso   1.000  H
  H52      1.0000 0.17480  0.10450  0.50230  Biso   1.000  H
  H53      1.0000 0.67480  0.39550  0.00230  Biso   1.000  H
  H54      1.0000 0.17480  0.89550  0.00230  Biso   1.000  H
  H55      1.0000 0.32520  0.39550  0.49770  Biso   1.000  H
  H56      1.0000 0.82520  0.89550  0.49770  Biso   1.000  H
  C89      1.0000 0.24241  0.57000  0.02990  Biso   1.000  C
  C90      1.0000 0.74241  0.07000  0.02990  Biso   1.000  C
  C91      1.0000 0.75759  0.57000  0.47010  Biso   1.000  C
  C92      1.0000 0.25759  0.07000  0.47010  Biso   1.000  C
  C93      1.0000 0.75759  0.43000  0.97010  Biso   1.000  C
  C94      1.0000 0.25759  0.93000  0.97010  Biso   1.000  C
  C95      1.0000 0.24241  0.43000  0.52990  Biso   1.000  C
  C96      1.0000 0.74241  0.93000  0.52990  Biso   1.000  C
  H57      1.0000 0.25100  0.63810  0.07010  Biso   1.000  H
  H58      1.0000 0.75100  0.13810  0.07010  Biso   1.000  H
  H59      1.0000 0.74900  0.63810  0.42990  Biso   1.000  H
  H60      1.0000 0.24900  0.13810  0.42990  Biso   1.000  H
  H61      1.0000 0.74900  0.36190  0.92990  Biso   1.000  H
  H62      1.0000 0.24900  0.86190  0.92990  Biso   1.000  H
  H63      1.0000 0.25100  0.36190  0.57010  Biso   1.000  H
  H64      1.0000 0.75100  0.86190  0.57010  Biso   1.000  H
  C97      1.0000 0.03651  0.01680  0.02379  Biso   1.000  C
  C98      1.0000 0.53651  0.51680  0.02379  Biso   1.000  C
  C99      1.0000 0.96349  0.01680  0.47621  Biso   1.000  C
  C100     1.0000 0.46349  0.51680  0.47621  Biso   1.000  C
  C101     1.0000 0.96349  0.98320  0.97621  Biso   1.000  C
  C102     1.0000 0.46349  0.48320  0.97621  Biso   1.000  C
  C103     1.0000 0.03651  0.98320  0.52379  Biso   1.000  C
  C104     1.0000 0.53651  0.48320  0.52379  Biso   1.000  C
  C105     1.0000 0.03800  0.74400  0.26823  Biso   1.000  C
  C106     1.0000 0.53800  0.24400  0.26823  Biso   1.000  C
  C107     1.0000 0.96200  0.74400  0.23177  Biso   1.000  C
  C108     1.0000 0.46200  0.24400  0.23177  Biso   1.000  C
  C109     1.0000 0.96200  0.25600  0.73177  Biso   1.000  C
  C110     1.0000 0.46200  0.75600  0.73177  Biso   1.000  C
  C111     1.0000 0.03800  0.25600  0.76823  Biso   1.000  C
  C112     1.0000 0.53800  0.75600  0.76823  Biso   1.000  C
  N1       1.0000 0.86627  0.15400  0.28018  Biso   1.000  N
  N2       1.0000 0.36627  0.65400  0.28018  Biso   1.000  N
  N3       1.0000 0.13373  0.15400  0.21982  Biso   1.000  N
  N4       1.0000 0.63373  0.65400  0.21982  Biso   1.000  N
  N5       1.0000 0.13373  0.84600  0.71982  Biso   1.000  N
  N6       1.0000 0.63373  0.34600  0.71982  Biso   1.000  N
  N7       1.0000 0.86627  0.84600  0.78018  Biso   1.000  N
  N8       1.0000 0.36627  0.34600  0.78018  Biso   1.000  N
  N9       1.0000 0.27738  0.45330  0.92815  Biso   1.000  N
  N10      1.0000 0.77738  0.95330  0.92815  Biso   1.000  N
  N11      1.0000 0.72262  0.45330  0.57185  Biso   1.000  N
  N12      1.0000 0.22262  0.95330  0.57185  Biso   1.000  N
  N13      1.0000 0.72262  0.54670  0.07185  Biso   1.000  N
  N14      1.0000 0.22262  0.04670  0.07185  Biso   1.000  N
  N15      1.0000 0.27738  0.54670  0.42815  Biso   1.000  N
  N16      1.0000 0.77738  0.04670  0.42815  Biso   1.000  N
  O1       1.0000 0.98015  0.46940  0.13402  Biso   1.000  O
  O2       1.0000 0.48015  0.96940  0.13402  Biso   1.000  O
  O3       1.0000 0.01985  0.46940  0.36598  Biso   1.000  O
  O4       1.0000 0.51985  0.96940  0.36598  Biso   1.000  O
  O5       1.0000 0.01985  0.53060  0.86598  Biso   1.000  O
  O6       1.0000 0.51985  0.03060  0.86598  Biso   1.000  O
  O7       1.0000 0.98015  0.53060  0.63402  Biso   1.000  O
  O8       1.0000 0.48015  0.03060  0.63402  Biso   1.000  O
  O9       1.0000 0.95868  0.27640  0.05634  Biso   1.000  O
  O10      1.0000 0.45868  0.77640  0.05634  Biso   1.000  O
  O11      1.0000 0.04132  0.27640  0.44366  Biso   1.000  O
  O12      1.0000 0.54132  0.77640  0.44366  Biso   1.000  O
  O13      1.0000 0.04132  0.72360  0.94366  Biso   1.000  O
  O14      1.0000 0.54132  0.22360  0.94366  Biso   1.000  O
  O15      1.0000 0.95868  0.72360  0.55634  Biso   1.000  O
  O16      1.0000 0.45868  0.22360  0.55634  Biso   1.000  O
  O17      1.0000 0.13921  0.62140  0.10001  Biso   1.000  O
  O18      1.0000 0.63921  0.12140  0.10001  Biso   1.000  O
  O19      1.0000 0.86079  0.62140  0.39999  Biso   1.000  O
  O20      1.0000 0.36079  0.12140  0.39999  Biso   1.000  O
  O21      1.0000 0.86079  0.37860  0.89999  Biso   1.000  O
  O22      1.0000 0.36079  0.87860  0.89999  Biso   1.000  O
  O23      1.0000 0.13921  0.37860  0.60001  Biso   1.000  O
  O24      1.0000 0.63921  0.87860  0.60001  Biso   1.000  O
  O25      1.0000 0.07726  0.45150  0.02908  Biso   1.000  O
  O26      1.0000 0.57726  0.95150  0.02908  Biso   1.000  O
  O27      1.0000 0.92274  0.45150  0.47092  Biso   1.000  O
  O28      1.0000 0.42274  0.95150  0.47092  Biso   1.000  O
  O29      1.0000 0.92274  0.54850  0.97092  Biso   1.000  O
  O30      1.0000 0.42274  0.04850  0.97092  Biso   1.000  O
  O31      1.0000 0.07726  0.54850  0.52908  Biso   1.000  O
  O32      1.0000 0.57726  0.04850  0.52908  Biso   1.000  O
  O33      1.0000 0.06520  0.93050  0.07701  Biso   1.000  O
  O34      1.0000 0.56520  0.43050  0.07701  Biso   1.000  O
  O35      1.0000 0.93480  0.93050  0.42299  Biso   1.000  O
  O36      1.0000 0.43480  0.43050  0.42299  Biso   1.000  O
  O37      1.0000 0.93480  0.06950  0.92299  Biso   1.000  O
  O38      1.0000 0.43480  0.56950  0.92299  Biso   1.000  O
  O39      1.0000 0.06520  0.06950  0.57701  Biso   1.000  O
  O40      1.0000 0.56520  0.56950  0.57701  Biso   1.000  O
  O41      1.0000 0.06154  0.12710  0.00488  Biso   1.000  O
  O42      1.0000 0.56154  0.62710  0.00488  Biso   1.000  O
  O43      1.0000 0.93846  0.12710  0.49512  Biso   1.000  O
  O44      1.0000 0.43846  0.62710  0.49512  Biso   1.000  O
  O45      1.0000 0.93846  0.87290  0.99512  Biso   1.000  O
  O46      1.0000 0.43846  0.37290  0.99512  Biso   1.000  O
  O47      1.0000 0.06154  0.87290  0.50488  Biso   1.000  O
  O48      1.0000 0.56154  0.37290  0.50488  Biso   1.000  O
  O49      1.0000 0.07213  0.72590  0.22086  Biso   1.000  O
  O50      1.0000 0.57213  0.22590  0.22086  Biso   1.000  O
  O51      1.0000 0.92787  0.72590  0.27914  Biso   1.000  O
  O52      1.0000 0.42787  0.22590  0.27914  Biso   1.000  O
  O53      1.0000 0.92787  0.27410  0.77914  Biso   1.000  O
  O54      1.0000 0.42787  0.77410  0.77914  Biso   1.000  O
  O55      1.0000 0.07213  0.27410  0.72086  Biso   1.000  O
  O56      1.0000 0.57213  0.77410  0.72086  Biso   1.000  O
  O57      1.0000 0.05913  0.76520  0.34153  Biso   1.000  O
  O58      1.0000 0.55913  0.26520  0.34153  Biso   1.000  O
  O59      1.0000 0.94087  0.76520  0.15847  Biso   1.000  O
  O60      1.0000 0.44087  0.26520  0.15847  Biso   1.000  O
  O61      1.0000 0.94087  0.23480  0.65847  Biso   1.000  O
  O62      1.0000 0.44087  0.73480  0.65847  Biso   1.000  O
  O63      1.0000 0.05913  0.23480  0.84153  Biso   1.000  O
  O64      1.0000 0.55913  0.73480  0.84153  Biso   1.000  O
  O65      1.0000 0.79460  0.81090  0.26720  Biso   1.000  O
  O66      1.0000 0.29460  0.31090  0.26720  Biso   1.000  O
  O67      1.0000 0.20540  0.81090  0.23280  Biso   1.000  O
  O68      1.0000 0.70540  0.31090  0.23280  Biso   1.000  O
  O69      1.0000 0.20540  0.18910  0.73280  Biso   1.000  O
  O70      1.0000 0.70540  0.68910  0.73280  Biso   1.000  O
  O71      1.0000 0.79460  0.18910  0.76720  Biso   1.000  O
  O72      1.0000 0.29460  0.68910  0.76720  Biso   1.000  O
