data_image0
_cell_length_a       7.107
_cell_length_b       7.162
_cell_length_c       8.05
_cell_angle_alpha    98.83
_cell_angle_beta     106.41
_cell_angle_gamma    100.52

_symmetry_space_group_name_H-M    "P 1"
_symmetry_int_tables_number       1

loop_
  _symmetry_equiv_pos_as_xyz
  'x, y, z'

loop_
  _atom_site_label
  _atom_site_occupancy
  _atom_site_fract_x
  _atom_site_fract_y
  _atom_site_fract_z
  _atom_site_thermal_displace_type
  _atom_site_B_iso_or_equiv
  _atom_site_type_symbol
  Br1      1.0000 0.75119  0.29903  0.95376  Biso   1.000  Br
  Br2      1.0000 0.24881  0.70097  0.04624  Biso   1.000  Br
  Cu1      1.0000 0.86682  0.65726  0.00916  Biso   1.000  Cu
  Cu2      1.0000 0.13318  0.34274  0.99084  Biso   1.000  Cu
  N1       1.0000 0.76400  0.70400  0.76500  Biso   1.000  N
  N2       1.0000 0.23600  0.29600  0.23500  Biso   1.000  N
  N3       1.0000 0.82350  0.62320  0.63650  Biso   1.000  N
  N4       1.0000 0.17650  0.37680  0.36350  Biso   1.000  N
  N5       1.0000 0.71580  0.66320  0.48810  Biso   1.000  N
  N6       1.0000 0.28420  0.33680  0.51190  Biso   1.000  N
  C1       1.0000 0.88790  0.74730  0.27430  Biso   1.000  C
  C2       1.0000 0.11210  0.25270  0.72570  Biso   1.000  C
  H1       1.0000 0.02820  0.75190  0.31320  Biso   1.000  H
  H2       1.0000 0.97180  0.24810  0.68680  Biso   1.000  H
  C3       1.0000 0.61920  0.79650  0.69750  Biso   1.000  C
  C4       1.0000 0.38080  0.20350  0.30250  Biso   1.000  C
  H3       1.0000 0.55250  0.86710  0.76260  Biso   1.000  H
  H4       1.0000 0.44750  0.13290  0.23740  Biso   1.000  H
  C5       1.0000 0.82260  0.87860  0.18150  Biso   1.000  C
  C6       1.0000 0.17740  0.12140  0.81850  Biso   1.000  C
  H5       1.0000 0.68270  0.87590  0.14160  Biso   1.000  H
  H6       1.0000 0.31730  0.12410  0.85840  Biso   1.000  H
  H7       1.0000 0.91680  0.97330  0.15620  Biso   1.000  H
  H8       1.0000 0.08320  0.02670  0.84380  Biso   1.000  H
  C7       1.0000 0.74470  0.59420  0.31770  Biso   1.000  C
  C8       1.0000 0.25530  0.40580  0.68230  Biso   1.000  C
  H9       1.0000 0.61260  0.55790  0.22250  Biso   1.000  H
  H10      1.0000 0.38740  0.44210  0.77750  Biso   1.000  H
  H11      1.0000 0.79880  0.47640  0.32260  Biso   1.000  H
  H12      1.0000 0.20120  0.52360  0.67740  Biso   1.000  H
  C9       1.0000 0.58640  0.77040  0.51880  Biso   1.000  C
  C10      1.0000 0.41360  0.22960  0.48120  Biso   1.000  C
  H13      1.0000 0.49340  0.81710  0.43500  Biso   1.000  H
  H14      1.0000 0.50660  0.18290  0.56500  Biso   1.000  H
