data_image0
_cell_length_a       8.215
_cell_length_b       10.212
_cell_length_c       11.52
_cell_angle_alpha    90
_cell_angle_beta     93.3
_cell_angle_gamma    90

_symmetry_space_group_name_H-M    "P 1"
_symmetry_int_tables_number       1

loop_
  _symmetry_equiv_pos_as_xyz
  'x, y, z'

loop_
  _atom_site_label
  _atom_site_occupancy
  _atom_site_fract_x
  _atom_site_fract_y
  _atom_site_fract_z
  _atom_site_thermal_displace_type
  _atom_site_B_iso_or_equiv
  _atom_site_type_symbol
  Cu1      1.0000 0.36271  0.41929  0.16417  Biso   1.000  Cu
  Cu2      1.0000 0.13729  0.91929  0.33583  Biso   1.000  Cu
  Cu3      1.0000 0.63729  0.58071  0.83583  Biso   1.000  Cu
  Cu4      1.0000 0.86271  0.08071  0.66417  Biso   1.000  Cu
  F1       1.0000 0.91290  0.32130  0.25931  Biso   1.000  F
  F2       1.0000 0.58710  0.82130  0.24069  Biso   1.000  F
  F3       1.0000 0.08710  0.67870  0.74069  Biso   1.000  F
  F4       1.0000 0.41290  0.17870  0.75931  Biso   1.000  F
  F5       1.0000 0.94459  0.46988  0.39006  Biso   1.000  F
  F6       1.0000 0.55541  0.96988  0.10994  Biso   1.000  F
  F7       1.0000 0.05541  0.53012  0.60994  Biso   1.000  F
  F8       1.0000 0.44459  0.03012  0.89006  Biso   1.000  F
  F9       1.0000 0.93110  0.52380  0.21025  Biso   1.000  F
  F10      1.0000 0.56890  0.02380  0.28975  Biso   1.000  F
  F11      1.0000 0.06890  0.47620  0.78975  Biso   1.000  F
  F12      1.0000 0.43110  0.97620  0.71025  Biso   1.000  F
  O1       1.0000 0.61390  0.42966  0.18825  Biso   1.000  O
  O2       1.0000 0.88610  0.92966  0.31175  Biso   1.000  O
  O3       1.0000 0.38610  0.57034  0.81175  Biso   1.000  O
  O4       1.0000 0.11390  0.07034  0.68825  Biso   1.000  O
  O5       1.0000 0.62080  0.48899  0.37740  Biso   1.000  O
  O6       1.0000 0.87920  0.98899  0.12260  Biso   1.000  O
  O7       1.0000 0.37920  0.51101  0.62260  Biso   1.000  O
  O8       1.0000 0.12080  0.01101  0.87740  Biso   1.000  O
  N1       1.0000 0.30070  0.30388  0.30191  Biso   1.000  N
  N2       1.0000 0.19930  0.80388  0.19809  Biso   1.000  N
  N3       1.0000 0.69930  0.69612  0.69809  Biso   1.000  N
  N4       1.0000 0.80070  0.19612  0.80191  Biso   1.000  N
  N5       1.0000 0.24570  0.18813  0.26498  Biso   1.000  N
  N6       1.0000 0.25430  0.68813  0.23502  Biso   1.000  N
  N7       1.0000 0.75430  0.81187  0.73502  Biso   1.000  N
  N8       1.0000 0.74570  0.31187  0.76498  Biso   1.000  N
  N9       1.0000 0.21330  0.10579  0.35013  Biso   1.000  N
  N10      1.0000 0.28670  0.60579  0.14987  Biso   1.000  N
  N11      1.0000 0.78670  0.89421  0.64987  Biso   1.000  N
  N12      1.0000 0.71330  0.39421  0.85013  Biso   1.000  N
  C1       1.0000 0.24970  0.17320  0.44810  Biso   1.000  C
  C2       1.0000 0.25030  0.67320  0.05190  Biso   1.000  C
  C3       1.0000 0.75030  0.82680  0.55190  Biso   1.000  C
  C4       1.0000 0.74970  0.32680  0.94810  Biso   1.000  C
  H1       1.0000 0.23957  0.14174  0.52496  Biso   1.000  H
  H2       1.0000 0.26043  0.64174  0.97504  Biso   1.000  H
  H3       1.0000 0.76043  0.85826  0.47504  Biso   1.000  H
  H4       1.0000 0.73957  0.35826  0.02496  Biso   1.000  H
  C5       1.0000 0.30430  0.29650  0.41860  Biso   1.000  C
  C6       1.0000 0.19570  0.79650  0.08140  Biso   1.000  C
  C7       1.0000 0.69570  0.70350  0.58140  Biso   1.000  C
  C8       1.0000 0.80430  0.20350  0.91860  Biso   1.000  C
  H5       1.0000 0.33838  0.36388  0.47142  Biso   1.000  H
  H6       1.0000 0.16162  0.86388  0.02858  Biso   1.000  H
  H7       1.0000 0.66162  0.63612  0.52858  Biso   1.000  H
  H8       1.0000 0.83838  0.13612  0.97142  Biso   1.000  H
  C9       1.0000 0.21920  0.16000  0.13994  Biso   1.000  C
  C10      1.0000 0.28080  0.66000  0.36006  Biso   1.000  C
  C11      1.0000 0.78080  0.84000  0.86006  Biso   1.000  C
  C12      1.0000 0.71920  0.34000  0.63994  Biso   1.000  C
  H9       1.0000 0.10480  0.17976  0.11421  Biso   1.000  H
  H10      1.0000 0.39520  0.67976  0.38579  Biso   1.000  H
  H11      1.0000 0.89520  0.82024  0.88579  Biso   1.000  H
  H12      1.0000 0.60480  0.32024  0.61421  Biso   1.000  H
  H13      1.0000 0.23950  0.06606  0.12539  Biso   1.000  H
  H14      1.0000 0.26050  0.56606  0.37461  Biso   1.000  H
  H15      1.0000 0.76050  0.93394  0.87461  Biso   1.000  H
  H16      1.0000 0.73950  0.43394  0.62539  Biso   1.000  H
  C13      1.0000 0.33370  0.24290  0.07180  Biso   1.000  C
  C14      1.0000 0.16630  0.74290  0.42820  Biso   1.000  C
  C15      1.0000 0.66630  0.75710  0.92820  Biso   1.000  C
  C16      1.0000 0.83370  0.25710  0.57180  Biso   1.000  C
  H17      1.0000 0.44755  0.22648  0.08048  Biso   1.000  H
  H18      1.0000 0.05245  0.72648  0.41952  Biso   1.000  H
  H19      1.0000 0.55245  0.77352  0.91952  Biso   1.000  H
  H20      1.0000 0.94755  0.27352  0.58048  Biso   1.000  H
  C17      1.0000 0.27910  0.33920  0.99900  Biso   1.000  C
  C18      1.0000 0.22090  0.83920  0.50100  Biso   1.000  C
  C19      1.0000 0.72090  0.66080  0.00100  Biso   1.000  C
  C20      1.0000 0.77910  0.16080  0.49900  Biso   1.000  C
  H21      1.0000 0.16558  0.35690  0.98930  Biso   1.000  H
  H22      1.0000 0.33442  0.85690  0.51070  Biso   1.000  H
  H23      1.0000 0.83442  0.64310  0.01070  Biso   1.000  H
  H24      1.0000 0.66558  0.14310  0.48930  Biso   1.000  H
  H25      1.0000 0.35420  0.38919  0.95768  Biso   1.000  H
  H26      1.0000 0.14580  0.88919  0.54232  Biso   1.000  H
  H27      1.0000 0.64580  0.61081  0.04232  Biso   1.000  H
  H28      1.0000 0.85420  0.11081  0.45768  Biso   1.000  H
  C21      1.0000 0.68100  0.45650  0.28720  Biso   1.000  C
  C22      1.0000 0.81900  0.95650  0.21280  Biso   1.000  C
  C23      1.0000 0.31900  0.54350  0.71280  Biso   1.000  C
  C24      1.0000 0.18100  0.04350  0.78720  Biso   1.000  C
  C25      1.0000 0.86790  0.44440  0.28760  Biso   1.000  C
  C26      1.0000 0.63210  0.94440  0.21240  Biso   1.000  C
  C27      1.0000 0.13210  0.55560  0.71240  Biso   1.000  C
  C28      1.0000 0.36790  0.05560  0.78760  Biso   1.000  C
  H29      1.0000 0.11421  0.11357  0.12575  Biso   1.000  H
  H30      1.0000 0.38579  0.61357  0.37425  Biso   1.000  H
  H31      1.0000 0.88579  0.88643  0.87425  Biso   1.000  H
  H32      1.0000 0.61421  0.38643  0.62575  Biso   1.000  H
  H33      1.0000 0.30726  0.10218  0.11478  Biso   1.000  H
  H34      1.0000 0.19274  0.60218  0.38522  Biso   1.000  H
  H35      1.0000 0.69274  0.89782  0.88522  Biso   1.000  H
  H36      1.0000 0.80726  0.39782  0.61478  Biso   1.000  H
  C29      1.0000 0.21710  0.28550  0.06940  Biso   1.000  C
  C30      1.0000 0.28290  0.78550  0.43060  Biso   1.000  C
  C31      1.0000 0.78290  0.71450  0.93060  Biso   1.000  C
  C32      1.0000 0.71710  0.21450  0.56940  Biso   1.000  C
  H37      1.0000 0.12847  0.34499  0.07183  Biso   1.000  H
  H38      1.0000 0.37153  0.84499  0.42817  Biso   1.000  H
  H39      1.0000 0.87153  0.65501  0.92817  Biso   1.000  H
  H40      1.0000 0.62847  0.15501  0.57183  Biso   1.000  H
  C33      1.0000 0.33960  0.31020  0.00510  Biso   1.000  C
  C34      1.0000 0.16040  0.81020  0.49490  Biso   1.000  C
  C35      1.0000 0.66040  0.68980  0.99490  Biso   1.000  C
  C36      1.0000 0.83960  0.18980  0.50510  Biso   1.000  C
  H41      1.0000 0.42764  0.25009  0.00324  Biso   1.000  H
  H42      1.0000 0.07236  0.75009  0.49676  Biso   1.000  H
  H43      1.0000 0.57236  0.74991  0.99676  Biso   1.000  H
  H44      1.0000 0.92764  0.24991  0.50324  Biso   1.000  H
  H45      1.0000 0.34048  0.38826  0.96029  Biso   1.000  H
  H46      1.0000 0.15952  0.88826  0.53971  Biso   1.000  H
  H47      1.0000 0.65952  0.61174  0.03971  Biso   1.000  H
  H48      1.0000 0.84048  0.11174  0.46029  Biso   1.000  H
