data_image0
_cell_length_a       7.977
_cell_length_b       31.665
_cell_length_c       7.959
_cell_angle_alpha    90
_cell_angle_beta     101.44
_cell_angle_gamma    90

_symmetry_space_group_name_H-M    "P 1"
_symmetry_int_tables_number       1

loop_
  _symmetry_equiv_pos_as_xyz
  'x, y, z'

loop_
  _atom_site_label
  _atom_site_occupancy
  _atom_site_fract_x
  _atom_site_fract_y
  _atom_site_fract_z
  _atom_site_thermal_displace_type
  _atom_site_B_iso_or_equiv
  _atom_site_type_symbol
  Cu1      1.0000 0.44349  0.39158  0.77387  Biso   1.000  Cu
  Cu2      1.0000 0.55651  0.89158  0.72613  Biso   1.000  Cu
  Cu3      1.0000 0.55651  0.60842  0.22613  Biso   1.000  Cu
  Cu4      1.0000 0.44349  0.10842  0.27387  Biso   1.000  Cu
  S1       1.0000 0.41750  0.35846  0.35778  Biso   1.000  S
  S2       1.0000 0.58250  0.85846  0.14222  Biso   1.000  S
  S3       1.0000 0.58250  0.64154  0.64222  Biso   1.000  S
  S4       1.0000 0.41750  0.14154  0.85778  Biso   1.000  S
  O1       1.0000 0.26384  0.33481  0.36690  Biso   1.000  O
  O2       1.0000 0.73616  0.83481  0.13310  Biso   1.000  O
  O3       1.0000 0.73616  0.66519  0.63310  Biso   1.000  O
  O4       1.0000 0.26384  0.16519  0.86690  Biso   1.000  O
  O5       1.0000 0.46755  0.38887  0.49751  Biso   1.000  O
  O6       1.0000 0.53245  0.88887  0.00249  Biso   1.000  O
  O7       1.0000 0.53245  0.61113  0.50249  Biso   1.000  O
  O8       1.0000 0.46755  0.11113  0.99751  Biso   1.000  O
  O9       1.0000 0.41220  0.37873  0.19180  Biso   1.000  O
  O10      1.0000 0.58780  0.87873  0.30820  Biso   1.000  O
  O11      1.0000 0.58780  0.62127  0.80820  Biso   1.000  O
  O12      1.0000 0.41220  0.12127  0.69180  Biso   1.000  O
  N1       1.0000 0.81139  0.39661  0.81380  Biso   1.000  N
  N2       1.0000 0.18861  0.89661  0.68620  Biso   1.000  N
  N3       1.0000 0.18861  0.60339  0.18620  Biso   1.000  N
  N4       1.0000 0.81139  0.10339  0.31380  Biso   1.000  N
  N5       1.0000 0.95727  0.38420  0.91520  Biso   1.000  N
  N6       1.0000 0.04273  0.88420  0.58480  Biso   1.000  N
  N7       1.0000 0.04273  0.61580  0.08480  Biso   1.000  N
  N8       1.0000 0.95727  0.11580  0.41520  Biso   1.000  N
  N9       1.0000 0.36920  0.51873  0.76660  Biso   1.000  N
  N10      1.0000 0.63080  0.01873  0.73340  Biso   1.000  N
  N11      1.0000 0.63080  0.48127  0.23340  Biso   1.000  N
  N12      1.0000 0.36920  0.98127  0.26660  Biso   1.000  N
  N13      1.0000 0.68704  0.37623  0.86920  Biso   1.000  N
  N14      1.0000 0.31296  0.87623  0.63080  Biso   1.000  N
  N15      1.0000 0.31296  0.62377  0.13080  Biso   1.000  N
  N16      1.0000 0.68704  0.12377  0.36920  Biso   1.000  N
  N17      1.0000 0.45270  0.45495  0.76770  Biso   1.000  N
  N18      1.0000 0.54730  0.95495  0.73230  Biso   1.000  N
  N19      1.0000 0.54730  0.54505  0.23230  Biso   1.000  N
  N20      1.0000 0.45270  0.04505  0.26770  Biso   1.000  N
  N21      1.0000 0.32400  0.47901  0.79010  Biso   1.000  N
  N22      1.0000 0.67600  0.97901  0.70990  Biso   1.000  N
  N23      1.0000 0.67600  0.52099  0.20990  Biso   1.000  N
  N24      1.0000 0.32400  0.02099  0.29010  Biso   1.000  N
  C1       1.0000 0.19310  0.37502  0.75820  Biso   1.000  C
  C2       1.0000 0.80690  0.87502  0.74180  Biso   1.000  C
  C3       1.0000 0.80690  0.62498  0.24180  Biso   1.000  C
  C4       1.0000 0.19310  0.12498  0.25820  Biso   1.000  C
  H1       1.0000 0.16500  0.38260  0.64050  Biso   1.000  H
  H2       1.0000 0.83500  0.88260  0.85950  Biso   1.000  H
  H3       1.0000 0.83500  0.61740  0.35950  Biso   1.000  H
  H4       1.0000 0.16500  0.11740  0.14050  Biso   1.000  H
  C5       1.0000 0.86450  0.26834  0.36390  Biso   1.000  C
  C6       1.0000 0.13550  0.76834  0.13610  Biso   1.000  C
  C7       1.0000 0.13550  0.73166  0.63610  Biso   1.000  C
  C8       1.0000 0.86450  0.23166  0.86390  Biso   1.000  C
  C9       1.0000 0.89010  0.30826  0.43850  Biso   1.000  C
  C10      1.0000 0.10990  0.80826  0.06150  Biso   1.000  C
  C11      1.0000 0.10990  0.69174  0.56150  Biso   1.000  C
  C12      1.0000 0.89010  0.19174  0.93850  Biso   1.000  C
  H5       1.0000 0.00320  0.31750  0.48510  Biso   1.000  H
  H6       1.0000 0.99680  0.81750  0.01490  Biso   1.000  H
  H7       1.0000 0.99680  0.68250  0.51490  Biso   1.000  H
  H8       1.0000 0.00320  0.18250  0.98510  Biso   1.000  H
  C13      1.0000 0.12120  0.40120  0.88620  Biso   1.000  C
  C14      1.0000 0.87880  0.90120  0.61380  Biso   1.000  C
  C15      1.0000 0.87880  0.59880  0.11380  Biso   1.000  C
  C16      1.0000 0.12120  0.09880  0.38620  Biso   1.000  C
  H9       1.0000 0.20460  0.40180  0.99640  Biso   1.000  H
  H10      1.0000 0.79540  0.90180  0.50360  Biso   1.000  H
  H11      1.0000 0.79540  0.59820  0.00360  Biso   1.000  H
  H12      1.0000 0.20460  0.09820  0.49640  Biso   1.000  H
  H13      1.0000 0.10400  0.43060  0.84360  Biso   1.000  H
  H14      1.0000 0.89600  0.93060  0.65640  Biso   1.000  H
  H15      1.0000 0.89600  0.56940  0.15640  Biso   1.000  H
  H16      1.0000 0.10400  0.06940  0.34360  Biso   1.000  H
  C17      1.0000 0.92970  0.35641  0.03490  Biso   1.000  C
  C18      1.0000 0.07030  0.85641  0.46510  Biso   1.000  C
  C19      1.0000 0.07030  0.64359  0.96510  Biso   1.000  C
  C20      1.0000 0.92970  0.14359  0.53490  Biso   1.000  C
  H17      1.0000 0.01230  0.34330  0.12160  Biso   1.000  H
  H18      1.0000 0.98770  0.84330  0.37840  Biso   1.000  H
  H19      1.0000 0.98770  0.65670  0.87840  Biso   1.000  H
  H20      1.0000 0.01230  0.15670  0.62160  Biso   1.000  H
  C21      1.0000 0.55900  0.28174  0.30190  Biso   1.000  C
  C22      1.0000 0.44100  0.78174  0.19810  Biso   1.000  C
  C23      1.0000 0.44100  0.71826  0.69810  Biso   1.000  C
  C24      1.0000 0.55900  0.21826  0.80190  Biso   1.000  C
  H21      1.0000 0.44580  0.27270  0.25520  Biso   1.000  H
  H22      1.0000 0.55420  0.77270  0.24480  Biso   1.000  H
  H23      1.0000 0.55420  0.72730  0.74480  Biso   1.000  H
  H24      1.0000 0.44580  0.22730  0.75520  Biso   1.000  H
  C25      1.0000 0.58760  0.32156  0.37600  Biso   1.000  C
  C26      1.0000 0.41240  0.82156  0.12400  Biso   1.000  C
  C27      1.0000 0.41240  0.67844  0.62400  Biso   1.000  C
  C28      1.0000 0.58760  0.17844  0.87600  Biso   1.000  C
  C29      1.0000 0.69750  0.25528  0.29670  Biso   1.000  C
  C30      1.0000 0.30250  0.75528  0.20330  Biso   1.000  C
  C31      1.0000 0.30250  0.74472  0.70330  Biso   1.000  C
  C32      1.0000 0.69750  0.24472  0.79670  Biso   1.000  C
  H25      1.0000 0.67810  0.22800  0.24680  Biso   1.000  H
  H26      1.0000 0.32190  0.72800  0.25320  Biso   1.000  H
  H27      1.0000 0.32190  0.77200  0.75320  Biso   1.000  H
  H28      1.0000 0.67810  0.27200  0.74680  Biso   1.000  H
  C33      1.0000 0.29790  0.34063  0.80560  Biso   1.000  C
  C34      1.0000 0.70210  0.84063  0.69440  Biso   1.000  C
  C35      1.0000 0.70210  0.65937  0.19440  Biso   1.000  C
  C36      1.0000 0.29790  0.15937  0.30560  Biso   1.000  C
  H29      1.0000 0.32750  0.33260  0.92270  Biso   1.000  H
  H30      1.0000 0.67250  0.83260  0.57730  Biso   1.000  H
  H31      1.0000 0.67250  0.66740  0.07730  Biso   1.000  H
  H32      1.0000 0.32750  0.16740  0.42270  Biso   1.000  H
  H33      1.0000 0.34040  0.32500  0.72120  Biso   1.000  H
  H34      1.0000 0.65960  0.82500  0.77880  Biso   1.000  H
  H35      1.0000 0.65960  0.67500  0.27880  Biso   1.000  H
  H36      1.0000 0.34040  0.17500  0.22120  Biso   1.000  H
  C37      1.0000 0.75320  0.33479  0.44590  Biso   1.000  C
  C38      1.0000 0.24680  0.83479  0.05410  Biso   1.000  C
  C39      1.0000 0.24680  0.66521  0.55410  Biso   1.000  C
  C40      1.0000 0.75320  0.16521  0.94590  Biso   1.000  C
  H37      1.0000 0.77240  0.36180  0.49830  Biso   1.000  H
  H38      1.0000 0.22760  0.86180  0.00170  Biso   1.000  H
  H39      1.0000 0.22760  0.63820  0.50170  Biso   1.000  H
  H40      1.0000 0.77240  0.13820  0.99830  Biso   1.000  H
  C41      1.0000 0.10020  0.55325  0.63370  Biso   1.000  C
  C42      1.0000 0.89980  0.05325  0.86630  Biso   1.000  C
  C43      1.0000 0.89980  0.44675  0.36630  Biso   1.000  C
  C44      1.0000 0.10020  0.94675  0.13370  Biso   1.000  C
  H41      1.0000 0.12170  0.55340  0.52050  Biso   1.000  H
  H42      1.0000 0.87830  0.05340  0.97950  Biso   1.000  H
  H43      1.0000 0.87830  0.44660  0.47950  Biso   1.000  H
  H44      1.0000 0.12170  0.94660  0.02050  Biso   1.000  H
  C45      1.0000 0.75550  0.35123  0.00350  Biso   1.000  C
  C46      1.0000 0.24450  0.85123  0.49650  Biso   1.000  C
  C47      1.0000 0.24450  0.64877  0.99650  Biso   1.000  C
  C48      1.0000 0.75550  0.14877  0.50350  Biso   1.000  C
  H45      1.0000 0.69380  0.33330  0.06510  Biso   1.000  H
  H46      1.0000 0.30620  0.83330  0.43490  Biso   1.000  H
  H47      1.0000 0.30620  0.66670  0.93490  Biso   1.000  H
  H48      1.0000 0.69380  0.16670  0.56510  Biso   1.000  H
  C49      1.0000 0.25010  0.55355  0.77990  Biso   1.000  C
  C50      1.0000 0.74990  0.05355  0.72010  Biso   1.000  C
  C51      1.0000 0.74990  0.44645  0.22010  Biso   1.000  C
  C52      1.0000 0.25010  0.94645  0.27990  Biso   1.000  C
  H49      1.0000 0.31120  0.58080  0.78140  Biso   1.000  H
  H50      1.0000 0.68880  0.08080  0.71860  Biso   1.000  H
  H51      1.0000 0.68880  0.41920  0.21860  Biso   1.000  H
  H52      1.0000 0.31120  0.91920  0.28140  Biso   1.000  H
  H53      1.0000 0.20920  0.55100  0.88910  Biso   1.000  H
  H54      1.0000 0.79080  0.05100  0.61090  Biso   1.000  H
  H55      1.0000 0.79080  0.44900  0.11090  Biso   1.000  H
  H56      1.0000 0.20920  0.94900  0.38910  Biso   1.000  H
  C53      1.0000 0.01640  0.24044  0.35930  Biso   1.000  C
  C54      1.0000 0.98360  0.74044  0.14070  Biso   1.000  C
  C55      1.0000 0.98360  0.75956  0.64070  Biso   1.000  C
  C56      1.0000 0.01640  0.25956  0.85930  Biso   1.000  C
  H57      1.0000 0.10170  0.25630  0.31160  Biso   1.000  H
  H58      1.0000 0.89830  0.75630  0.18840  Biso   1.000  H
  H59      1.0000 0.89830  0.74370  0.68840  Biso   1.000  H
  H60      1.0000 0.10170  0.24370  0.81160  Biso   1.000  H
  H61      1.0000 0.97950  0.21570  0.28750  Biso   1.000  H
  H62      1.0000 0.02050  0.71570  0.21250  Biso   1.000  H
  H63      1.0000 0.02050  0.78430  0.71250  Biso   1.000  H
  H64      1.0000 0.97950  0.28430  0.78750  Biso   1.000  H
  H65      1.0000 0.06680  0.23120  0.47590  Biso   1.000  H
  H66      1.0000 0.93320  0.73120  0.02410  Biso   1.000  H
  H67      1.0000 0.93320  0.76880  0.52410  Biso   1.000  H
  H68      1.0000 0.06680  0.26880  0.97590  Biso   1.000  H
  C57      1.0000 0.93950  0.55283  0.65300  Biso   1.000  C
  C58      1.0000 0.06050  0.05283  0.84700  Biso   1.000  C
  C59      1.0000 0.06050  0.44717  0.34700  Biso   1.000  C
  C60      1.0000 0.93950  0.94717  0.15300  Biso   1.000  C
  H69      1.0000 0.91420  0.55270  0.76470  Biso   1.000  H
  H70      1.0000 0.08580  0.05270  0.73530  Biso   1.000  H
  H71      1.0000 0.08580  0.44730  0.23530  Biso   1.000  H
  H72      1.0000 0.91420  0.94730  0.26470  Biso   1.000  H
  H73      1.0000 0.84930  0.55270  0.55520  Biso   1.000  H
  H74      1.0000 0.15070  0.05270  0.94480  Biso   1.000  H
  H75      1.0000 0.15070  0.44730  0.44480  Biso   1.000  H
  H76      1.0000 0.84930  0.94730  0.05520  Biso   1.000  H
  C61      1.0000 0.57790  0.47967  0.73040  Biso   1.000  C
  C62      1.0000 0.42210  0.97967  0.76960  Biso   1.000  C
  C63      1.0000 0.42210  0.52033  0.26960  Biso   1.000  C
  C64      1.0000 0.57790  0.02033  0.23040  Biso   1.000  C
  H77      1.0000 0.68450  0.47020  0.70870  Biso   1.000  H
  H78      1.0000 0.31550  0.97020  0.79130  Biso   1.000  H
  H79      1.0000 0.31550  0.52980  0.29130  Biso   1.000  H
  H80      1.0000 0.68450  0.02980  0.20870  Biso   1.000  H
  C65      1.0000 0.52500  0.52081  0.72900  Biso   1.000  C
  C66      1.0000 0.47500  0.02081  0.77100  Biso   1.000  C
  C67      1.0000 0.47500  0.47919  0.27100  Biso   1.000  C
  C68      1.0000 0.52500  0.97919  0.22900  Biso   1.000  C
  H81      1.0000 0.58550  0.54530  0.70650  Biso   1.000  H
  H82      1.0000 0.41450  0.04530  0.79350  Biso   1.000  H
  H83      1.0000 0.41450  0.45470  0.29350  Biso   1.000  H
  H84      1.0000 0.58550  0.95470  0.20650  Biso   1.000  H
