data_image0
_cell_length_a       17.3862
_cell_length_b       11.4005
_cell_length_c       17.5935
_cell_angle_alpha    90
_cell_angle_beta     106.52
_cell_angle_gamma    90

_symmetry_space_group_name_H-M    "P 1"
_symmetry_int_tables_number       1

loop_
  _symmetry_equiv_pos_as_xyz
  'x, y, z'

loop_
  _atom_site_label
  _atom_site_occupancy
  _atom_site_fract_x
  _atom_site_fract_y
  _atom_site_fract_z
  _atom_site_thermal_displace_type
  _atom_site_B_iso_or_equiv
  _atom_site_type_symbol
  Cu1      1.0000 0.50099  0.58274  0.67507  Biso   1.000  Cu
  Cu2      1.0000 0.49901  0.08274  0.82493  Biso   1.000  Cu
  Cu3      1.0000 0.49901  0.41726  0.32493  Biso   1.000  Cu
  Cu4      1.0000 0.50099  0.91726  0.17507  Biso   1.000  Cu
  Cu5      1.0000 0.46361  0.26108  0.48182  Biso   1.000  Cu
  Cu6      1.0000 0.53639  0.76108  0.01818  Biso   1.000  Cu
  Cu7      1.0000 0.53639  0.73892  0.51818  Biso   1.000  Cu
  Cu8      1.0000 0.46361  0.23892  0.98182  Biso   1.000  Cu
  N1       1.0000 0.42352  0.63100  0.73546  Biso   1.000  N
  N2       1.0000 0.57648  0.13100  0.76454  Biso   1.000  N
  N3       1.0000 0.57648  0.36900  0.26454  Biso   1.000  N
  N4       1.0000 0.42352  0.86900  0.23546  Biso   1.000  N
  N5       1.0000 0.31044  0.68180  0.76084  Biso   1.000  N
  N6       1.0000 0.68956  0.18180  0.73916  Biso   1.000  N
  N7       1.0000 0.68956  0.31820  0.23916  Biso   1.000  N
  N8       1.0000 0.31044  0.81820  0.26084  Biso   1.000  N
  N9       1.0000 0.73385  0.71500  0.74735  Biso   1.000  N
  N10      1.0000 0.26615  0.21500  0.75265  Biso   1.000  N
  N11      1.0000 0.26615  0.28500  0.25265  Biso   1.000  N
  N12      1.0000 0.73385  0.78500  0.24735  Biso   1.000  N
  N13      1.0000 0.60544  0.66870  0.72217  Biso   1.000  N
  N14      1.0000 0.39456  0.16870  0.77783  Biso   1.000  N
  N15      1.0000 0.39456  0.33130  0.27783  Biso   1.000  N
  N16      1.0000 0.60544  0.83130  0.22217  Biso   1.000  N
  N17      1.0000 0.47326  0.38820  0.55334  Biso   1.000  N
  N18      1.0000 0.52674  0.88820  0.94666  Biso   1.000  N
  N19      1.0000 0.52674  0.61180  0.44666  Biso   1.000  N
  N20      1.0000 0.47326  0.11180  0.05334  Biso   1.000  N
  N21      1.0000 0.54086  0.19010  0.43132  Biso   1.000  N
  N22      1.0000 0.45914  0.69010  0.06868  Biso   1.000  N
  N23      1.0000 0.45914  0.80990  0.56868  Biso   1.000  N
  N24      1.0000 0.54086  0.30990  0.93132  Biso   1.000  N
  N25      1.0000 0.65554  0.13960  0.40939  Biso   1.000  N
  N26      1.0000 0.34446  0.63960  0.09061  Biso   1.000  N
  N27      1.0000 0.34446  0.86040  0.59061  Biso   1.000  N
  N28      1.0000 0.65554  0.36040  0.90939  Biso   1.000  N
  N29      1.0000 0.23620  0.11080  0.44061  Biso   1.000  N
  N30      1.0000 0.76380  0.61080  0.05939  Biso   1.000  N
  N31      1.0000 0.76380  0.88920  0.55939  Biso   1.000  N
  N32      1.0000 0.23620  0.38920  0.94061  Biso   1.000  N
  N33      1.0000 0.36299  0.16240  0.45863  Biso   1.000  N
  N34      1.0000 0.63701  0.66240  0.04137  Biso   1.000  N
  N35      1.0000 0.63701  0.83760  0.54137  Biso   1.000  N
  N36      1.0000 0.36299  0.33760  0.95863  Biso   1.000  N
  C1       1.0000 0.34447  0.62620  0.71030  Biso   1.000  C
  C2       1.0000 0.65553  0.12620  0.78970  Biso   1.000  C
  C3       1.0000 0.65553  0.37380  0.28970  Biso   1.000  C
  C4       1.0000 0.34447  0.87380  0.21030  Biso   1.000  C
  H1       1.0000 0.31569  0.58925  0.66377  Biso   1.000  H
  H2       1.0000 0.68431  0.08925  0.83623  Biso   1.000  H
  H3       1.0000 0.68431  0.41075  0.33623  Biso   1.000  H
  H4       1.0000 0.31569  0.91075  0.16377  Biso   1.000  H
  C5       1.0000 0.44099  0.69120  0.80624  Biso   1.000  C
  C6       1.0000 0.55901  0.19120  0.69376  Biso   1.000  C
  C7       1.0000 0.55901  0.30880  0.19376  Biso   1.000  C
  C8       1.0000 0.44099  0.80880  0.30624  Biso   1.000  C
  H5       1.0000 0.49245  0.70681  0.83842  Biso   1.000  H
  H6       1.0000 0.50755  0.20681  0.66158  Biso   1.000  H
  H7       1.0000 0.50755  0.29319  0.16158  Biso   1.000  H
  H8       1.0000 0.49245  0.79319  0.33842  Biso   1.000  H
  C9       1.0000 0.37291  0.72390  0.82203  Biso   1.000  C
  C10      1.0000 0.62709  0.22390  0.67797  Biso   1.000  C
  C11      1.0000 0.62709  0.27610  0.17797  Biso   1.000  C
  C12      1.0000 0.37291  0.77610  0.32203  Biso   1.000  C
  H9       1.0000 0.36871  0.76659  0.86571  Biso   1.000  H
  H10      1.0000 0.63129  0.26659  0.63429  Biso   1.000  H
  H11      1.0000 0.63129  0.23341  0.13429  Biso   1.000  H
  H12      1.0000 0.36871  0.73341  0.36571  Biso   1.000  H
  C13      1.0000 0.22666  0.69070  0.75500  Biso   1.000  C
  C14      1.0000 0.77334  0.19070  0.74500  Biso   1.000  C
  C15      1.0000 0.77334  0.30930  0.24500  Biso   1.000  C
  C16      1.0000 0.22666  0.80930  0.25500  Biso   1.000  C
  C17      1.0000 0.17215  0.61680  0.70598  Biso   1.000  C
  C18      1.0000 0.82785  0.11680  0.79402  Biso   1.000  C
  C19      1.0000 0.82785  0.38320  0.29402  Biso   1.000  C
  C20      1.0000 0.17215  0.88320  0.20598  Biso   1.000  C
  H13      1.0000 0.18925  0.56208  0.67508  Biso   1.000  H
  H14      1.0000 0.81075  0.06208  0.82492  Biso   1.000  H
  H15      1.0000 0.81075  0.43792  0.32492  Biso   1.000  H
  H16      1.0000 0.18925  0.93792  0.17508  Biso   1.000  H
  C21      1.0000 0.09162  0.62380  0.70260  Biso   1.000  C
  C22      1.0000 0.90838  0.12380  0.79740  Biso   1.000  C
  C23      1.0000 0.90838  0.37620  0.29740  Biso   1.000  C
  C24      1.0000 0.09162  0.87620  0.20260  Biso   1.000  C
  H17      1.0000 0.05534  0.57332  0.66913  Biso   1.000  H
  H18      1.0000 0.94466  0.07332  0.83087  Biso   1.000  H
  H19      1.0000 0.94466  0.42668  0.33087  Biso   1.000  H
  H20      1.0000 0.05534  0.92668  0.16913  Biso   1.000  H
  C25      1.0000 0.06367  0.70420  0.74785  Biso   1.000  C
  C26      1.0000 0.93633  0.20420  0.75215  Biso   1.000  C
  C27      1.0000 0.93633  0.29580  0.25215  Biso   1.000  C
  C28      1.0000 0.06367  0.79580  0.24785  Biso   1.000  C
  C29      1.0000 0.12030  0.77950  0.79610  Biso   1.000  C
  C30      1.0000 0.87970  0.27950  0.70390  Biso   1.000  C
  C31      1.0000 0.87970  0.22050  0.20390  Biso   1.000  C
  C32      1.0000 0.12030  0.72050  0.29610  Biso   1.000  C
  H21      1.0000 0.10363  0.83503  0.82675  Biso   1.000  H
  H22      1.0000 0.89637  0.33503  0.67325  Biso   1.000  H
  H23      1.0000 0.89637  0.16497  0.17325  Biso   1.000  H
  H24      1.0000 0.10363  0.66497  0.32675  Biso   1.000  H
  C33      1.0000 0.20059  0.77350  0.79920  Biso   1.000  C
  C34      1.0000 0.79941  0.27350  0.70080  Biso   1.000  C
  C35      1.0000 0.79941  0.22650  0.20080  Biso   1.000  C
  C36      1.0000 0.20059  0.72650  0.29920  Biso   1.000  C
  H25      1.0000 0.23706  0.82532  0.83115  Biso   1.000  H
  H26      1.0000 0.76294  0.32532  0.66885  Biso   1.000  H
  H27      1.0000 0.76294  0.17468  0.16885  Biso   1.000  H
  H28      1.0000 0.23706  0.67468  0.33115  Biso   1.000  H
  C37      1.0000 0.97759  0.70800  0.74668  Biso   1.000  C
  C38      1.0000 0.02241  0.20800  0.75332  Biso   1.000  C
  C39      1.0000 0.02241  0.29200  0.25332  Biso   1.000  C
  C40      1.0000 0.97759  0.79200  0.24668  Biso   1.000  C
  C41      1.0000 0.91987  0.64130  0.69367  Biso   1.000  C
  C42      1.0000 0.08013  0.14130  0.80633  Biso   1.000  C
  C43      1.0000 0.08013  0.35870  0.30633  Biso   1.000  C
  C44      1.0000 0.91987  0.85870  0.19367  Biso   1.000  C
  H29      1.0000 0.93527  0.59396  0.65752  Biso   1.000  H
  H30      1.0000 0.06473  0.09396  0.84248  Biso   1.000  H
  H31      1.0000 0.06473  0.40604  0.34248  Biso   1.000  H
  H32      1.0000 0.93527  0.90604  0.15752  Biso   1.000  H
  C45      1.0000 0.83985  0.64310  0.69288  Biso   1.000  C
  C46      1.0000 0.16015  0.14310  0.80712  Biso   1.000  C
  C47      1.0000 0.16015  0.35690  0.30712  Biso   1.000  C
  C48      1.0000 0.83985  0.85690  0.19288  Biso   1.000  C
  H33      1.0000 0.80246  0.59753  0.65655  Biso   1.000  H
  H34      1.0000 0.19754  0.09753  0.84345  Biso   1.000  H
  H35      1.0000 0.19754  0.40247  0.34345  Biso   1.000  H
  H36      1.0000 0.80246  0.90247  0.15655  Biso   1.000  H
  C49      1.0000 0.81592  0.71280  0.74623  Biso   1.000  C
  C50      1.0000 0.18408  0.21280  0.75377  Biso   1.000  C
  C51      1.0000 0.18408  0.28720  0.25377  Biso   1.000  C
  C52      1.0000 0.81592  0.78720  0.24623  Biso   1.000  C
  C53      1.0000 0.87255  0.78020  0.80010  Biso   1.000  C
  C54      1.0000 0.12745  0.28020  0.69990  Biso   1.000  C
  C55      1.0000 0.12745  0.21980  0.19990  Biso   1.000  C
  C56      1.0000 0.87255  0.71980  0.30010  Biso   1.000  C
  H37      1.0000 0.85715  0.82731  0.83640  Biso   1.000  H
  H38      1.0000 0.14285  0.32731  0.66360  Biso   1.000  H
  H39      1.0000 0.14285  0.17269  0.16360  Biso   1.000  H
  H40      1.0000 0.85715  0.67269  0.33640  Biso   1.000  H
  C57      1.0000 0.95168  0.77710  0.79964  Biso   1.000  C
  C58      1.0000 0.04832  0.27710  0.70036  Biso   1.000  C
  C59      1.0000 0.04832  0.22290  0.20036  Biso   1.000  C
  C60      1.0000 0.95168  0.72290  0.29964  Biso   1.000  C
  H41      1.0000 0.98898  0.82277  0.83599  Biso   1.000  H
  H42      1.0000 0.01102  0.32277  0.66401  Biso   1.000  H
  H43      1.0000 0.01102  0.17723  0.16401  Biso   1.000  H
  H44      1.0000 0.98898  0.67723  0.33599  Biso   1.000  H
  C61      1.0000 0.67360  0.64390  0.70660  Biso   1.000  C
  C62      1.0000 0.32640  0.14390  0.79340  Biso   1.000  C
  C63      1.0000 0.32640  0.35610  0.29340  Biso   1.000  C
  C64      1.0000 0.67360  0.85610  0.20660  Biso   1.000  C
  H45      1.0000 0.67955  0.58517  0.67205  Biso   1.000  H
  H46      1.0000 0.32045  0.08517  0.82795  Biso   1.000  H
  H47      1.0000 0.32045  0.41483  0.32795  Biso   1.000  H
  H48      1.0000 0.67955  0.91483  0.17205  Biso   1.000  H
  C65      1.0000 0.62320  0.76100  0.77490  Biso   1.000  C
  C66      1.0000 0.37680  0.26100  0.72510  Biso   1.000  C
  C67      1.0000 0.37680  0.23900  0.22510  Biso   1.000  C
  C68      1.0000 0.62320  0.73900  0.27490  Biso   1.000  C
  H49      1.0000 0.58638  0.79797  0.79620  Biso   1.000  H
  H50      1.0000 0.41362  0.29797  0.70380  Biso   1.000  H
  H51      1.0000 0.41362  0.20203  0.20380  Biso   1.000  H
  H52      1.0000 0.58638  0.70203  0.29620  Biso   1.000  H
  C69      1.0000 0.70103  0.78990  0.79120  Biso   1.000  C
  C70      1.0000 0.29897  0.28990  0.70880  Biso   1.000  C
  C71      1.0000 0.29897  0.21010  0.20880  Biso   1.000  C
  C72      1.0000 0.70103  0.71010  0.29120  Biso   1.000  C
  H53      1.0000 0.72752  0.84883  0.82522  Biso   1.000  H
  H54      1.0000 0.27248  0.34883  0.67478  Biso   1.000  H
  H55      1.0000 0.27248  0.15117  0.17478  Biso   1.000  H
  H56      1.0000 0.72752  0.65117  0.32522  Biso   1.000  H
  C73      1.0000 0.48234  0.46260  0.59908  Biso   1.000  C
  C74      1.0000 0.51766  0.96260  0.90092  Biso   1.000  C
  C75      1.0000 0.51766  0.53740  0.40092  Biso   1.000  C
  C76      1.0000 0.48234  0.03740  0.09908  Biso   1.000  C
  C77      1.0000 0.52660  0.10560  0.37330  Biso   1.000  C
  C78      1.0000 0.47340  0.60560  0.12670  Biso   1.000  C
  C79      1.0000 0.47340  0.89440  0.62670  Biso   1.000  C
  C80      1.0000 0.52660  0.39440  0.87330  Biso   1.000  C
  H57      1.0000 0.47639  0.07499  0.34751  Biso   1.000  H
  H58      1.0000 0.52361  0.57499  0.15249  Biso   1.000  H
  H59      1.0000 0.52361  0.92501  0.65249  Biso   1.000  H
  H60      1.0000 0.47639  0.42501  0.84751  Biso   1.000  H
  C81      1.0000 0.59582  0.07370  0.35940  Biso   1.000  C
  C82      1.0000 0.40418  0.57370  0.14060  Biso   1.000  C
  C83      1.0000 0.40418  0.92630  0.64060  Biso   1.000  C
  C84      1.0000 0.59582  0.42630  0.85940  Biso   1.000  C
  H61      1.0000 0.60213  0.01797  0.32303  Biso   1.000  H
  H62      1.0000 0.39787  0.51797  0.17697  Biso   1.000  H
  H63      1.0000 0.39787  0.98203  0.67697  Biso   1.000  H
  H64      1.0000 0.60213  0.48203  0.82303  Biso   1.000  H
  C85      1.0000 0.61921  0.20860  0.45112  Biso   1.000  C
  C86      1.0000 0.38079  0.70860  0.04888  Biso   1.000  C
  C87      1.0000 0.38079  0.79140  0.54888  Biso   1.000  C
  C88      1.0000 0.61921  0.29140  0.95112  Biso   1.000  C
  H65      1.0000 0.64596  0.26253  0.48914  Biso   1.000  H
  H66      1.0000 0.35404  0.76253  0.01086  Biso   1.000  H
  H67      1.0000 0.35404  0.73747  0.51086  Biso   1.000  H
  H68      1.0000 0.64596  0.23747  0.98914  Biso   1.000  H
  C89      1.0000 0.73921  0.13450  0.41607  Biso   1.000  C
  C90      1.0000 0.26079  0.63450  0.08393  Biso   1.000  C
  C91      1.0000 0.26079  0.86550  0.58393  Biso   1.000  C
  C92      1.0000 0.73921  0.36550  0.91607  Biso   1.000  C
  C93      1.0000 0.77010  0.04000  0.38430  Biso   1.000  C
  C94      1.0000 0.22990  0.54000  0.11570  Biso   1.000  C
  C95      1.0000 0.22990  0.96000  0.61570  Biso   1.000  C
  C96      1.0000 0.77010  0.46000  0.88430  Biso   1.000  C
  H69      1.0000 0.73668  0.97886  0.36005  Biso   1.000  H
  H70      1.0000 0.26332  0.47886  0.13995  Biso   1.000  H
  H71      1.0000 0.26332  0.02114  0.63995  Biso   1.000  H
  H72      1.0000 0.73668  0.52114  0.86005  Biso   1.000  H
  C97      1.0000 0.85120  0.03730  0.38900  Biso   1.000  C
  C98      1.0000 0.14880  0.53730  0.11100  Biso   1.000  C
  C99      1.0000 0.14880  0.96270  0.61100  Biso   1.000  C
  C100     1.0000 0.85120  0.46270  0.88900  Biso   1.000  C
  H73      1.0000 0.87112  0.97485  0.36621  Biso   1.000  H
  H74      1.0000 0.12888  0.47485  0.13379  Biso   1.000  H
  H75      1.0000 0.12888  0.02515  0.63379  Biso   1.000  H
  H76      1.0000 0.87112  0.52515  0.86621  Biso   1.000  H
  C101     1.0000 0.90365  0.12560  0.42694  Biso   1.000  C
  C102     1.0000 0.09635  0.62560  0.07306  Biso   1.000  C
  C103     1.0000 0.09635  0.87440  0.57306  Biso   1.000  C
  C104     1.0000 0.90365  0.37440  0.92694  Biso   1.000  C
  C105     1.0000 0.87110  0.21680  0.46070  Biso   1.000  C
  C106     1.0000 0.12890  0.71680  0.03930  Biso   1.000  C
  C107     1.0000 0.12890  0.78320  0.53930  Biso   1.000  C
  C108     1.0000 0.87110  0.28320  0.96070  Biso   1.000  C
  H77      1.0000 0.90474  0.27602  0.48755  Biso   1.000  H
  H78      1.0000 0.09526  0.77602  0.01245  Biso   1.000  H
  H79      1.0000 0.09526  0.72398  0.51245  Biso   1.000  H
  H80      1.0000 0.90474  0.22398  0.98755  Biso   1.000  H
  C109     1.0000 0.78970  0.22170  0.45530  Biso   1.000  C
  C110     1.0000 0.21030  0.72170  0.04470  Biso   1.000  C
  C111     1.0000 0.21030  0.77830  0.54470  Biso   1.000  C
  C112     1.0000 0.78970  0.27830  0.95530  Biso   1.000  C
  H81      1.0000 0.76956  0.28384  0.47808  Biso   1.000  H
  H82      1.0000 0.23044  0.78384  0.02192  Biso   1.000  H
  H83      1.0000 0.23044  0.71616  0.52192  Biso   1.000  H
  H84      1.0000 0.76956  0.21616  0.97808  Biso   1.000  H
  C113     1.0000 0.99004  0.12210  0.43120  Biso   1.000  C
  C114     1.0000 0.00996  0.62210  0.06880  Biso   1.000  C
  C115     1.0000 0.00996  0.87790  0.56880  Biso   1.000  C
  C116     1.0000 0.99004  0.37790  0.93120  Biso   1.000  C
  C117     1.0000 0.01900  0.04770  0.38350  Biso   1.000  C
  C118     1.0000 0.98100  0.54770  0.11650  Biso   1.000  C
  C119     1.0000 0.98100  0.95230  0.61650  Biso   1.000  C
  C120     1.0000 0.01900  0.45230  0.88350  Biso   1.000  C
  H85      1.0000 0.98333  0.99829  0.34836  Biso   1.000  H
  H86      1.0000 0.01667  0.49829  0.15164  Biso   1.000  H
  H87      1.0000 0.01667  0.00171  0.65164  Biso   1.000  H
  H88      1.0000 0.98333  0.50171  0.84836  Biso   1.000  H
  C121     1.0000 0.09942  0.04450  0.38630  Biso   1.000  C
  C122     1.0000 0.90058  0.54450  0.11370  Biso   1.000  C
  C123     1.0000 0.90058  0.95550  0.61370  Biso   1.000  C
  C124     1.0000 0.09942  0.45550  0.88630  Biso   1.000  C
  H89      1.0000 0.11684  0.99407  0.35312  Biso   1.000  H
  H90      1.0000 0.88316  0.49407  0.14688  Biso   1.000  H
  H91      1.0000 0.88316  0.00593  0.64688  Biso   1.000  H
  H92      1.0000 0.11684  0.50593  0.85312  Biso   1.000  H
  C125     1.0000 0.15300  0.11500  0.43765  Biso   1.000  C
  C126     1.0000 0.84700  0.61500  0.06235  Biso   1.000  C
  C127     1.0000 0.84700  0.88500  0.56235  Biso   1.000  C
  C128     1.0000 0.15300  0.38500  0.93765  Biso   1.000  C
  C129     1.0000 0.12660  0.19070  0.48580  Biso   1.000  C
  C130     1.0000 0.87340  0.69070  0.01420  Biso   1.000  C
  C131     1.0000 0.87340  0.80930  0.51420  Biso   1.000  C
  C132     1.0000 0.12660  0.30930  0.98580  Biso   1.000  C
  H93      1.0000 0.16284  0.23920  0.52107  Biso   1.000  H
  H94      1.0000 0.83716  0.73920  0.97893  Biso   1.000  H
  H95      1.0000 0.83716  0.76080  0.47893  Biso   1.000  H
  H96      1.0000 0.16284  0.26080  0.02107  Biso   1.000  H
  C133     1.0000 0.04593  0.19450  0.48160  Biso   1.000  C
  C134     1.0000 0.95407  0.69450  0.01840  Biso   1.000  C
  C135     1.0000 0.95407  0.80550  0.51840  Biso   1.000  C
  C136     1.0000 0.04593  0.30550  0.98160  Biso   1.000  C
  H97      1.0000 0.02866  0.24731  0.51354  Biso   1.000  H
  H98      1.0000 0.97134  0.74731  0.98646  Biso   1.000  H
  H99      1.0000 0.97134  0.75269  0.48646  Biso   1.000  H
  H100     1.0000 0.02866  0.25269  0.01354  Biso   1.000  H
  C137     1.0000 0.27470  0.01750  0.41840  Biso   1.000  C
  C138     1.0000 0.72530  0.51750  0.08160  Biso   1.000  C
  C139     1.0000 0.72530  0.98250  0.58160  Biso   1.000  C
  C140     1.0000 0.27470  0.48250  0.91840  Biso   1.000  C
  H101     1.0000 0.25212  0.94572  0.39884  Biso   1.000  H
  H102     1.0000 0.74788  0.44572  0.10116  Biso   1.000  H
  H103     1.0000 0.74788  0.05428  0.60116  Biso   1.000  H
  H104     1.0000 0.25212  0.55428  0.89884  Biso   1.000  H
  C141     1.0000 0.35210  0.05020  0.43030  Biso   1.000  C
  C142     1.0000 0.64790  0.55020  0.06970  Biso   1.000  C
  C143     1.0000 0.64790  0.94980  0.56970  Biso   1.000  C
  C144     1.0000 0.35210  0.44980  0.93030  Biso   1.000  C
  H105     1.0000 0.39205  0.00322  0.42072  Biso   1.000  H
  H106     1.0000 0.60795  0.50322  0.07928  Biso   1.000  H
  H107     1.0000 0.60795  0.99678  0.57928  Biso   1.000  H
  H108     1.0000 0.39205  0.49678  0.92072  Biso   1.000  H
  C145     1.0000 0.29210  0.19580  0.46535  Biso   1.000  C
  C146     1.0000 0.70790  0.69580  0.03465  Biso   1.000  C
  C147     1.0000 0.70790  0.80420  0.53465  Biso   1.000  C
  C148     1.0000 0.29210  0.30420  0.96535  Biso   1.000  C
  H109     1.0000 0.28208  0.26843  0.48463  Biso   1.000  H
  H110     1.0000 0.71792  0.76843  0.01537  Biso   1.000  H
  H111     1.0000 0.71792  0.73157  0.51537  Biso   1.000  H
  H112     1.0000 0.28208  0.23157  0.98463  Biso   1.000  H
  C149     1.0000 0.76580  0.07260  0.36060  Biso   1.000  C
  C150     1.0000 0.23420  0.57260  0.13940  Biso   1.000  C
  C151     1.0000 0.23420  0.92740  0.63940  Biso   1.000  C
  C152     1.0000 0.76580  0.42740  0.86060  Biso   1.000  C
  H113     1.0000 0.72931  0.03215  0.32010  Biso   1.000  H
  H114     1.0000 0.27069  0.53215  0.17990  Biso   1.000  H
  H115     1.0000 0.27069  0.96785  0.67990  Biso   1.000  H
  H116     1.0000 0.72931  0.46785  0.82010  Biso   1.000  H
  C153     1.0000 0.84690  0.07090  0.36540  Biso   1.000  C
  C154     1.0000 0.15310  0.57090  0.13460  Biso   1.000  C
  C155     1.0000 0.15310  0.92910  0.63460  Biso   1.000  C
  C156     1.0000 0.84690  0.42910  0.86540  Biso   1.000  C
  H117     1.0000 0.86370  0.03203  0.32644  Biso   1.000  H
  H118     1.0000 0.13630  0.53203  0.17356  Biso   1.000  H
  H119     1.0000 0.13630  0.96797  0.67356  Biso   1.000  H
  H120     1.0000 0.86370  0.46797  0.82644  Biso   1.000  H
  C157     1.0000 0.87550  0.19130  0.48000  Biso   1.000  C
  C158     1.0000 0.12450  0.69130  0.02000  Biso   1.000  C
  C159     1.0000 0.12450  0.80870  0.52000  Biso   1.000  C
  C160     1.0000 0.87550  0.30870  0.98000  Biso   1.000  C
  H121     1.0000 0.91186  0.23351  0.51954  Biso   1.000  H
  H122     1.0000 0.08814  0.73351  0.98046  Biso   1.000  H
  H123     1.0000 0.08814  0.76649  0.48046  Biso   1.000  H
  H124     1.0000 0.91186  0.26649  0.01954  Biso   1.000  H
  C161     1.0000 0.79440  0.19540  0.47550  Biso   1.000  C
  C162     1.0000 0.20560  0.69540  0.02450  Biso   1.000  C
  C163     1.0000 0.20560  0.80460  0.52450  Biso   1.000  C
  C164     1.0000 0.79440  0.30460  0.97550  Biso   1.000  C
  H125     1.0000 0.77717  0.23892  0.51229  Biso   1.000  H
  H126     1.0000 0.22283  0.73892  0.98771  Biso   1.000  H
  H127     1.0000 0.22283  0.76108  0.48771  Biso   1.000  H
  H128     1.0000 0.77717  0.26108  0.01229  Biso   1.000  H
  O1       1.0000 0.67060  0.44920  0.56365  Biso   1.000  O
  O2       1.0000 0.32940  0.94920  0.93635  Biso   1.000  O
  O3       1.0000 0.32940  0.55080  0.43635  Biso   1.000  O
  O4       1.0000 0.67060  0.05080  0.06365  Biso   1.000  O
  H129     1.0000 0.62534  0.47638  0.53742  Biso   1.000  H
  H130     1.0000 0.37466  0.97638  0.96258  Biso   1.000  H
  H131     1.0000 0.37466  0.52362  0.46258  Biso   1.000  H
  H132     1.0000 0.62534  0.02362  0.03742  Biso   1.000  H
  H133     1.0000 0.70671  0.47371  0.54367  Biso   1.000  H
  H134     1.0000 0.29329  0.97371  0.95633  Biso   1.000  H
  H135     1.0000 0.29329  0.52629  0.45633  Biso   1.000  H
  H136     1.0000 0.70671  0.02629  0.04367  Biso   1.000  H
  O5       1.0000 0.23044  0.46400  0.54421  Biso   1.000  O
  O6       1.0000 0.76956  0.96400  0.95579  Biso   1.000  O
  O7       1.0000 0.76956  0.53600  0.45579  Biso   1.000  O
  O8       1.0000 0.23044  0.03600  0.04421  Biso   1.000  O
  O9       1.0000 0.12030  0.46330  0.54780  Biso   1.000  O
  O10      1.0000 0.87970  0.96330  0.95220  Biso   1.000  O
  O11      1.0000 0.87970  0.53670  0.45220  Biso   1.000  O
  O12      1.0000 0.12030  0.03670  0.04780  Biso   1.000  O
  O13      1.0000 0.15520  0.53640  0.44860  Biso   1.000  O
  O14      1.0000 0.84480  0.03640  0.05140  Biso   1.000  O
  O15      1.0000 0.84480  0.46360  0.55140  Biso   1.000  O
  O16      1.0000 0.15520  0.96360  0.94860  Biso   1.000  O
  N37      1.0000 0.16970  0.48900  0.51320  Biso   1.000  N
  N38      1.0000 0.83030  0.98900  0.98680  Biso   1.000  N
  N39      1.0000 0.83030  0.51100  0.48680  Biso   1.000  N
  N40      1.0000 0.16970  0.01100  0.01320  Biso   1.000  N
  O17      1.0000 0.96460  0.45800  0.55410  Biso   1.000  O
  O18      1.0000 0.03540  0.95800  0.94590  Biso   1.000  O
  O19      1.0000 0.03540  0.54200  0.44590  Biso   1.000  O
  O20      1.0000 0.96460  0.04200  0.05410  Biso   1.000  O
  H137     1.0000 0.92700  0.45408  0.57602  Biso   1.000  H
  H138     1.0000 0.07300  0.95408  0.92398  Biso   1.000  H
  H139     1.0000 0.07300  0.54592  0.42398  Biso   1.000  H
  H140     1.0000 0.92700  0.04592  0.07602  Biso   1.000  H
  H141     1.0000 0.94500  0.45403  0.50405  Biso   1.000  H
  H142     1.0000 0.05500  0.95403  0.99595  Biso   1.000  H
  H143     1.0000 0.05500  0.54597  0.49595  Biso   1.000  H
  H144     1.0000 0.94500  0.04597  0.00405  Biso   1.000  H
