data_image0
_cell_length_a       10.986
_cell_length_b       16.1541
_cell_length_c       20.336
_cell_angle_alpha    82.821
_cell_angle_beta     89.03
_cell_angle_gamma    74.237

_symmetry_space_group_name_H-M    "P 1"
_symmetry_int_tables_number       1

loop_
  _symmetry_equiv_pos_as_xyz
  'x, y, z'

loop_
  _atom_site_label
  _atom_site_occupancy
  _atom_site_fract_x
  _atom_site_fract_y
  _atom_site_fract_z
  _atom_site_thermal_displace_type
  _atom_site_B_iso_or_equiv
  _atom_site_type_symbol
  Cu1      1.0000 0.78585  0.65849  0.13999  Biso   1.000  Cu
  Cu2      1.0000 0.21415  0.34151  0.86001  Biso   1.000  Cu
  Cu3      1.0000 0.78806  0.65568  0.32279  Biso   1.000  Cu
  Cu4      1.0000 0.21194  0.34432  0.67721  Biso   1.000  Cu
  P1       1.0000 0.98370  0.57875  0.16926  Biso   1.000  P
  P2       1.0000 0.01630  0.42125  0.83074  Biso   1.000  P
  P3       1.0000 0.99714  0.59589  0.32001  Biso   1.000  P
  P4       1.0000 0.00286  0.40411  0.67999  Biso   1.000  P
  P5       1.0000 0.72735  0.80272  0.13569  Biso   1.000  P
  P6       1.0000 0.27265  0.19728  0.86431  Biso   1.000  P
  P7       1.0000 0.67290  0.78988  0.28283  Biso   1.000  P
  P8       1.0000 0.32710  0.21012  0.71717  Biso   1.000  P
  N1       1.0000 0.68550  0.60180  0.08660  Biso   1.000  N
  N2       1.0000 0.31450  0.39820  0.91340  Biso   1.000  N
  N3       1.0000 0.69070  0.59540  0.38880  Biso   1.000  N
  N4       1.0000 0.30930  0.40460  0.61120  Biso   1.000  N
  C1       1.0000 0.06790  0.60380  0.23800  Biso   1.000  C
  C2       1.0000 0.93210  0.39620  0.76200  Biso   1.000  C
  H1       1.0000 0.15280  0.56500  0.24090  Biso   1.000  H
  H2       1.0000 0.84720  0.43500  0.75910  Biso   1.000  H
  H3       1.0000 0.07570  0.66230  0.22710  Biso   1.000  H
  H4       1.0000 0.92430  0.33770  0.77290  Biso   1.000  H
  C3       1.0000 0.73950  0.84690  0.21370  Biso   1.000  C
  C4       1.0000 0.26050  0.15310  0.78630  Biso   1.000  C
  H5       1.0000 0.82770  0.84150  0.22350  Biso   1.000  H
  H6       1.0000 0.17230  0.15850  0.77650  Biso   1.000  H
  H7       1.0000 0.69470  0.90810  0.20870  Biso   1.000  H
  H8       1.0000 0.30530  0.09190  0.79130  Biso   1.000  H
  C5       1.0000 0.68150  0.60910  0.02090  Biso   1.000  C
  C6       1.0000 0.31850  0.39090  0.97910  Biso   1.000  C
  H9       1.0000 0.72890  0.64210  0.99720  Biso   1.000  H
  H10      1.0000 0.27110  0.35790  0.00280  Biso   1.000  H
  C7       1.0000 0.61060  0.57040  0.98590  Biso   1.000  C
  C8       1.0000 0.38940  0.42960  0.01410  Biso   1.000  C
  H11      1.0000 0.61180  0.57750  0.93980  Biso   1.000  H
  H12      1.0000 0.38820  0.42250  0.06020  Biso   1.000  H
  C9       1.0000 0.53900  0.52200  0.01780  Biso   1.000  C
  C10      1.0000 0.46100  0.47800  0.98220  Biso   1.000  C
  C11      1.0000 0.54390  0.51370  0.08600  Biso   1.000  C
  C12      1.0000 0.45610  0.48630  0.91400  Biso   1.000  C
  H13      1.0000 0.49810  0.48040  0.11060  Biso   1.000  H
  H14      1.0000 0.50190  0.51960  0.88940  Biso   1.000  H
  C13      1.0000 0.61580  0.55410  0.11770  Biso   1.000  C
  C14      1.0000 0.38420  0.44590  0.88230  Biso   1.000  C
  H15      1.0000 0.61580  0.54790  0.16380  Biso   1.000  H
  H16      1.0000 0.38420  0.45210  0.83620  Biso   1.000  H
  C15      1.0000 0.64170  0.53470  0.37330  Biso   1.000  C
  C16      1.0000 0.35830  0.46530  0.62670  Biso   1.000  C
  H17      1.0000 0.65700  0.51730  0.33130  Biso   1.000  H
  H18      1.0000 0.34300  0.48270  0.66870  Biso   1.000  H
  C17      1.0000 0.56840  0.49510  0.41560  Biso   1.000  C
  C18      1.0000 0.43160  0.50490  0.58440  Biso   1.000  C
  H19      1.0000 0.53720  0.45190  0.40190  Biso   1.000  H
  H20      1.0000 0.46280  0.54810  0.59810  Biso   1.000  H
  C19      1.0000 0.54140  0.51940  0.47780  Biso   1.000  C
  C20      1.0000 0.45860  0.48060  0.52220  Biso   1.000  C
  C21      1.0000 0.59560  0.58120  0.49410  Biso   1.000  C
  C22      1.0000 0.40440  0.41880  0.50590  Biso   1.000  C
  H21      1.0000 0.58360  0.59870  0.53610  Biso   1.000  H
  H22      1.0000 0.41640  0.40130  0.46390  Biso   1.000  H
  C23      1.0000 0.66710  0.61790  0.44980  Biso   1.000  C
  C24      1.0000 0.33290  0.38210  0.55020  Biso   1.000  C
  H23      1.0000 0.70080  0.66040  0.46270  Biso   1.000  H
  H24      1.0000 0.29920  0.33960  0.53730  Biso   1.000  H
  C25      1.0000 0.01420  0.46180  0.18060  Biso   1.000  C
  C26      1.0000 0.98580  0.53820  0.81940  Biso   1.000  C
  C27      1.0000 0.91860  0.42510  0.20470  Biso   1.000  C
  C28      1.0000 0.08140  0.57490  0.79530  Biso   1.000  C
  H25      1.0000 0.84070  0.46060  0.21530  Biso   1.000  H
  H26      1.0000 0.15930  0.53940  0.78470  Biso   1.000  H
  C29      1.0000 0.93900  0.33670  0.21290  Biso   1.000  C
  C30      1.0000 0.06100  0.66330  0.78710  Biso   1.000  C
  H27      1.0000 0.87380  0.31310  0.22820  Biso   1.000  H
  H28      1.0000 0.12620  0.68690  0.77180  Biso   1.000  H
  C31      1.0000 0.05050  0.28380  0.19920  Biso   1.000  C
  C32      1.0000 0.94950  0.71620  0.80080  Biso   1.000  C
  H29      1.0000 0.06230  0.22410  0.20560  Biso   1.000  H
  H30      1.0000 0.93770  0.77590  0.79440  Biso   1.000  H
  C33      1.0000 0.14730  0.31680  0.17600  Biso   1.000  C
  C34      1.0000 0.85270  0.68320  0.82400  Biso   1.000  C
  H31      1.0000 0.22490  0.27970  0.16690  Biso   1.000  H
  H32      1.0000 0.77510  0.72030  0.83310  Biso   1.000  H
  C35      1.0000 0.12930  0.40700  0.16580  Biso   1.000  C
  C36      1.0000 0.87070  0.59300  0.83420  Biso   1.000  C
  H33      1.0000 0.19430  0.42990  0.14910  Biso   1.000  H
  H34      1.0000 0.80570  0.57010  0.85090  Biso   1.000  H
  C37      1.0000 0.07470  0.60240  0.09710  Biso   1.000  C
  C38      1.0000 0.92530  0.39760  0.90290  Biso   1.000  C
  C39      1.0000 0.17380  0.63960  0.09790  Biso   1.000  C
  C40      1.0000 0.82620  0.36040  0.90210  Biso   1.000  C
  H35      1.0000 0.20330  0.64880  0.13820  Biso   1.000  H
  H36      1.0000 0.79670  0.35120  0.86180  Biso   1.000  H
  C41      1.0000 0.23090  0.66380  0.03930  Biso   1.000  C
  C42      1.0000 0.76910  0.33620  0.96070  Biso   1.000  C
  H37      1.0000 0.29680  0.68960  0.04070  Biso   1.000  H
  H38      1.0000 0.70320  0.31040  0.95930  Biso   1.000  H
  C43      1.0000 0.18860  0.64930  0.97900  Biso   1.000  C
  C44      1.0000 0.81140  0.35070  0.02100  Biso   1.000  C
  H39      1.0000 0.22590  0.66510  0.93980  Biso   1.000  H
  H40      1.0000 0.77410  0.33490  0.06020  Biso   1.000  H
  C45      1.0000 0.09280  0.61190  0.97800  Biso   1.000  C
  C46      1.0000 0.90720  0.38810  0.02200  Biso   1.000  C
  H41      1.0000 0.06480  0.60160  0.93760  Biso   1.000  H
  H42      1.0000 0.93520  0.39840  0.06240  Biso   1.000  H
  C47      1.0000 0.03500  0.58850  0.03610  Biso   1.000  C
  C48      1.0000 0.96500  0.41150  0.96390  Biso   1.000  C
  H43      1.0000 0.96880  0.56320  0.03400  Biso   1.000  H
  H44      1.0000 0.03120  0.43680  0.96600  Biso   1.000  H
  C49      1.0000 0.05690  0.48420  0.35870  Biso   1.000  C
  C50      1.0000 0.94310  0.51580  0.64130  Biso   1.000  C
  C51      1.0000 0.99710  0.45820  0.41460  Biso   1.000  C
  C52      1.0000 0.00290  0.54180  0.58540  Biso   1.000  C
  H45      1.0000 0.92820  0.49770  0.43050  Biso   1.000  H
  H46      1.0000 0.07180  0.50230  0.56950  Biso   1.000  H
  C53      1.0000 0.03640  0.37560  0.44740  Biso   1.000  C
  C54      1.0000 0.96360  0.62440  0.55260  Biso   1.000  C
  H47      1.0000 0.99450  0.35940  0.48490  Biso   1.000  H
  H48      1.0000 0.00550  0.64060  0.51510  Biso   1.000  H
  C55      1.0000 0.13880  0.31700  0.42400  Biso   1.000  C
  C56      1.0000 0.86120  0.68300  0.57600  Biso   1.000  C
  H49      1.0000 0.16650  0.26100  0.44600  Biso   1.000  H
  H50      1.0000 0.83350  0.73900  0.55400  Biso   1.000  H
  C57      1.0000 0.19860  0.34050  0.36950  Biso   1.000  C
  C58      1.0000 0.80140  0.65950  0.63050  Biso   1.000  C
  H51      1.0000 0.26690  0.30050  0.35380  Biso   1.000  H
  H52      1.0000 0.73310  0.69950  0.64620  Biso   1.000  H
  C59      1.0000 0.15880  0.42480  0.33640  Biso   1.000  C
  C60      1.0000 0.84120  0.57520  0.66360  Biso   1.000  C
  H53      1.0000 0.20150  0.44060  0.29910  Biso   1.000  H
  H54      1.0000 0.79850  0.55940  0.70090  Biso   1.000  H
  C61      1.0000 0.07840  0.65940  0.36340  Biso   1.000  C
  C62      1.0000 0.92160  0.34060  0.63660  Biso   1.000  C
  C63      1.0000 0.01510  0.73920  0.37480  Biso   1.000  C
  C64      1.0000 0.98490  0.26080  0.62520  Biso   1.000  C
  H55      1.0000 0.92950  0.75950  0.36360  Biso   1.000  H
  H56      1.0000 0.07050  0.24050  0.63640  Biso   1.000  H
  C65      1.0000 0.07400  0.79250  0.40270  Biso   1.000  C
  C66      1.0000 0.92600  0.20750  0.59730  Biso   1.000  C
  H57      1.0000 0.02850  0.84860  0.40870  Biso   1.000  H
  H58      1.0000 0.97150  0.15140  0.59130  Biso   1.000  H
  C67      1.0000 0.19690  0.76350  0.42130  Biso   1.000  C
  C68      1.0000 0.80310  0.23650  0.57870  Biso   1.000  C
  H59      1.0000 0.23650  0.79820  0.44130  Biso   1.000  H
  H60      1.0000 0.76350  0.20180  0.55870  Biso   1.000  H
  C69      1.0000 0.26080  0.68290  0.41020  Biso   1.000  C
  C70      1.0000 0.73920  0.31710  0.58980  Biso   1.000  C
  H61      1.0000 0.34580  0.66190  0.42250  Biso   1.000  H
  H62      1.0000 0.65420  0.33810  0.57750  Biso   1.000  H
  C71      1.0000 0.20270  0.63150  0.38120  Biso   1.000  C
  C72      1.0000 0.79730  0.36850  0.61880  Biso   1.000  C
  H63      1.0000 0.24930  0.57630  0.37360  Biso   1.000  H
  H64      1.0000 0.75070  0.42370  0.62640  Biso   1.000  H
  C73      1.0000 0.57340  0.86620  0.10140  Biso   1.000  C
  C74      1.0000 0.42660  0.13380  0.89860  Biso   1.000  C
  C75      1.0000 0.49000  0.82610  0.07930  Biso   1.000  C
  C76      1.0000 0.51000  0.17390  0.92070  Biso   1.000  C
  H65      1.0000 0.51280  0.76590  0.08190  Biso   1.000  H
  H66      1.0000 0.48720  0.23410  0.91810  Biso   1.000  H
  C77      1.0000 0.37300  0.87290  0.05330  Biso   1.000  C
  C78      1.0000 0.62700  0.12710  0.94670  Biso   1.000  C
  H67      1.0000 0.31810  0.84440  0.03820  Biso   1.000  H
  H68      1.0000 0.68190  0.15560  0.96180  Biso   1.000  H
  C79      1.0000 0.33800  0.96060  0.04980  Biso   1.000  C
  C80      1.0000 0.66200  0.03940  0.95020  Biso   1.000  C
  H69      1.0000 0.25910  0.99220  0.03230  Biso   1.000  H
  H70      1.0000 0.74090  0.00780  0.96770  Biso   1.000  H
  C81      1.0000 0.41910  0.00230  0.07210  Biso   1.000  C
  C82      1.0000 0.58090  0.99770  0.92790  Biso   1.000  C
  H71      1.0000 0.39460  0.06240  0.07020  Biso   1.000  H
  H72      1.0000 0.60540  0.93760  0.92980  Biso   1.000  H
  C83      1.0000 0.53780  0.95560  0.09760  Biso   1.000  C
  C84      1.0000 0.46220  0.04440  0.90240  Biso   1.000  C
  H73      1.0000 0.59310  0.98440  0.11210  Biso   1.000  H
  H74      1.0000 0.40690  0.01560  0.88790  Biso   1.000  H
  C85      1.0000 0.84110  0.83830  0.08090  Biso   1.000  C
  C86      1.0000 0.15890  0.16170  0.91910  Biso   1.000  C
  C87      1.0000 0.92620  0.88000  0.10040  Biso   1.000  C
  C88      1.0000 0.07380  0.12000  0.89960  Biso   1.000  C
  H75      1.0000 0.92460  0.89490  0.14310  Biso   1.000  H
  H76      1.0000 0.07540  0.10510  0.85690  Biso   1.000  H
  C89      1.0000 0.01500  0.89980  0.05530  Biso   1.000  C
  C90      1.0000 0.98500  0.10020  0.94470  Biso   1.000  C
  H77      1.0000 0.07320  0.92690  0.06880  Biso   1.000  H
  H78      1.0000 0.92680  0.07310  0.93120  Biso   1.000  H
  C91      1.0000 0.01760  0.88000  0.99240  Biso   1.000  C
  C92      1.0000 0.98240  0.12000  0.00760  Biso   1.000  C
  H79      1.0000 0.07620  0.89450  0.96280  Biso   1.000  H
  H80      1.0000 0.92380  0.10550  0.03720  Biso   1.000  H
  C93      1.0000 0.93450  0.83920  0.97270  Biso   1.000  C
  C94      1.0000 0.06550  0.16080  0.02730  Biso   1.000  C
  H81      1.0000 0.93700  0.82500  0.92970  Biso   1.000  H
  H82      1.0000 0.06300  0.17500  0.07030  Biso   1.000  H
  C95      1.0000 0.84630  0.81850  0.01610  Biso   1.000  C
  C96      1.0000 0.15370  0.18150  0.98390  Biso   1.000  C
  H83      1.0000 0.78940  0.79090  0.00170  Biso   1.000  H
  H84      1.0000 0.21060  0.20910  0.99830  Biso   1.000  H
  C97      1.0000 0.51000  0.80110  0.25940  Biso   1.000  C
  C98      1.0000 0.49000  0.19890  0.74060  Biso   1.000  C
  C99      1.0000 0.47260  0.72770  0.25100  Biso   1.000  C
  C100     1.0000 0.52740  0.27230  0.74900  Biso   1.000  C
  H85      1.0000 0.53120  0.67360  0.25730  Biso   1.000  H
  H86      1.0000 0.46880  0.32640  0.74270  Biso   1.000  H
  C101     1.0000 0.34850  0.73450  0.23340  Biso   1.000  C
  C102     1.0000 0.65150  0.26550  0.76660  Biso   1.000  C
  H87      1.0000 0.32430  0.68460  0.22880  Biso   1.000  H
  H88      1.0000 0.67570  0.31540  0.77120  Biso   1.000  H
  C103     1.0000 0.26250  0.81240  0.22270  Biso   1.000  C
  C104     1.0000 0.73750  0.18760  0.77730  Biso   1.000  C
  H89      1.0000 0.18040  0.81610  0.20960  Biso   1.000  H
  H90      1.0000 0.81960  0.18390  0.79040  Biso   1.000  H
  C105     1.0000 0.29580  0.88620  0.23130  Biso   1.000  C
  C106     1.0000 0.70420  0.11380  0.76870  Biso   1.000  C
  H91      1.0000 0.23570  0.93970  0.22490  Biso   1.000  H
  H92      1.0000 0.76430  0.06030  0.77510  Biso   1.000  H
  C107     1.0000 0.42090  0.88130  0.24960  Biso   1.000  C
  C108     1.0000 0.57910  0.11870  0.75040  Biso   1.000  C
  H93      1.0000 0.44360  0.93140  0.25520  Biso   1.000  H
  H94      1.0000 0.55640  0.06860  0.74480  Biso   1.000  H
  C109     1.0000 0.66210  0.85770  0.34820  Biso   1.000  C
  C110     1.0000 0.33790  0.14230  0.65180  Biso   1.000  C
  C111     1.0000 0.58720  0.84590  0.40220  Biso   1.000  C
  C112     1.0000 0.41280  0.15410  0.59780  Biso   1.000  C
  H95      1.0000 0.53550  0.80890  0.40230  Biso   1.000  H
  H96      1.0000 0.46450  0.19110  0.59770  Biso   1.000  H
  C113     1.0000 0.59060  0.89090  0.45700  Biso   1.000  C
  C114     1.0000 0.40940  0.10910  0.54300  Biso   1.000  C
  H97      1.0000 0.54260  0.88200  0.49400  Biso   1.000  H
  H98      1.0000 0.45740  0.11800  0.50600  Biso   1.000  H
  C115     1.0000 0.66340  0.94730  0.45670  Biso   1.000  C
  C116     1.0000 0.33660  0.05270  0.54330  Biso   1.000  C
  H99      1.0000 0.66280  0.97740  0.49290  Biso   1.000  H
  H100     1.0000 0.33720  0.02260  0.50710  Biso   1.000  H
  C117     1.0000 0.73580  0.95970  0.40460  Biso   1.000  C
  C118     1.0000 0.26420  0.04030  0.59540  Biso   1.000  C
  H101     1.0000 0.78480  0.99850  0.40450  Biso   1.000  H
  H102     1.0000 0.21520  0.00150  0.59550  Biso   1.000  H
  C119     1.0000 0.73730  0.91440  0.35110  Biso   1.000  C
  C120     1.0000 0.26270  0.08560  0.64890  Biso   1.000  C
  H103     1.0000 0.79000  0.92200  0.31590  Biso   1.000  H
  H104     1.0000 0.21000  0.07800  0.68410  Biso   1.000  H
  B1       1.0000 0.91480  0.05670  0.21660  Biso   1.000  B
  B2       1.0000 0.08520  0.94330  0.78340  Biso   1.000  B
  B3       1.0000 0.47360  0.43500  0.25200  Biso   1.000  B
  B4       1.0000 0.52640  0.56500  0.74800  Biso   1.000  B
  F1       1.0000 0.96140  0.96730  0.24530  Biso   1.000  F
  F2       1.0000 0.03860  0.03270  0.75470  Biso   1.000  F
  F3       1.0000 0.01900  0.06650  0.19140  Biso   1.000  F
  F4       1.0000 0.98100  0.93350  0.80860  Biso   1.000  F
  F5       1.0000 0.87000  0.10760  0.26010  Biso   1.000  F
  F6       1.0000 0.13000  0.89240  0.73990  Biso   1.000  F
  F7       1.0000 0.82550  0.05190  0.17520  Biso   1.000  F
  F8       1.0000 0.17450  0.94810  0.82480  Biso   1.000  F
  F9       1.0000 0.59230  0.42490  0.24220  Biso   1.000  F
  F10      1.0000 0.40770  0.57510  0.75780  Biso   1.000  F
  F11      1.0000 0.40820  0.51690  0.24450  Biso   1.000  F
  F12      1.0000 0.59180  0.48310  0.75550  Biso   1.000  F
  F13      1.0000 0.42090  0.40620  0.20210  Biso   1.000  F
  F14      1.0000 0.57910  0.59380  0.79790  Biso   1.000  F
  F15      1.0000 0.45200  0.39470  0.31160  Biso   1.000  F
  F16      1.0000 0.54800  0.60530  0.68840  Biso   1.000  F
  C121     1.0000 0.88620  0.92370  0.64480  Biso   1.000  C
  C122     1.0000 0.11380  0.07630  0.35520  Biso   1.000  C
  H105     1.0000 0.94900  0.86790  0.65110  Biso   1.000  H
  H106     1.0000 0.05100  0.13210  0.34890  Biso   1.000  H
  H107     1.0000 0.89970  0.95610  0.67980  Biso   1.000  H
  H108     1.0000 0.10030  0.04390  0.32020  Biso   1.000  H
  Cl1      1.0000 0.91390  0.97900  0.56880  Biso   1.000  Cl
  Cl2      1.0000 0.08610  0.02100  0.43120  Biso   1.000  Cl
  Cl3      1.0000 0.73800  0.90600  0.65470  Biso   1.000  Cl
  Cl4      1.0000 0.26200  0.09400  0.34530  Biso   1.000  Cl
  H109     1.0000 0.90490  0.96500  0.67110  Biso   1.000  H
  H110     1.0000 0.09510  0.03500  0.32890  Biso   1.000  H
  H111     1.0000 0.92620  0.86600  0.66670  Biso   1.000  H
  H112     1.0000 0.07380  0.13400  0.33330  Biso   1.000  H
  Cl5      1.0000 0.95150  0.93590  0.56720  Biso   1.000  Cl
  Cl6      1.0000 0.04850  0.06410  0.43280  Biso   1.000  Cl
  Cl7      1.0000 0.72370  0.93860  0.64270  Biso   1.000  Cl
  Cl8      1.0000 0.27630  0.06140  0.35730  Biso   1.000  Cl
  C123     1.0000 0.29910  0.76680  0.64180  Biso   1.000  C
  C124     1.0000 0.70090  0.23320  0.35820  Biso   1.000  C
  H113     1.0000 0.25510  0.82060  0.65830  Biso   1.000  H
  H114     1.0000 0.74490  0.17940  0.34170  Biso   1.000  H
  H115     1.0000 0.35130  0.72930  0.67760  Biso   1.000  H
  H116     1.0000 0.64870  0.27070  0.32240  Biso   1.000  H
  Cl9      1.0000 0.39350  0.78790  0.57650  Biso   1.000  Cl
  Cl10     1.0000 0.60650  0.21210  0.42350  Biso   1.000  Cl
  Cl11     1.0000 0.18850  0.71640  0.61520  Biso   1.000  Cl
  Cl12     1.0000 0.81150  0.28360  0.38480  Biso   1.000  Cl
  C125     1.0000 0.42940  0.80510  0.81380  Biso   1.000  C
  C126     1.0000 0.57060  0.19490  0.18620  Biso   1.000  C
  H117     1.0000 0.44370  0.75030  0.79610  Biso   1.000  H
  H118     1.0000 0.55630  0.24970  0.20390  Biso   1.000  H
  H119     1.0000 0.34010  0.83520  0.80860  Biso   1.000  H
  H120     1.0000 0.65990  0.16480  0.19140  Biso   1.000  H
  Cl13     1.0000 0.51650  0.86630  0.77100  Biso   1.000  Cl
  Cl14     1.0000 0.48350  0.13370  0.22900  Biso   1.000  Cl
  Cl15     1.0000 0.47230  0.78640  0.89740  Biso   1.000  Cl
  Cl16     1.0000 0.52770  0.21360  0.10260  Biso   1.000  Cl
