data_image0
_cell_length_a       12.789
_cell_length_b       15.139
_cell_length_c       16.192
_cell_angle_alpha    110.59
_cell_angle_beta     91.36
_cell_angle_gamma    107.43

_symmetry_space_group_name_H-M    "P 1"
_symmetry_int_tables_number       1

loop_
  _symmetry_equiv_pos_as_xyz
  'x, y, z'

loop_
  _atom_site_label
  _atom_site_occupancy
  _atom_site_fract_x
  _atom_site_fract_y
  _atom_site_fract_z
  _atom_site_thermal_displace_type
  _atom_site_B_iso_or_equiv
  _atom_site_type_symbol
  N1       1.0000 0.06530  0.16280  0.43510  Biso   1.000  N
  N2       1.0000 0.93470  0.83720  0.56490  Biso   1.000  N
  C1       1.0000 0.15460  0.22870  0.49100  Biso   1.000  C
  C2       1.0000 0.84540  0.77130  0.50900  Biso   1.000  C
  C3       1.0000 0.23580  0.20600  0.52850  Biso   1.000  C
  C4       1.0000 0.76420  0.79400  0.47150  Biso   1.000  C
  C5       1.0000 0.22360  0.10570  0.50660  Biso   1.000  C
  C6       1.0000 0.77640  0.89430  0.49340  Biso   1.000  C
  C7       1.0000 0.13140  0.03570  0.44780  Biso   1.000  C
  C8       1.0000 0.86860  0.96430  0.55220  Biso   1.000  C
  C9       1.0000 0.05440  0.06700  0.41500  Biso   1.000  C
  C10      1.0000 0.94560  0.93300  0.58500  Biso   1.000  C
  C11      1.0000 0.30590  0.07590  0.54200  Biso   1.000  C
  C12      1.0000 0.69410  0.92410  0.45800  Biso   1.000  C
  C13      1.0000 0.37410  0.05190  0.57030  Biso   1.000  C
  C14      1.0000 0.62590  0.94810  0.42970  Biso   1.000  C
  N3       1.0000 0.70990  0.83970  0.70650  Biso   1.000  N
  N4       1.0000 0.29010  0.16030  0.29350  Biso   1.000  N
  C15      1.0000 0.61530  0.78750  0.64800  Biso   1.000  C
  C16      1.0000 0.38470  0.21250  0.35200  Biso   1.000  C
  C17      1.0000 0.54940  0.83150  0.61900  Biso   1.000  C
  C18      1.0000 0.45060  0.16850  0.38100  Biso   1.000  C
  C19      1.0000 0.58180  0.93540  0.65200  Biso   1.000  C
  C20      1.0000 0.41820  0.06460  0.34800  Biso   1.000  C
  C21      1.0000 0.67900  0.99100  0.71320  Biso   1.000  C
  C22      1.0000 0.32100  0.00900  0.28680  Biso   1.000  C
  C23      1.0000 0.73750  0.93890  0.73800  Biso   1.000  C
  C24      1.0000 0.26250  0.06110  0.26200  Biso   1.000  C
  C25      1.0000 0.51320  0.98370  0.62360  Biso   1.000  C
  C26      1.0000 0.48680  0.01630  0.37640  Biso   1.000  C
  C27      1.0000 0.45020  0.01640  0.59930  Biso   1.000  C
  C28      1.0000 0.54980  0.98360  0.40070  Biso   1.000  C
  N5       1.0000 0.86100  0.22570  0.52130  Biso   1.000  N
  N6       1.0000 0.13900  0.77430  0.47870  Biso   1.000  N
  C29      1.0000 0.75250  0.21010  0.51610  Biso   1.000  C
  C30      1.0000 0.24750  0.78990  0.48390  Biso   1.000  C
  C31      1.0000 0.69180  0.21540  0.58530  Biso   1.000  C
  C32      1.0000 0.30820  0.78460  0.41470  Biso   1.000  C
  C33      1.0000 0.74890  0.24220  0.66990  Biso   1.000  C
  C34      1.0000 0.25110  0.75780  0.33010  Biso   1.000  C
  C35      1.0000 0.86250  0.25640  0.67660  Biso   1.000  C
  C36      1.0000 0.13750  0.74360  0.32340  Biso   1.000  C
  C37      1.0000 0.91380  0.24740  0.60240  Biso   1.000  C
  C38      1.0000 0.08620  0.75260  0.39760  Biso   1.000  C
  C39      1.0000 0.69050  0.24900  0.74560  Biso   1.000  C
  C40      1.0000 0.30950  0.75100  0.25440  Biso   1.000  C
  C41      1.0000 0.64090  0.25200  0.80830  Biso   1.000  C
  C42      1.0000 0.35910  0.74800  0.19170  Biso   1.000  C
  N7       1.0000 0.32450  0.23900  0.13460  Biso   1.000  N
  N8       1.0000 0.67550  0.76100  0.86540  Biso   1.000  N
  C43      1.0000 0.28430  0.21980  0.05200  Biso   1.000  C
  C44      1.0000 0.71570  0.78020  0.94800  Biso   1.000  C
  C45      1.0000 0.34590  0.22570  0.98500  Biso   1.000  C
  C46      1.0000 0.65410  0.77430  0.01500  Biso   1.000  C
  C47      1.0000 0.46120  0.25110  0.00510  Biso   1.000  C
  C48      1.0000 0.53880  0.74890  0.99490  Biso   1.000  C
  C49      1.0000 0.50550  0.27320  0.09220  Biso   1.000  C
  C50      1.0000 0.49450  0.72680  0.90780  Biso   1.000  C
  C51      1.0000 0.43600  0.26810  0.15490  Biso   1.000  C
  C52      1.0000 0.56400  0.73190  0.84510  Biso   1.000  C
  C53      1.0000 0.52850  0.25450  0.93590  Biso   1.000  C
  C54      1.0000 0.47150  0.74550  0.06410  Biso   1.000  C
  C55      1.0000 0.58140  0.25330  0.87520  Biso   1.000  C
  C56      1.0000 0.41860  0.74670  0.12480  Biso   1.000  C
  N9       1.0000 0.92970  0.81030  0.82280  Biso   1.000  N
  N10      1.0000 0.07030  0.18970  0.17720  Biso   1.000  N
  C57      1.0000 0.97130  0.74990  0.84580  Biso   1.000  C
  C58      1.0000 0.02870  0.25010  0.15420  Biso   1.000  C
  C59      1.0000 0.07030  0.78050  0.89960  Biso   1.000  C
  C60      1.0000 0.92970  0.21950  0.10040  Biso   1.000  C
  C61      1.0000 0.13360  0.88220  0.93300  Biso   1.000  C
  C62      1.0000 0.86640  0.11780  0.06700  Biso   1.000  C
  C63      1.0000 0.09420  0.94540  0.90720  Biso   1.000  C
  C64      1.0000 0.90580  0.05460  0.09280  Biso   1.000  C
  C65      1.0000 0.99310  0.90600  0.85450  Biso   1.000  C
  C66      1.0000 0.00690  0.09400  0.14550  Biso   1.000  C
  C67      1.0000 0.23900  0.91850  0.98830  Biso   1.000  C
  C68      1.0000 0.76100  0.08150  0.01170  Biso   1.000  C
  C69      1.0000 0.32700  0.94770  0.03460  Biso   1.000  C
  C70      1.0000 0.67300  0.05230  0.96540  Biso   1.000  C
  N11      1.0000 0.81660  0.14070  0.30960  Biso   1.000  N
  N12      1.0000 0.18340  0.85930  0.69040  Biso   1.000  N
  C71      1.0000 0.76660  0.19450  0.28460  Biso   1.000  C
  C72      1.0000 0.23340  0.80550  0.71540  Biso   1.000  C
  C73      1.0000 0.67250  0.15730  0.22530  Biso   1.000  C
  C74      1.0000 0.32750  0.84270  0.77470  Biso   1.000  C
  C75      1.0000 0.61790  0.05370  0.18860  Biso   1.000  C
  C76      1.0000 0.38210  0.94630  0.81140  Biso   1.000  C
  C77      1.0000 0.66730  0.99620  0.21530  Biso   1.000  C
  C78      1.0000 0.33270  0.00380  0.78470  Biso   1.000  C
  C79      1.0000 0.76520  0.04070  0.27220  Biso   1.000  C
  C80      1.0000 0.23480  0.95930  0.72780  Biso   1.000  C
  C81      1.0000 0.51410  0.01310  0.13250  Biso   1.000  C
  C82      1.0000 0.48590  0.98690  0.86750  Biso   1.000  C
  C83      1.0000 0.42630  0.98270  0.08520  Biso   1.000  C
  C84      1.0000 0.57370  0.01730  0.91480  Biso   1.000  C
  Cu1      1.0000 0.94270  0.21010  0.40960  Biso   1.000  Cu
  Cu2      1.0000 0.05730  0.78990  0.59040  Biso   1.000  Cu
  Cu3      1.0000 0.77430  0.76330  0.76280  Biso   1.000  Cu
  Cu4      1.0000 0.22570  0.23670  0.23720  Biso   1.000  Cu
  N13      1.0000 0.00970  0.34570  0.40570  Biso   1.000  N
  N14      1.0000 0.99030  0.65430  0.59430  Biso   1.000  N
  C85      1.0000 0.04340  0.41920  0.39750  Biso   1.000  C
  C86      1.0000 0.95660  0.58080  0.60250  Biso   1.000  C
  C87      1.0000 0.08510  0.51780  0.38960  Biso   1.000  C
  C88      1.0000 0.91490  0.48220  0.61040  Biso   1.000  C
  N15      1.0000 0.71200  0.62200  0.67980  Biso   1.000  N
  N16      1.0000 0.28800  0.37800  0.32020  Biso   1.000  N
  C89      1.0000 0.65820  0.54250  0.63930  Biso   1.000  C
  C90      1.0000 0.34180  0.45750  0.36070  Biso   1.000  C
  C91      1.0000 0.58680  0.43940  0.59000  Biso   1.000  C
  C92      1.0000 0.41320  0.56060  0.41000  Biso   1.000  C
  P1       1.0000 0.94160  0.80570  0.16540  Biso   1.000  P
  P2       1.0000 0.05840  0.19430  0.83460  Biso   1.000  P
  F1       1.0000 0.86600  0.86830  0.19440  Biso   1.000  F
  F2       1.0000 0.13400  0.13170  0.80560  Biso   1.000  F
  F3       1.0000 0.84370  0.71630  0.09670  Biso   1.000  F
  F4       1.0000 0.15630  0.28370  0.90330  Biso   1.000  F
  F5       1.0000 0.91790  0.75770  0.23400  Biso   1.000  F
  F6       1.0000 0.08210  0.24230  0.76600  Biso   1.000  F
  F7       1.0000 0.04190  0.88640  0.23040  Biso   1.000  F
  F8       1.0000 0.95810  0.11360  0.76960  Biso   1.000  F
  F9       1.0000 0.95820  0.84950  0.08740  Biso   1.000  F
  F10      1.0000 0.04180  0.15050  0.91260  Biso   1.000  F
  F11      1.0000 0.02730  0.74530  0.12740  Biso   1.000  F
  F12      1.0000 0.97270  0.25470  0.87260  Biso   1.000  F
  F13      1.0000 0.81600  0.82000  0.19900  Biso   1.000  F
  F14      1.0000 0.18400  0.18000  0.80100  Biso   1.000  F
  F15      1.0000 0.91900  0.70400  0.17300  Biso   1.000  F
  F16      1.0000 0.08100  0.29600  0.82700  Biso   1.000  F
  F17      1.0000 0.96000  0.83100  0.28800  Biso   1.000  F
  F18      1.0000 0.04000  0.16900  0.71200  Biso   1.000  F
  F19      1.0000 0.89700  0.76000  0.06300  Biso   1.000  F
  F20      1.0000 0.10300  0.24000  0.93700  Biso   1.000  F
  F21      1.0000 0.97200  0.92900  0.23100  Biso   1.000  F
  F22      1.0000 0.02800  0.07100  0.76900  Biso   1.000  F
  F23      1.0000 0.06600  0.83600  0.18000  Biso   1.000  F
  F24      1.0000 0.93400  0.16400  0.82000  Biso   1.000  F
  P3       1.0000 0.28960  0.53380  0.64860  Biso   1.000  P
  P4       1.0000 0.71040  0.46620  0.35140  Biso   1.000  P
  F25      1.0000 0.38000  0.52000  0.70620  Biso   1.000  F
  F26      1.0000 0.62000  0.48000  0.29380  Biso   1.000  F
  F27      1.0000 0.19500  0.44160  0.65220  Biso   1.000  F
  F28      1.0000 0.80500  0.55840  0.34780  Biso   1.000  F
  F29      1.0000 0.38250  0.62650  0.64780  Biso   1.000  F
  F30      1.0000 0.61750  0.37350  0.35220  Biso   1.000  F
  F31      1.0000 0.32350  0.46000  0.56590  Biso   1.000  F
  F32      1.0000 0.67650  0.54000  0.43410  Biso   1.000  F
  F33      1.0000 0.20680  0.55300  0.58870  Biso   1.000  F
  F34      1.0000 0.79320  0.44700  0.41130  Biso   1.000  F
  F35      1.0000 0.26430  0.60820  0.73540  Biso   1.000  F
  F36      1.0000 0.73570  0.39180  0.26460  Biso   1.000  F
  P5       1.0000 0.30480  0.54410  0.62050  Biso   1.000  P
  P6       1.0000 0.69520  0.45590  0.37950  Biso   1.000  P
  F37      1.0000 0.17600  0.51700  0.60990  Biso   1.000  F
  F38      1.0000 0.82400  0.48300  0.39010  Biso   1.000  F
  F39      1.0000 0.31900  0.61940  0.71660  Biso   1.000  F
  F40      1.0000 0.68100  0.38060  0.28340  Biso   1.000  F
  F41      1.0000 0.30100  0.45700  0.65200  Biso   1.000  F
  F42      1.0000 0.69900  0.54300  0.34800  Biso   1.000  F
  F43      1.0000 0.29150  0.47190  0.52090  Biso   1.000  F
  F44      1.0000 0.70850  0.52810  0.47910  Biso   1.000  F
  F45      1.0000 0.31400  0.62710  0.58250  Biso   1.000  F
  F46      1.0000 0.68600  0.37290  0.41750  Biso   1.000  F
  F47      1.0000 0.43410  0.57300  0.62430  Biso   1.000  F
  F48      1.0000 0.56590  0.42700  0.37570  Biso   1.000  F
  C93      1.0000 0.08800  0.51000  0.83800  Biso   1.000  C
  C94      1.0000 0.91200  0.49000  0.16200  Biso   1.000  C
  C95      1.0000 0.00800  0.51400  0.87400  Biso   1.000  C
  C96      1.0000 0.99200  0.48600  0.12600  Biso   1.000  C
  O1       1.0000 0.91750  0.51290  0.84300  Biso   1.000  O
  O2       1.0000 0.08250  0.48710  0.15700  Biso   1.000  O
  C97      1.0000 0.82900  0.50900  0.89600  Biso   1.000  C
  C98      1.0000 0.17100  0.49100  0.10400  Biso   1.000  C
  C99      1.0000 0.73800  0.51700  0.86800  Biso   1.000  C
  C100     1.0000 0.26200  0.48300  0.13200  Biso   1.000  C
  N17      1.0000 0.37500  0.39000  0.81500  Biso   1.000  N
  N18      1.0000 0.62500  0.61000  0.18500  Biso   1.000  N
  C101     1.0000 0.41400  0.34200  0.75800  Biso   1.000  C
  C102     1.0000 0.58600  0.65800  0.24200  Biso   1.000  C
  C103     1.0000 0.47300  0.30800  0.68600  Biso   1.000  C
  C104     1.0000 0.52700  0.69200  0.31400  Biso   1.000  C
  H1       1.0000 0.16350  0.29740  0.50650  Biso   1.000  H
  H2       1.0000 0.83650  0.70260  0.49350  Biso   1.000  H
  H3       1.0000 0.29820  0.25710  0.56810  Biso   1.000  H
  H4       1.0000 0.70180  0.74290  0.43190  Biso   1.000  H
  H5       1.0000 0.12110  0.96650  0.43000  Biso   1.000  H
  H6       1.0000 0.87890  0.03350  0.57000  Biso   1.000  H
  H7       1.0000 0.99050  0.00170  0.37610  Biso   1.000  H
  H8       1.0000 0.00950  0.99830  0.62390  Biso   1.000  H
  H9       1.0000 0.59290  0.71660  0.62560  Biso   1.000  H
  H10      1.0000 0.40710  0.28340  0.37440  Biso   1.000  H
  H11      1.0000 0.48370  0.79180  0.57770  Biso   1.000  H
  H12      1.0000 0.51630  0.20820  0.42230  Biso   1.000  H
  H13      1.0000 0.70380  0.06200  0.73670  Biso   1.000  H
  H14      1.0000 0.29620  0.93800  0.26330  Biso   1.000  H
  H15      1.0000 0.80220  0.97660  0.78070  Biso   1.000  H
  H16      1.0000 0.19780  0.02340  0.21930  Biso   1.000  H
  H17      1.0000 0.71360  0.19370  0.45920  Biso   1.000  H
  H18      1.0000 0.28640  0.80630  0.54080  Biso   1.000  H
  H19      1.0000 0.61400  0.20150  0.57620  Biso   1.000  H
  H20      1.0000 0.38600  0.79850  0.42380  Biso   1.000  H
  H21      1.0000 0.90380  0.27230  0.73240  Biso   1.000  H
  H22      1.0000 0.09620  0.72770  0.26760  Biso   1.000  H
  H23      1.0000 0.99090  0.25690  0.60840  Biso   1.000  H
  H24      1.0000 0.00910  0.74310  0.39160  Biso   1.000  H
  H25      1.0000 0.20620  0.20040  0.03800  Biso   1.000  H
  H26      1.0000 0.79380  0.79960  0.96200  Biso   1.000  H
  H27      1.0000 0.31220  0.21300  0.92730  Biso   1.000  H
  H28      1.0000 0.68780  0.78700  0.07270  Biso   1.000  H
  H29      1.0000 0.58320  0.29170  0.10810  Biso   1.000  H
  H30      1.0000 0.41680  0.70830  0.89190  Biso   1.000  H
  H31      1.0000 0.46720  0.28570  0.21460  Biso   1.000  H
  H32      1.0000 0.53280  0.71430  0.78540  Biso   1.000  H
  H33      1.0000 0.92940  0.68070  0.82350  Biso   1.000  H
  H34      1.0000 0.07060  0.31930  0.17650  Biso   1.000  H
  H35      1.0000 0.09530  0.73380  0.91370  Biso   1.000  H
  H36      1.0000 0.90470  0.26620  0.08630  Biso   1.000  H
  H37      1.0000 0.13590  0.01430  0.92540  Biso   1.000  H
  H38      1.0000 0.86410  0.98570  0.07460  Biso   1.000  H
  H39      1.0000 0.96590  0.95100  0.83930  Biso   1.000  H
  H40      1.0000 0.03410  0.04900  0.16070  Biso   1.000  H
  H41      1.0000 0.79950  0.26510  0.31050  Biso   1.000  H
  H42      1.0000 0.20050  0.73490  0.68950  Biso   1.000  H
  H43      1.0000 0.64410  0.20090  0.20880  Biso   1.000  H
  H44      1.0000 0.35590  0.79910  0.79120  Biso   1.000  H
  H45      1.0000 0.63310  0.92580  0.19400  Biso   1.000  H
  H46      1.0000 0.36690  0.07420  0.80600  Biso   1.000  H
  H47      1.0000 0.79930  0.99890  0.28620  Biso   1.000  H
  H48      1.0000 0.20070  0.00110  0.71380  Biso   1.000  H
  H49      1.0000 0.02340  0.54290  0.38670  Biso   1.000  H
  H50      1.0000 0.97660  0.45710  0.61330  Biso   1.000  H
  H51      1.0000 0.11960  0.51100  0.33520  Biso   1.000  H
  H52      1.0000 0.88040  0.48900  0.66480  Biso   1.000  H
  H53      1.0000 0.14010  0.56480  0.44160  Biso   1.000  H
  H54      1.0000 0.85990  0.43520  0.55840  Biso   1.000  H
  H55      1.0000 0.57930  0.40130  0.62870  Biso   1.000  H
  H56      1.0000 0.42070  0.59870  0.37130  Biso   1.000  H
  H57      1.0000 0.61970  0.40880  0.53790  Biso   1.000  H
  H58      1.0000 0.38030  0.59120  0.46210  Biso   1.000  H
  H59      1.0000 0.51360  0.43900  0.57020  Biso   1.000  H
  H60      1.0000 0.48640  0.56100  0.42980  Biso   1.000  H
  H61      1.0000 0.14580  0.50990  0.87860  Biso   1.000  H
  H62      1.0000 0.85420  0.49010  0.12140  Biso   1.000  H
  H63      1.0000 0.11590  0.56760  0.82030  Biso   1.000  H
  H64      1.0000 0.88410  0.43240  0.17970  Biso   1.000  H
  H65      1.0000 0.06810  0.44820  0.78420  Biso   1.000  H
  H66      1.0000 0.93190  0.55180  0.21580  Biso   1.000  H
  H67      1.0000 0.03460  0.57650  0.92750  Biso   1.000  H
  H68      1.0000 0.96540  0.42350  0.07250  Biso   1.000  H
  H69      1.0000 0.98990  0.45880  0.89540  Biso   1.000  H
  H70      1.0000 0.01010  0.54120  0.10460  Biso   1.000  H
  H71      1.0000 0.81020  0.44470  0.90470  Biso   1.000  H
  H72      1.0000 0.18980  0.55530  0.09530  Biso   1.000  H
  H73      1.0000 0.85890  0.56280  0.95560  Biso   1.000  H
  H74      1.0000 0.14110  0.43720  0.04440  Biso   1.000  H
  H75      1.0000 0.68970  0.52220  0.91430  Biso   1.000  H
  H76      1.0000 0.31030  0.47780  0.08570  Biso   1.000  H
  H77      1.0000 0.69970  0.45840  0.81420  Biso   1.000  H
  H78      1.0000 0.30030  0.54160  0.18580  Biso   1.000  H
  H79      1.0000 0.75490  0.57740  0.85360  Biso   1.000  H
  H80      1.0000 0.24510  0.42260  0.14640  Biso   1.000  H
