data_image0
_cell_length_a       8.9527
_cell_length_b       14.0753
_cell_length_c       14.7257
_cell_angle_alpha    92.329
_cell_angle_beta     97.681
_cell_angle_gamma    90.567

_symmetry_space_group_name_H-M    "P 1"
_symmetry_int_tables_number       1

loop_
  _symmetry_equiv_pos_as_xyz
  'x, y, z'

loop_
  _atom_site_label
  _atom_site_occupancy
  _atom_site_fract_x
  _atom_site_fract_y
  _atom_site_fract_z
  _atom_site_thermal_displace_type
  _atom_site_B_iso_or_equiv
  _atom_site_type_symbol
  I1       1.0000 0.61311  0.86549  0.13684  Biso   1.000  I
  I2       1.0000 0.38689  0.13451  0.86316  Biso   1.000  I
  I3       1.0000 0.93199  0.62178  0.15922  Biso   1.000  I
  I4       1.0000 0.06801  0.37822  0.84078  Biso   1.000  I
  I5       1.0000 0.64614  0.68716  0.38849  Biso   1.000  I
  I6       1.0000 0.35386  0.31284  0.61151  Biso   1.000  I
  I7       1.0000 0.03724  0.88105  0.34536  Biso   1.000  I
  I8       1.0000 0.96276  0.11895  0.65464  Biso   1.000  I
  Cu1      1.0000 0.89982  0.81371  0.18518  Biso   1.000  Cu
  Cu2      1.0000 0.10018  0.18629  0.81482  Biso   1.000  Cu
  Cu3      1.0000 0.67038  0.69478  0.20490  Biso   1.000  Cu
  Cu4      1.0000 0.32962  0.30522  0.79510  Biso   1.000  Cu
  Cu5      1.0000 0.91751  0.69744  0.32724  Biso   1.000  Cu
  Cu6      1.0000 0.08249  0.30256  0.67276  Biso   1.000  Cu
  Cu7      1.0000 0.74071  0.84744  0.32250  Biso   1.000  Cu
  Cu8      1.0000 0.25929  0.15256  0.67750  Biso   1.000  Cu
  C1       1.0000 0.05130  0.61710  0.50280  Biso   1.000  C
  C2       1.0000 0.94870  0.38290  0.49720  Biso   1.000  C
  H1       1.0000 0.96340  0.62720  0.52870  Biso   1.000  H
  H2       1.0000 0.03660  0.37280  0.47130  Biso   1.000  H
  C3       1.0000 0.20840  0.60740  0.40860  Biso   1.000  C
  C4       1.0000 0.79160  0.39260  0.59140  Biso   1.000  C
  H3       1.0000 0.25220  0.60990  0.35480  Biso   1.000  H
  H4       1.0000 0.74780  0.39010  0.64520  Biso   1.000  H
  C5       1.0000 0.27920  0.58140  0.48910  Biso   1.000  C
  C6       1.0000 0.72080  0.41860  0.51090  Biso   1.000  C
  H5       1.0000 0.37880  0.56220  0.50100  Biso   1.000  H
  H6       1.0000 0.62120  0.43780  0.49900  Biso   1.000  H
  C7       1.0000 0.20750  0.57250  0.64870  Biso   1.000  C
  C8       1.0000 0.79250  0.42750  0.35130  Biso   1.000  C
  H7       1.0000 0.31250  0.55690  0.66590  Biso   1.000  H
  H8       1.0000 0.68750  0.44310  0.33410  Biso   1.000  H
  H9       1.0000 0.14620  0.51920  0.66250  Biso   1.000  H
  H10      1.0000 0.85380  0.48080  0.33750  Biso   1.000  H
  C9       1.0000 0.17040  0.65950  0.70410  Biso   1.000  C
  C10      1.0000 0.82960  0.34050  0.29590  Biso   1.000  C
  C11      1.0000 0.22060  0.74630  0.68770  Biso   1.000  C
  C12      1.0000 0.77940  0.25370  0.31230  Biso   1.000  C
  H11      1.0000 0.28060  0.75220  0.64130  Biso   1.000  H
  H12      1.0000 0.71940  0.24780  0.35870  Biso   1.000  H
  C13      1.0000 0.09160  0.65440  0.77360  Biso   1.000  C
  C14      1.0000 0.90840  0.34560  0.22640  Biso   1.000  C
  H13      1.0000 0.05910  0.59500  0.78930  Biso   1.000  H
  H14      1.0000 0.94090  0.40500  0.21070  Biso   1.000  H
  C15      1.0000 0.96660  0.87640  0.00380  Biso   1.000  C
  C16      1.0000 0.03340  0.12360  0.99620  Biso   1.000  C
  H15      1.0000 0.86540  0.87030  0.97950  Biso   1.000  H
  H16      1.0000 0.13460  0.12970  0.02050  Biso   1.000  H
  C17      1.0000 0.17080  0.87660  0.09610  Biso   1.000  C
  C18      1.0000 0.82920  0.12340  0.90390  Biso   1.000  C
  H17      1.0000 0.23850  0.87100  0.14920  Biso   1.000  H
  H18      1.0000 0.76150  0.12900  0.85080  Biso   1.000  H
  C19      1.0000 0.20780  0.89880  0.01300  Biso   1.000  C
  C20      1.0000 0.79220  0.10120  0.98700  Biso   1.000  C
  H19      1.0000 0.30370  0.91140  0.99840  Biso   1.000  H
  H20      1.0000 0.69630  0.08860  0.00160  Biso   1.000  H
  C21      1.0000 0.05920  0.91070  0.85630  Biso   1.000  C
  C22      1.0000 0.94080  0.08930  0.14370  Biso   1.000  C
  H21      1.0000 0.12300  0.96340  0.84370  Biso   1.000  H
  H22      1.0000 0.87700  0.03660  0.15630  Biso   1.000  H
  H23      1.0000 0.95560  0.92630  0.83440  Biso   1.000  H
  H24      1.0000 0.04440  0.07370  0.16560  Biso   1.000  H
  C23      1.0000 0.10190  0.82190  0.80490  Biso   1.000  C
  C24      1.0000 0.89810  0.17810  0.19510  Biso   1.000  C
  C25      1.0000 0.18720  0.82800  0.73680  Biso   1.000  C
  C26      1.0000 0.81280  0.17200  0.26320  Biso   1.000  C
  H25      1.0000 0.22390  0.88680  0.72250  Biso   1.000  H
  H26      1.0000 0.77610  0.11320  0.27750  Biso   1.000  H
  C27      1.0000 0.05600  0.73350  0.82360  Biso   1.000  C
  C28      1.0000 0.94400  0.26650  0.17640  Biso   1.000  C
  H27      1.0000 0.99920  0.72630  0.87140  Biso   1.000  H
  H28      1.0000 0.00080  0.27370  0.12860  Biso   1.000  H
  C29      1.0000 0.54210  0.50880  0.12920  Biso   1.000  C
  C30      1.0000 0.45790  0.49120  0.87080  Biso   1.000  C
  H29      1.0000 0.63620  0.48090  0.14030  Biso   1.000  H
  H30      1.0000 0.36380  0.51910  0.85970  Biso   1.000  H
  C31      1.0000 0.36500  0.60950  0.12150  Biso   1.000  C
  C32      1.0000 0.63500  0.39050  0.87850  Biso   1.000  C
  H31      1.0000 0.31310  0.66590  0.12670  Biso   1.000  H
  H32      1.0000 0.68690  0.33410  0.87330  Biso   1.000  H
  C33      1.0000 0.30240  0.52530  0.08910  Biso   1.000  C
  C34      1.0000 0.69760  0.47470  0.91090  Biso   1.000  C
  H33      1.0000 0.20130  0.51350  0.06730  Biso   1.000  H
  H34      1.0000 0.79870  0.48650  0.93270  Biso   1.000  H
  C35      1.0000 0.40100  0.35980  0.07350  Biso   1.000  C
  C36      1.0000 0.59900  0.64020  0.92650  Biso   1.000  C
  H35      1.0000 0.49060  0.33920  0.04830  Biso   1.000  H
  H36      1.0000 0.50940  0.66080  0.95170  Biso   1.000  H
  H37      1.0000 0.31530  0.34740  0.02670  Biso   1.000  H
  H38      1.0000 0.68470  0.65260  0.97330  Biso   1.000  H
  C37      1.0000 0.38250  0.30100  0.15470  Biso   1.000  C
  C38      1.0000 0.61750  0.69900  0.84530  Biso   1.000  C
  C39      1.0000 0.39590  0.20460  0.14500  Biso   1.000  C
  C40      1.0000 0.60410  0.79540  0.85500  Biso   1.000  C
  H39      1.0000 0.41740  0.17760  0.08960  Biso   1.000  H
  H40      1.0000 0.58260  0.82240  0.91040  Biso   1.000  H
  C41      1.0000 0.34960  0.33850  0.23760  Biso   1.000  C
  C42      1.0000 0.65040  0.66150  0.76240  Biso   1.000  C
  H41      1.0000 0.33930  0.40390  0.24580  Biso   1.000  H
  H42      1.0000 0.66070  0.59610  0.75420  Biso   1.000  H
  C43      1.0000 0.50290  0.98120  0.35850  Biso   1.000  C
  C44      1.0000 0.49710  0.01880  0.64150  Biso   1.000  C
  H43      1.0000 0.43220  0.94480  0.31950  Biso   1.000  H
  H44      1.0000 0.56780  0.05520  0.68050  Biso   1.000  H
  C45      1.0000 0.70670  0.02960  0.43720  Biso   1.000  C
  C46      1.0000 0.29330  0.97040  0.56280  Biso   1.000  C
  H45      1.0000 0.80660  0.03280  0.46440  Biso   1.000  H
  H46      1.0000 0.19340  0.96720  0.53560  Biso   1.000  H
  C47      1.0000 0.60260  0.09640  0.44820  Biso   1.000  C
  C48      1.0000 0.39740  0.90360  0.55180  Biso   1.000  C
  H47      1.0000 0.61780  0.15320  0.48290  Biso   1.000  H
  H48      1.0000 0.38220  0.84680  0.51710  Biso   1.000  H
  C49      1.0000 0.33570  0.11880  0.37860  Biso   1.000  C
  C50      1.0000 0.66430  0.88120  0.62140  Biso   1.000  C
  H49      1.0000 0.31830  0.15650  0.43270  Biso   1.000  H
  H50      1.0000 0.68170  0.84350  0.56730  Biso   1.000  H
  H51      1.0000 0.25060  0.07540  0.36250  Biso   1.000  H
  H52      1.0000 0.74940  0.92460  0.63750  Biso   1.000  H
  C51      1.0000 0.34720  0.18410  0.29980  Biso   1.000  C
  C52      1.0000 0.65280  0.81590  0.70020  Biso   1.000  C
  C53      1.0000 0.37790  0.14660  0.21680  Biso   1.000  C
  C54      1.0000 0.62210  0.85340  0.78320  Biso   1.000  C
  H53      1.0000 0.38670  0.08120  0.20860  Biso   1.000  H
  H54      1.0000 0.61330  0.91880  0.79140  Biso   1.000  H
  C55      1.0000 0.33160  0.27990  0.30870  Biso   1.000  C
  C56      1.0000 0.66840  0.72010  0.69130  Biso   1.000  C
  H55      1.0000 0.30840  0.30660  0.36370  Biso   1.000  H
  H56      1.0000 0.69160  0.69340  0.63630  Biso   1.000  H
  N1       1.0000 0.06290  0.62960  0.41640  Biso   1.000  N
  N2       1.0000 0.93710  0.37040  0.58360  Biso   1.000  N
  N3       1.0000 0.18030  0.58800  0.54960  Biso   1.000  N
  N4       1.0000 0.81970  0.41200  0.45040  Biso   1.000  N
  N5       1.0000 0.01660  0.86370  0.08930  Biso   1.000  N
  N6       1.0000 0.98340  0.13630  0.91070  Biso   1.000  N
  N7       1.0000 0.07470  0.89890  0.95510  Biso   1.000  N
  N8       1.0000 0.92530  0.10110  0.04490  Biso   1.000  N
  N9       1.0000 0.51630  0.59890  0.14550  Biso   1.000  N
  N10      1.0000 0.48370  0.40110  0.85450  Biso   1.000  N
  N11      1.0000 0.41360  0.46180  0.09420  Biso   1.000  N
  N12      1.0000 0.58640  0.53820  0.90580  Biso   1.000  N
  N13      1.0000 0.64330  0.95670  0.38030  Biso   1.000  N
  N14      1.0000 0.35670  0.04330  0.61970  Biso   1.000  N
  N15      1.0000 0.47220  0.06490  0.39910  Biso   1.000  N
  N16      1.0000 0.52780  0.93510  0.60090  Biso   1.000  N
