data_image0
_cell_length_a       7.704
_cell_length_b       16.41
_cell_length_c       7.63
_cell_angle_alpha    91.28
_cell_angle_beta     90.6
_cell_angle_gamma    96.25

_symmetry_space_group_name_H-M    "P 1"
_symmetry_int_tables_number       1

loop_
  _symmetry_equiv_pos_as_xyz
  'x, y, z'

loop_
  _atom_site_label
  _atom_site_occupancy
  _atom_site_fract_x
  _atom_site_fract_y
  _atom_site_fract_z
  _atom_site_thermal_displace_type
  _atom_site_B_iso_or_equiv
  _atom_site_type_symbol
  Cu1      1.0000 0.25299  0.25259  0.70807  Biso   1.000  Cu
  Cu2      1.0000 0.74701  0.74741  0.29193  Biso   1.000  Cu
  Cl1      1.0000 0.74810  0.24696  0.20920  Biso   1.000  Cl
  Cl2      1.0000 0.25190  0.75304  0.79080  Biso   1.000  Cl
  S1       1.0000 0.99620  0.55320  0.73300  Biso   1.000  S
  S2       1.0000 0.00380  0.44680  0.26700  Biso   1.000  S
  S3       1.0000 0.61850  0.53410  0.71590  Biso   1.000  S
  S4       1.0000 0.38150  0.46590  0.28410  Biso   1.000  S
  S5       1.0000 0.19910  0.96460  0.38590  Biso   1.000  S
  S6       1.0000 0.80090  0.03540  0.61410  Biso   1.000  S
  S7       1.0000 0.22020  0.95330  0.00740  Biso   1.000  S
  S8       1.0000 0.77980  0.04670  0.99260  Biso   1.000  S
  O1       1.0000 0.90310  0.21320  0.24910  Biso   1.000  O
  O2       1.0000 0.09690  0.78680  0.75090  Biso   1.000  O
  O3       1.0000 0.71970  0.30760  0.34170  Biso   1.000  O
  O4       1.0000 0.28030  0.69240  0.65830  Biso   1.000  O
  O5       1.0000 0.76400  0.28420  0.04630  Biso   1.000  O
  O6       1.0000 0.23600  0.71580  0.95370  Biso   1.000  O
  O7       1.0000 0.60660  0.18540  0.20570  Biso   1.000  O
  O8       1.0000 0.39340  0.81460  0.79430  Biso   1.000  O
  N1       1.0000 0.48030  0.32290  0.71430  Biso   1.000  N
  N2       1.0000 0.51970  0.67710  0.28570  Biso   1.000  N
  N3       1.0000 0.25030  0.17680  0.49830  Biso   1.000  N
  N4       1.0000 0.74970  0.82320  0.50170  Biso   1.000  N
  N5       1.0000 0.22680  0.19190  0.93180  Biso   1.000  N
  N6       1.0000 0.77320  0.80810  0.06820  Biso   1.000  N
  N7       1.0000 0.04600  0.31570  0.68830  Biso   1.000  N
  N8       1.0000 0.95400  0.68430  0.31170  Biso   1.000  N
  C1       1.0000 0.80810  0.48600  0.72490  Biso   1.000  C
  C2       1.0000 0.19190  0.51400  0.27510  Biso   1.000  C
  C3       1.0000 0.78800  0.40140  0.71650  Biso   1.000  C
  C4       1.0000 0.21200  0.59860  0.28350  Biso   1.000  C
  C5       1.0000 0.61760  0.35740  0.71620  Biso   1.000  C
  C6       1.0000 0.38240  0.64260  0.28380  Biso   1.000  C
  C7       1.0000 0.93110  0.35260  0.69950  Biso   1.000  C
  C8       1.0000 0.06890  0.64740  0.30050  Biso   1.000  C
  C9       1.0000 0.17210  0.49810  0.79700  Biso   1.000  C
  C10      1.0000 0.82790  0.50190  0.20300  Biso   1.000  C
  C11      1.0000 0.68080  0.63920  0.76900  Biso   1.000  C
  C12      1.0000 0.31920  0.36080  0.23100  Biso   1.000  C
  C13      1.0000 0.23230  0.10130  0.20000  Biso   1.000  C
  C14      1.0000 0.76770  0.89870  0.80000  Biso   1.000  C
  C15      1.0000 0.22230  0.01660  0.18920  Biso   1.000  C
  C16      1.0000 0.77770  0.98340  0.81080  Biso   1.000  C
  C17      1.0000 0.24270  0.14320  0.36680  Biso   1.000  C
  C18      1.0000 0.75730  0.85680  0.63320  Biso   1.000  C
  C19      1.0000 0.22930  0.15150  0.05060  Biso   1.000  C
  C20      1.0000 0.77070  0.84850  0.94940  Biso   1.000  C
  C21      1.0000 0.23800  0.86240  0.34000  Biso   1.000  C
  C22      1.0000 0.76200  0.13760  0.66000  Biso   1.000  C
  C23      1.0000 0.30400  0.01110  0.83010  Biso   1.000  C
  C24      1.0000 0.69600  0.98890  0.16990  Biso   1.000  C
  H1       1.0000 0.14880  0.47360  0.91050  Biso   1.000  H
  H2       1.0000 0.85120  0.52640  0.08950  Biso   1.000  H
  H3       1.0000 0.18480  0.45370  0.71540  Biso   1.000  H
  H4       1.0000 0.81520  0.54630  0.28460  Biso   1.000  H
  H5       1.0000 0.27850  0.53230  0.80560  Biso   1.000  H
  H6       1.0000 0.72150  0.46770  0.19440  Biso   1.000  H
  H7       1.0000 0.73190  0.64500  0.88390  Biso   1.000  H
  H8       1.0000 0.26810  0.35500  0.11610  Biso   1.000  H
  H9       1.0000 0.76350  0.66250  0.68710  Biso   1.000  H
  H10      1.0000 0.23650  0.33750  0.31290  Biso   1.000  H
  H11      1.0000 0.58080  0.66900  0.76650  Biso   1.000  H
  H12      1.0000 0.41920  0.33100  0.23350  Biso   1.000  H
  H13      1.0000 0.42530  0.03450  0.85570  Biso   1.000  H
  H14      1.0000 0.57470  0.96550  0.14430  Biso   1.000  H
  H15      1.0000 0.30830  0.97820  0.72580  Biso   1.000  H
  H16      1.0000 0.69170  0.02180  0.27420  Biso   1.000  H
  H17      1.0000 0.23980  0.05590  0.80720  Biso   1.000  H
  H18      1.0000 0.76020  0.94410  0.19280  Biso   1.000  H
  H19      1.0000 0.22740  0.83080  0.44450  Biso   1.000  H
  H20      1.0000 0.77260  0.16920  0.55550  Biso   1.000  H
  H21      1.0000 0.15650  0.83730  0.25490  Biso   1.000  H
  H22      1.0000 0.84350  0.16270  0.74510  Biso   1.000  H
  H23      1.0000 0.35360  0.86040  0.29620  Biso   1.000  H
  H24      1.0000 0.64640  0.13960  0.70380  Biso   1.000  H
