data_image0
_cell_length_a       10.137
_cell_length_b       9.671
_cell_length_c       6.848
_cell_angle_alpha    101.75
_cell_angle_beta     90
_cell_angle_gamma    90

_symmetry_space_group_name_H-M    "P 1"
_symmetry_int_tables_number       1

loop_
  _symmetry_equiv_pos_as_xyz
  'x, y, z'

loop_
  _atom_site_label
  _atom_site_occupancy
  _atom_site_fract_x
  _atom_site_fract_y
  _atom_site_fract_z
  _atom_site_thermal_displace_type
  _atom_site_B_iso_or_equiv
  _atom_site_type_symbol
  Cu1      1.0000 0.27602  0.18805  0.34728  Biso   1.000  Cu
  Cu2      1.0000 0.77602  0.31195  0.65272  Biso   1.000  Cu
  Cu3      1.0000 0.72398  0.81195  0.65272  Biso   1.000  Cu
  Cu4      1.0000 0.22398  0.68805  0.34728  Biso   1.000  Cu
  O1       1.0000 0.24080  0.15050  0.62210  Biso   1.000  O
  O2       1.0000 0.74080  0.34950  0.37790  Biso   1.000  O
  O3       1.0000 0.75920  0.84950  0.37790  Biso   1.000  O
  O4       1.0000 0.25920  0.65050  0.62210  Biso   1.000  O
  O5       1.0000 0.18610  0.97980  0.76210  Biso   1.000  O
  O6       1.0000 0.68610  0.52020  0.23790  Biso   1.000  O
  O7       1.0000 0.81390  0.02020  0.23790  Biso   1.000  O
  O8       1.0000 0.31390  0.47980  0.76210  Biso   1.000  O
  O9       1.0000 0.21370  0.94290  0.44460  Biso   1.000  O
  O10      1.0000 0.71370  0.55710  0.55540  Biso   1.000  O
  O11      1.0000 0.78630  0.05710  0.55540  Biso   1.000  O
  O12      1.0000 0.28630  0.44290  0.44460  Biso   1.000  O
  N1       1.0000 0.89160  0.79050  0.78780  Biso   1.000  N
  N2       1.0000 0.39160  0.70950  0.21220  Biso   1.000  N
  N3       1.0000 0.10840  0.20950  0.21220  Biso   1.000  N
  N4       1.0000 0.60840  0.29050  0.78780  Biso   1.000  N
  N5       1.0000 0.21200  0.02120  0.60980  Biso   1.000  N
  N6       1.0000 0.71200  0.47880  0.39020  Biso   1.000  N
  N7       1.0000 0.78800  0.97880  0.39020  Biso   1.000  N
  N8       1.0000 0.28800  0.52120  0.60980  Biso   1.000  N
  C1       1.0000 0.02960  0.64300  0.28710  Biso   1.000  C
  C2       1.0000 0.52960  0.85700  0.71290  Biso   1.000  C
  C3       1.0000 0.97040  0.35700  0.71290  Biso   1.000  C
  C4       1.0000 0.47040  0.14300  0.28710  Biso   1.000  C
  C5       1.0000 0.08950  0.66160  0.11950  Biso   1.000  C
  C6       1.0000 0.58950  0.83840  0.88050  Biso   1.000  C
  C7       1.0000 0.91050  0.33840  0.88050  Biso   1.000  C
  C8       1.0000 0.41050  0.16160  0.11950  Biso   1.000  C
  C9       1.0000 0.08230  0.79530  0.03980  Biso   1.000  C
  C10      1.0000 0.58230  0.70470  0.96020  Biso   1.000  C
  C11      1.0000 0.91770  0.20470  0.96020  Biso   1.000  C
  C12      1.0000 0.41770  0.29530  0.03980  Biso   1.000  C
  C13      1.0000 0.97540  0.79160  0.89500  Biso   1.000  C
  C14      1.0000 0.47540  0.70840  0.10500  Biso   1.000  C
  C15      1.0000 0.02460  0.20840  0.10500  Biso   1.000  C
  C16      1.0000 0.52460  0.29160  0.89500  Biso   1.000  C
  H1       1.0000 0.99000  0.71800  0.37800  Biso   1.000  H
  H2       1.0000 0.49000  0.78200  0.62200  Biso   1.000  H
  H3       1.0000 0.01000  0.28200  0.62200  Biso   1.000  H
  H4       1.0000 0.51000  0.21800  0.37800  Biso   1.000  H
  H5       1.0000 0.02300  0.56000  0.31500  Biso   1.000  H
  H6       1.0000 0.52300  0.94000  0.68500  Biso   1.000  H
  H7       1.0000 0.97700  0.44000  0.68500  Biso   1.000  H
  H8       1.0000 0.47700  0.06000  0.31500  Biso   1.000  H
  H9       1.0000 0.11400  0.58800  0.04000  Biso   1.000  H
  H10      1.0000 0.61400  0.91200  0.96000  Biso   1.000  H
  H11      1.0000 0.88600  0.41200  0.96000  Biso   1.000  H
  H12      1.0000 0.38600  0.08800  0.04000  Biso   1.000  H
  H13      1.0000 0.06200  0.87900  0.15600  Biso   1.000  H
  H14      1.0000 0.56200  0.62100  0.84400  Biso   1.000  H
  H15      1.0000 0.93800  0.12100  0.84400  Biso   1.000  H
  H16      1.0000 0.43800  0.37900  0.15600  Biso   1.000  H
  H17      1.0000 0.14800  0.80700  0.98500  Biso   1.000  H
  H18      1.0000 0.64800  0.69300  0.01500  Biso   1.000  H
  H19      1.0000 0.85200  0.19300  0.01500  Biso   1.000  H
  H20      1.0000 0.35200  0.30700  0.98500  Biso   1.000  H
