data_image0
_cell_length_a       25.19
_cell_length_b       11.177
_cell_length_c       16.86
_cell_angle_alpha    90
_cell_angle_beta     120.36
_cell_angle_gamma    90

_symmetry_space_group_name_H-M    "P 1"
_symmetry_int_tables_number       1

loop_
  _symmetry_equiv_pos_as_xyz
  'x, y, z'

loop_
  _atom_site_label
  _atom_site_occupancy
  _atom_site_fract_x
  _atom_site_fract_y
  _atom_site_fract_z
  _atom_site_thermal_displace_type
  _atom_site_B_iso_or_equiv
  _atom_site_type_symbol
  I1       1.0000 0.45680  0.76000  0.09800  Biso   1.000  I
  I2       1.0000 0.95680  0.26000  0.09800  Biso   1.000  I
  I3       1.0000 0.54320  0.76000  0.40200  Biso   1.000  I
  I4       1.0000 0.04320  0.26000  0.40200  Biso   1.000  I
  I5       1.0000 0.54320  0.24000  0.90200  Biso   1.000  I
  I6       1.0000 0.04320  0.74000  0.90200  Biso   1.000  I
  I7       1.0000 0.45680  0.24000  0.59800  Biso   1.000  I
  I8       1.0000 0.95680  0.74000  0.59800  Biso   1.000  I
  I9       1.0000 0.59030  0.02770  0.25440  Biso   1.000  I
  I10      1.0000 0.09030  0.52770  0.25440  Biso   1.000  I
  I11      1.0000 0.40970  0.02770  0.24560  Biso   1.000  I
  I12      1.0000 0.90970  0.52770  0.24560  Biso   1.000  I
  I13      1.0000 0.40970  0.97230  0.74560  Biso   1.000  I
  I14      1.0000 0.90970  0.47230  0.74560  Biso   1.000  I
  I15      1.0000 0.59030  0.97230  0.75440  Biso   1.000  I
  I16      1.0000 0.09030  0.47230  0.75440  Biso   1.000  I
  I17      1.0000 0.42850  0.11910  0.00700  Biso   1.000  I
  I18      1.0000 0.92850  0.61910  0.00700  Biso   1.000  I
  I19      1.0000 0.57150  0.11910  0.49300  Biso   1.000  I
  I20      1.0000 0.07150  0.61910  0.49300  Biso   1.000  I
  I21      1.0000 0.57150  0.88090  0.99300  Biso   1.000  I
  I22      1.0000 0.07150  0.38090  0.99300  Biso   1.000  I
  I23      1.0000 0.42850  0.88090  0.50700  Biso   1.000  I
  I24      1.0000 0.92850  0.38090  0.50700  Biso   1.000  I
  Cu1      1.0000 0.46220  0.97690  0.15830  Biso   1.000  Cu
  Cu2      1.0000 0.96220  0.47690  0.15830  Biso   1.000  Cu
  Cu3      1.0000 0.53780  0.97690  0.34170  Biso   1.000  Cu
  Cu4      1.0000 0.03780  0.47690  0.34170  Biso   1.000  Cu
  Cu5      1.0000 0.53780  0.02310  0.84170  Biso   1.000  Cu
  Cu6      1.0000 0.03780  0.52310  0.84170  Biso   1.000  Cu
  Cu7      1.0000 0.46220  0.02310  0.65830  Biso   1.000  Cu
  Cu8      1.0000 0.96220  0.52310  0.65830  Biso   1.000  Cu
  Cu9      1.0000 0.51290  0.93590  0.07110  Biso   1.000  Cu
  Cu10     1.0000 0.01290  0.43590  0.07110  Biso   1.000  Cu
  Cu11     1.0000 0.48710  0.93590  0.42890  Biso   1.000  Cu
  Cu12     1.0000 0.98710  0.43590  0.42890  Biso   1.000  Cu
  Cu13     1.0000 0.48710  0.06410  0.92890  Biso   1.000  Cu
  Cu14     1.0000 0.98710  0.56410  0.92890  Biso   1.000  Cu
  Cu15     1.0000 0.51290  0.06410  0.57110  Biso   1.000  Cu
  Cu16     1.0000 0.01290  0.56410  0.57110  Biso   1.000  Cu
  Cs1      1.0000 0.37420  0.69180  0.22590  Biso   1.000  Cs
  Cs2      1.0000 0.87420  0.19180  0.22590  Biso   1.000  Cs
  Cs3      1.0000 0.62580  0.69180  0.27410  Biso   1.000  Cs
  Cs4      1.0000 0.12580  0.19180  0.27410  Biso   1.000  Cs
  Cs5      1.0000 0.62580  0.30820  0.77410  Biso   1.000  Cs
  Cs6      1.0000 0.12580  0.80820  0.77410  Biso   1.000  Cs
  Cs7      1.0000 0.37420  0.30820  0.72590  Biso   1.000  Cs
  Cs8      1.0000 0.87420  0.80820  0.72590  Biso   1.000  Cs
  O1       1.0000 0.23740  0.65800  0.09940  Biso   1.000  O
  O2       1.0000 0.73740  0.15800  0.09940  Biso   1.000  O
  O3       1.0000 0.76260  0.65800  0.40060  Biso   1.000  O
  O4       1.0000 0.26260  0.15800  0.40060  Biso   1.000  O
  O5       1.0000 0.76260  0.34200  0.90060  Biso   1.000  O
  O6       1.0000 0.26260  0.84200  0.90060  Biso   1.000  O
  O7       1.0000 0.23740  0.34200  0.59940  Biso   1.000  O
  O8       1.0000 0.73740  0.84200  0.59940  Biso   1.000  O
  C1       1.0000 0.20140  0.63500  0.14400  Biso   1.000  C
  C2       1.0000 0.70140  0.13500  0.14400  Biso   1.000  C
  C3       1.0000 0.79860  0.63500  0.35600  Biso   1.000  C
  C4       1.0000 0.29860  0.13500  0.35600  Biso   1.000  C
  C5       1.0000 0.79860  0.36500  0.85600  Biso   1.000  C
  C6       1.0000 0.29860  0.86500  0.85600  Biso   1.000  C
  C7       1.0000 0.20140  0.36500  0.64400  Biso   1.000  C
  C8       1.0000 0.70140  0.86500  0.64400  Biso   1.000  C
  H1       1.0000 0.15910  0.65590  0.10370  Biso   1.000  H
  H2       1.0000 0.65910  0.15590  0.10370  Biso   1.000  H
  H3       1.0000 0.84090  0.65590  0.39630  Biso   1.000  H
  H4       1.0000 0.34090  0.15590  0.39630  Biso   1.000  H
  H5       1.0000 0.84090  0.34410  0.89630  Biso   1.000  H
  H6       1.0000 0.34090  0.84410  0.89630  Biso   1.000  H
  H7       1.0000 0.15910  0.34410  0.60370  Biso   1.000  H
  H8       1.0000 0.65910  0.84410  0.60370  Biso   1.000  H
  H9       1.0000 0.20350  0.55160  0.15920  Biso   1.000  H
  H10      1.0000 0.70350  0.05160  0.15920  Biso   1.000  H
  H11      1.0000 0.79650  0.55160  0.34080  Biso   1.000  H
  H12      1.0000 0.29650  0.05160  0.34080  Biso   1.000  H
  H13      1.0000 0.79650  0.44840  0.84080  Biso   1.000  H
  H14      1.0000 0.29650  0.94840  0.84080  Biso   1.000  H
  H15      1.0000 0.20350  0.44840  0.65920  Biso   1.000  H
  H16      1.0000 0.70350  0.94840  0.65920  Biso   1.000  H
  C9       1.0000 0.22600  0.70000  0.21600  Biso   1.000  C
  C10      1.0000 0.72600  0.20000  0.21600  Biso   1.000  C
  C11      1.0000 0.77400  0.70000  0.28400  Biso   1.000  C
  C12      1.0000 0.27400  0.20000  0.28400  Biso   1.000  C
  C13      1.0000 0.77400  0.30000  0.78400  Biso   1.000  C
  C14      1.0000 0.27400  0.80000  0.78400  Biso   1.000  C
  C15      1.0000 0.22600  0.30000  0.71600  Biso   1.000  C
  C16      1.0000 0.72600  0.80000  0.71600  Biso   1.000  C
  H17      1.0000 0.19760  0.69750  0.23880  Biso   1.000  H
  H18      1.0000 0.69760  0.19750  0.23880  Biso   1.000  H
  H19      1.0000 0.80240  0.69750  0.26120  Biso   1.000  H
  H20      1.0000 0.30240  0.19750  0.26120  Biso   1.000  H
  H21      1.0000 0.80240  0.30250  0.76120  Biso   1.000  H
  H22      1.0000 0.30240  0.80250  0.76120  Biso   1.000  H
  H23      1.0000 0.19760  0.30250  0.73880  Biso   1.000  H
  H24      1.0000 0.69760  0.80250  0.73880  Biso   1.000  H
  H25      1.0000 0.22700  0.78080  0.19880  Biso   1.000  H
  H26      1.0000 0.72700  0.28080  0.19880  Biso   1.000  H
  H27      1.0000 0.77300  0.78080  0.30120  Biso   1.000  H
  H28      1.0000 0.27300  0.28080  0.30120  Biso   1.000  H
  H29      1.0000 0.77300  0.21920  0.80120  Biso   1.000  H
  H30      1.0000 0.27300  0.71920  0.80120  Biso   1.000  H
  H31      1.0000 0.22700  0.21920  0.69880  Biso   1.000  H
  H32      1.0000 0.72700  0.71920  0.69880  Biso   1.000  H
  O9       1.0000 0.28040  0.67300  0.28700  Biso   1.000  O
  O10      1.0000 0.78040  0.17300  0.28700  Biso   1.000  O
  O11      1.0000 0.71960  0.67300  0.21300  Biso   1.000  O
  O12      1.0000 0.21960  0.17300  0.21300  Biso   1.000  O
  O13      1.0000 0.71960  0.32700  0.71300  Biso   1.000  O
  O14      1.0000 0.21960  0.82700  0.71300  Biso   1.000  O
  O15      1.0000 0.28040  0.32700  0.78700  Biso   1.000  O
  O16      1.0000 0.78040  0.82700  0.78700  Biso   1.000  O
  C17      1.0000 0.28600  0.58100  0.34300  Biso   1.000  C
  C18      1.0000 0.78600  0.08100  0.34300  Biso   1.000  C
  C19      1.0000 0.71400  0.58100  0.15700  Biso   1.000  C
  C20      1.0000 0.21400  0.08100  0.15700  Biso   1.000  C
  C21      1.0000 0.71400  0.41900  0.65700  Biso   1.000  C
  C22      1.0000 0.21400  0.91900  0.65700  Biso   1.000  C
  C23      1.0000 0.28600  0.41900  0.84300  Biso   1.000  C
  C24      1.0000 0.78600  0.91900  0.84300  Biso   1.000  C
  H33      1.0000 0.26900  0.60520  0.38080  Biso   1.000  H
  H34      1.0000 0.76900  0.10520  0.38080  Biso   1.000  H
  H35      1.0000 0.73100  0.60520  0.11920  Biso   1.000  H
  H36      1.0000 0.23100  0.10520  0.11920  Biso   1.000  H
  H37      1.0000 0.73100  0.39480  0.61920  Biso   1.000  H
  H38      1.0000 0.23100  0.89480  0.61920  Biso   1.000  H
  H39      1.0000 0.26900  0.39480  0.88080  Biso   1.000  H
  H40      1.0000 0.76900  0.89480  0.88080  Biso   1.000  H
  H41      1.0000 0.26190  0.51430  0.30660  Biso   1.000  H
  H42      1.0000 0.76190  0.01430  0.30660  Biso   1.000  H
  H43      1.0000 0.73810  0.51430  0.19340  Biso   1.000  H
  H44      1.0000 0.23810  0.01430  0.19340  Biso   1.000  H
  H45      1.0000 0.73810  0.48570  0.69340  Biso   1.000  H
  H46      1.0000 0.23810  0.98570  0.69340  Biso   1.000  H
  H47      1.0000 0.26190  0.48570  0.80660  Biso   1.000  H
  H48      1.0000 0.76190  0.98570  0.80660  Biso   1.000  H
  C25      1.0000 0.34400  0.54600  0.39800  Biso   1.000  C
  C26      1.0000 0.84400  0.04600  0.39800  Biso   1.000  C
  C27      1.0000 0.65600  0.54600  0.10200  Biso   1.000  C
  C28      1.0000 0.15600  0.04600  0.10200  Biso   1.000  C
  C29      1.0000 0.65600  0.45400  0.60200  Biso   1.000  C
  C30      1.0000 0.15600  0.95400  0.60200  Biso   1.000  C
  C31      1.0000 0.34400  0.45400  0.89800  Biso   1.000  C
  C32      1.0000 0.84400  0.95400  0.89800  Biso   1.000  C
  H49      1.0000 0.34580  0.49430  0.44580  Biso   1.000  H
  H50      1.0000 0.84580  0.99430  0.44580  Biso   1.000  H
  H51      1.0000 0.65420  0.49430  0.05420  Biso   1.000  H
  H52      1.0000 0.15420  0.99430  0.05420  Biso   1.000  H
  H53      1.0000 0.65420  0.50570  0.55420  Biso   1.000  H
  H54      1.0000 0.15420  0.00570  0.55420  Biso   1.000  H
  H55      1.0000 0.34580  0.50570  0.94580  Biso   1.000  H
  H56      1.0000 0.84580  0.00570  0.94580  Biso   1.000  H
  H57      1.0000 0.36950  0.61360  0.42750  Biso   1.000  H
  H58      1.0000 0.86950  0.11360  0.42750  Biso   1.000  H
  H59      1.0000 0.63050  0.61360  0.07250  Biso   1.000  H
  H60      1.0000 0.13050  0.11360  0.07250  Biso   1.000  H
  H61      1.0000 0.63050  0.38640  0.57250  Biso   1.000  H
  H62      1.0000 0.13050  0.88640  0.57250  Biso   1.000  H
  H63      1.0000 0.36950  0.38640  0.92750  Biso   1.000  H
  H64      1.0000 0.86950  0.88640  0.92750  Biso   1.000  H
  O17      1.0000 0.36540  0.48200  0.34730  Biso   1.000  O
  O18      1.0000 0.86540  0.98200  0.34730  Biso   1.000  O
  O19      1.0000 0.63460  0.48200  0.15270  Biso   1.000  O
  O20      1.0000 0.13460  0.98200  0.15270  Biso   1.000  O
  O21      1.0000 0.63460  0.51800  0.65270  Biso   1.000  O
  O22      1.0000 0.13460  0.01800  0.65270  Biso   1.000  O
  O23      1.0000 0.36540  0.51800  0.84730  Biso   1.000  O
  O24      1.0000 0.86540  0.01800  0.84730  Biso   1.000  O
  C33      1.0000 0.42710  0.45800  0.39000  Biso   1.000  C
  C34      1.0000 0.92710  0.95800  0.39000  Biso   1.000  C
  C35      1.0000 0.57290  0.45800  0.11000  Biso   1.000  C
  C36      1.0000 0.07290  0.95800  0.11000  Biso   1.000  C
  C37      1.0000 0.57290  0.54200  0.61000  Biso   1.000  C
  C38      1.0000 0.07290  0.04200  0.61000  Biso   1.000  C
  C39      1.0000 0.42710  0.54200  0.89000  Biso   1.000  C
  C40      1.0000 0.92710  0.04200  0.89000  Biso   1.000  C
  H65      1.0000 0.45000  0.53130  0.40060  Biso   1.000  H
  H66      1.0000 0.95000  0.03130  0.40060  Biso   1.000  H
  H67      1.0000 0.55000  0.53130  0.09940  Biso   1.000  H
  H68      1.0000 0.05000  0.03130  0.09940  Biso   1.000  H
  H69      1.0000 0.55000  0.46870  0.59940  Biso   1.000  H
  H70      1.0000 0.05000  0.96870  0.59940  Biso   1.000  H
  H71      1.0000 0.45000  0.46870  0.90060  Biso   1.000  H
  H72      1.0000 0.95000  0.96870  0.90060  Biso   1.000  H
  H73      1.0000 0.44080  0.41910  0.44730  Biso   1.000  H
  H74      1.0000 0.94080  0.91910  0.44730  Biso   1.000  H
  H75      1.0000 0.55920  0.41910  0.05270  Biso   1.000  H
  H76      1.0000 0.05920  0.91910  0.05270  Biso   1.000  H
  H77      1.0000 0.55920  0.58090  0.55270  Biso   1.000  H
  H78      1.0000 0.05920  0.08090  0.55270  Biso   1.000  H
  H79      1.0000 0.44080  0.58090  0.94730  Biso   1.000  H
  H80      1.0000 0.94080  0.08090  0.94730  Biso   1.000  H
  C41      1.0000 0.43590  0.37600  0.32300  Biso   1.000  C
  C42      1.0000 0.93590  0.87600  0.32300  Biso   1.000  C
  C43      1.0000 0.56410  0.37600  0.17700  Biso   1.000  C
  C44      1.0000 0.06410  0.87600  0.17700  Biso   1.000  C
  C45      1.0000 0.56410  0.62400  0.67700  Biso   1.000  C
  C46      1.0000 0.06410  0.12400  0.67700  Biso   1.000  C
  C47      1.0000 0.43590  0.62400  0.82300  Biso   1.000  C
  C48      1.0000 0.93590  0.12400  0.82300  Biso   1.000  C
  H81      1.0000 0.40620  0.31260  0.30120  Biso   1.000  H
  H82      1.0000 0.90620  0.81260  0.30120  Biso   1.000  H
  H83      1.0000 0.59380  0.31260  0.19880  Biso   1.000  H
  H84      1.0000 0.09380  0.81260  0.19880  Biso   1.000  H
  H85      1.0000 0.59380  0.68740  0.69880  Biso   1.000  H
  H86      1.0000 0.09380  0.18740  0.69880  Biso   1.000  H
  H87      1.0000 0.40620  0.68740  0.80120  Biso   1.000  H
  H88      1.0000 0.90620  0.18740  0.80120  Biso   1.000  H
  H89      1.0000 0.47640  0.34160  0.35420  Biso   1.000  H
  H90      1.0000 0.97640  0.84160  0.35420  Biso   1.000  H
  H91      1.0000 0.52360  0.34160  0.14580  Biso   1.000  H
  H92      1.0000 0.02360  0.84160  0.14580  Biso   1.000  H
  H93      1.0000 0.52360  0.65840  0.64580  Biso   1.000  H
  H94      1.0000 0.02360  0.15840  0.64580  Biso   1.000  H
  H95      1.0000 0.47640  0.65840  0.85420  Biso   1.000  H
  H96      1.0000 0.97640  0.15840  0.85420  Biso   1.000  H
  O25      1.0000 0.42800  0.44800  0.25000  Biso   1.000  O
  O26      1.0000 0.92800  0.94800  0.25000  Biso   1.000  O
  O27      1.0000 0.57200  0.44800  0.25000  Biso   1.000  O
  O28      1.0000 0.07200  0.94800  0.25000  Biso   1.000  O
  O29      1.0000 0.57200  0.55200  0.75000  Biso   1.000  O
  O30      1.0000 0.07200  0.05200  0.75000  Biso   1.000  O
  O31      1.0000 0.42800  0.55200  0.75000  Biso   1.000  O
  O32      1.0000 0.92800  0.05200  0.75000  Biso   1.000  O
  C49      1.0000 0.41000  0.37700  0.17100  Biso   1.000  C
  C50      1.0000 0.91000  0.87700  0.17100  Biso   1.000  C
  C51      1.0000 0.59000  0.37700  0.32900  Biso   1.000  C
  C52      1.0000 0.09000  0.87700  0.32900  Biso   1.000  C
  C53      1.0000 0.59000  0.62300  0.82900  Biso   1.000  C
  C54      1.0000 0.09000  0.12300  0.82900  Biso   1.000  C
  C55      1.0000 0.41000  0.62300  0.67100  Biso   1.000  C
  C56      1.0000 0.91000  0.12300  0.67100  Biso   1.000  C
  H97      1.0000 0.42470  0.41310  0.13430  Biso   1.000  H
  H98      1.0000 0.92470  0.91310  0.13430  Biso   1.000  H
  H99      1.0000 0.57530  0.41310  0.36570  Biso   1.000  H
  H100     1.0000 0.07530  0.91310  0.36570  Biso   1.000  H
  H101     1.0000 0.57530  0.58690  0.86570  Biso   1.000  H
  H102     1.0000 0.07530  0.08690  0.86570  Biso   1.000  H
  H103     1.0000 0.42470  0.58690  0.63430  Biso   1.000  H
  H104     1.0000 0.92470  0.08690  0.63430  Biso   1.000  H
  H105     1.0000 0.42810  0.29980  0.18980  Biso   1.000  H
  H106     1.0000 0.92810  0.79980  0.18980  Biso   1.000  H
  H107     1.0000 0.57190  0.29980  0.31020  Biso   1.000  H
  H108     1.0000 0.07190  0.79980  0.31020  Biso   1.000  H
  H109     1.0000 0.57190  0.70020  0.81020  Biso   1.000  H
  H110     1.0000 0.07190  0.20020  0.81020  Biso   1.000  H
  H111     1.0000 0.42810  0.70020  0.68980  Biso   1.000  H
  H112     1.0000 0.92810  0.20020  0.68980  Biso   1.000  H
  C57      1.0000 0.34370  0.36300  0.11600  Biso   1.000  C
  C58      1.0000 0.84370  0.86300  0.11600  Biso   1.000  C
  C59      1.0000 0.65630  0.36300  0.38400  Biso   1.000  C
  C60      1.0000 0.15630  0.86300  0.38400  Biso   1.000  C
  C61      1.0000 0.65630  0.63700  0.88400  Biso   1.000  C
  C62      1.0000 0.15630  0.13700  0.88400  Biso   1.000  C
  C63      1.0000 0.34370  0.63700  0.61600  Biso   1.000  C
  C64      1.0000 0.84370  0.13700  0.61600  Biso   1.000  C
  H113     1.0000 0.32880  0.32180  0.15100  Biso   1.000  H
  H114     1.0000 0.82880  0.82180  0.15100  Biso   1.000  H
  H115     1.0000 0.67120  0.32180  0.34900  Biso   1.000  H
  H116     1.0000 0.17120  0.82180  0.34900  Biso   1.000  H
  H117     1.0000 0.67120  0.67820  0.84900  Biso   1.000  H
  H118     1.0000 0.17120  0.17820  0.84900  Biso   1.000  H
  H119     1.0000 0.32880  0.67820  0.65100  Biso   1.000  H
  H120     1.0000 0.82880  0.17820  0.65100  Biso   1.000  H
  H121     1.0000 0.33440  0.31420  0.06360  Biso   1.000  H
  H122     1.0000 0.83440  0.81420  0.06360  Biso   1.000  H
  H123     1.0000 0.66560  0.31420  0.43640  Biso   1.000  H
  H124     1.0000 0.16560  0.81420  0.43640  Biso   1.000  H
  H125     1.0000 0.66560  0.68580  0.93640  Biso   1.000  H
  H126     1.0000 0.16560  0.18580  0.93640  Biso   1.000  H
  H127     1.0000 0.33440  0.68580  0.56360  Biso   1.000  H
  H128     1.0000 0.83440  0.18580  0.56360  Biso   1.000  H
  O33      1.0000 0.31290  0.47300  0.08550  Biso   1.000  O
  O34      1.0000 0.81290  0.97300  0.08550  Biso   1.000  O
  O35      1.0000 0.68710  0.47300  0.41450  Biso   1.000  O
  O36      1.0000 0.18710  0.97300  0.41450  Biso   1.000  O
  O37      1.0000 0.68710  0.52700  0.91450  Biso   1.000  O
  O38      1.0000 0.18710  0.02700  0.91450  Biso   1.000  O
  O39      1.0000 0.31290  0.52700  0.58550  Biso   1.000  O
  O40      1.0000 0.81290  0.02700  0.58550  Biso   1.000  O
  C65      1.0000 0.25070  0.46700  0.04500  Biso   1.000  C
  C66      1.0000 0.75070  0.96700  0.04500  Biso   1.000  C
  C67      1.0000 0.74930  0.46700  0.45500  Biso   1.000  C
  C68      1.0000 0.24930  0.96700  0.45500  Biso   1.000  C
  C69      1.0000 0.74930  0.53300  0.95500  Biso   1.000  C
  C70      1.0000 0.24930  0.03300  0.95500  Biso   1.000  C
  C71      1.0000 0.25070  0.53300  0.54500  Biso   1.000  C
  C72      1.0000 0.75070  0.03300  0.54500  Biso   1.000  C
  H129     1.0000 0.23470  0.41980  0.99030  Biso   1.000  H
  H130     1.0000 0.73470  0.91980  0.99030  Biso   1.000  H
  H131     1.0000 0.76530  0.41980  0.50970  Biso   1.000  H
  H132     1.0000 0.26530  0.91980  0.50970  Biso   1.000  H
  H133     1.0000 0.76530  0.58020  0.00970  Biso   1.000  H
  H134     1.0000 0.26530  0.08020  0.00970  Biso   1.000  H
  H135     1.0000 0.23470  0.58020  0.49030  Biso   1.000  H
  H136     1.0000 0.73470  0.08020  0.49030  Biso   1.000  H
  H137     1.0000 0.24000  0.42800  0.08590  Biso   1.000  H
  H138     1.0000 0.74000  0.92800  0.08590  Biso   1.000  H
  H139     1.0000 0.76000  0.42800  0.41410  Biso   1.000  H
  H140     1.0000 0.26000  0.92800  0.41410  Biso   1.000  H
  H141     1.0000 0.76000  0.57200  0.91410  Biso   1.000  H
  H142     1.0000 0.26000  0.07200  0.91410  Biso   1.000  H
  H143     1.0000 0.24000  0.57200  0.58590  Biso   1.000  H
  H144     1.0000 0.74000  0.07200  0.58590  Biso   1.000  H
  C73      1.0000 0.22370  0.58000  0.02200  Biso   1.000  C
  C74      1.0000 0.72370  0.08000  0.02200  Biso   1.000  C
  C75      1.0000 0.77630  0.58000  0.47800  Biso   1.000  C
  C76      1.0000 0.27630  0.08000  0.47800  Biso   1.000  C
  C77      1.0000 0.77630  0.42000  0.97800  Biso   1.000  C
  C78      1.0000 0.27630  0.92000  0.97800  Biso   1.000  C
  C79      1.0000 0.22370  0.42000  0.52200  Biso   1.000  C
  C80      1.0000 0.72370  0.92000  0.52200  Biso   1.000  C
  H145     1.0000 0.17990  0.56910  0.98690  Biso   1.000  H
  H146     1.0000 0.67990  0.06910  0.98690  Biso   1.000  H
  H147     1.0000 0.82010  0.56910  0.51310  Biso   1.000  H
  H148     1.0000 0.32010  0.06910  0.51310  Biso   1.000  H
  H149     1.0000 0.82010  0.43090  0.01310  Biso   1.000  H
  H150     1.0000 0.32010  0.93090  0.01310  Biso   1.000  H
  H151     1.0000 0.17990  0.43090  0.48690  Biso   1.000  H
  H152     1.0000 0.67990  0.93090  0.48690  Biso   1.000  H
  H153     1.0000 0.23590  0.61980  0.98340  Biso   1.000  H
  H154     1.0000 0.73590  0.11980  0.98340  Biso   1.000  H
  H155     1.0000 0.76410  0.61980  0.51660  Biso   1.000  H
  H156     1.0000 0.26410  0.11980  0.51660  Biso   1.000  H
  H157     1.0000 0.76410  0.38020  0.01660  Biso   1.000  H
  H158     1.0000 0.26410  0.88020  0.01660  Biso   1.000  H
  H159     1.0000 0.23590  0.38020  0.48340  Biso   1.000  H
  H160     1.0000 0.73590  0.88020  0.48340  Biso   1.000  H
