data_image0
_cell_length_a       24.613
_cell_length_b       11.17
_cell_length_c       17.211
_cell_angle_alpha    90
_cell_angle_beta     119.9
_cell_angle_gamma    90

_symmetry_space_group_name_H-M    "P 1"
_symmetry_int_tables_number       1

loop_
  _symmetry_equiv_pos_as_xyz
  'x, y, z'

loop_
  _atom_site_label
  _atom_site_occupancy
  _atom_site_fract_x
  _atom_site_fract_y
  _atom_site_fract_z
  _atom_site_thermal_displace_type
  _atom_site_B_iso_or_equiv
  _atom_site_type_symbol
  I1       1.0000 0.45950  0.74750  0.09840  Biso   1.000  I
  I2       1.0000 0.95950  0.24750  0.09840  Biso   1.000  I
  I3       1.0000 0.54050  0.74750  0.40160  Biso   1.000  I
  I4       1.0000 0.04050  0.24750  0.40160  Biso   1.000  I
  I5       1.0000 0.54050  0.25250  0.90160  Biso   1.000  I
  I6       1.0000 0.04050  0.75250  0.90160  Biso   1.000  I
  I7       1.0000 0.45950  0.25250  0.59840  Biso   1.000  I
  I8       1.0000 0.95950  0.75250  0.59840  Biso   1.000  I
  I9       1.0000 0.59550  0.00820  0.25560  Biso   1.000  I
  I10      1.0000 0.09550  0.50820  0.25560  Biso   1.000  I
  I11      1.0000 0.40450  0.00820  0.24440  Biso   1.000  I
  I12      1.0000 0.90450  0.50820  0.24440  Biso   1.000  I
  I13      1.0000 0.40450  0.99180  0.74440  Biso   1.000  I
  I14      1.0000 0.90450  0.49180  0.74440  Biso   1.000  I
  I15      1.0000 0.59550  0.99180  0.75560  Biso   1.000  I
  I16      1.0000 0.09550  0.49180  0.75560  Biso   1.000  I
  I17      1.0000 0.42740  0.11100  0.01360  Biso   1.000  I
  I18      1.0000 0.92740  0.61100  0.01360  Biso   1.000  I
  I19      1.0000 0.57260  0.11100  0.48640  Biso   1.000  I
  I20      1.0000 0.07260  0.61100  0.48640  Biso   1.000  I
  I21      1.0000 0.57260  0.88900  0.98640  Biso   1.000  I
  I22      1.0000 0.07260  0.38900  0.98640  Biso   1.000  I
  I23      1.0000 0.42740  0.88900  0.51360  Biso   1.000  I
  I24      1.0000 0.92740  0.38900  0.51360  Biso   1.000  I
  Cu1      1.0000 0.46270  0.96630  0.16020  Biso   1.000  Cu
  Cu2      1.0000 0.96270  0.46630  0.16020  Biso   1.000  Cu
  Cu3      1.0000 0.53730  0.96630  0.33980  Biso   1.000  Cu
  Cu4      1.0000 0.03730  0.46630  0.33980  Biso   1.000  Cu
  Cu5      1.0000 0.53730  0.03370  0.83980  Biso   1.000  Cu
  Cu6      1.0000 0.03730  0.53370  0.83980  Biso   1.000  Cu
  Cu7      1.0000 0.46270  0.03370  0.66020  Biso   1.000  Cu
  Cu8      1.0000 0.96270  0.53370  0.66020  Biso   1.000  Cu
  Cu9      1.0000 0.51490  0.93100  0.07070  Biso   1.000  Cu
  Cu10     1.0000 0.01490  0.43100  0.07070  Biso   1.000  Cu
  Cu11     1.0000 0.48510  0.93100  0.42930  Biso   1.000  Cu
  Cu12     1.0000 0.98510  0.43100  0.42930  Biso   1.000  Cu
  Cu13     1.0000 0.48510  0.06900  0.92930  Biso   1.000  Cu
  Cu14     1.0000 0.98510  0.56900  0.92930  Biso   1.000  Cu
  Cu15     1.0000 0.51490  0.06900  0.57070  Biso   1.000  Cu
  Cu16     1.0000 0.01490  0.56900  0.57070  Biso   1.000  Cu
  Rb1      1.0000 0.37890  0.67060  0.22000  Biso   1.000  Rb
  Rb2      1.0000 0.87890  0.17060  0.22000  Biso   1.000  Rb
  Rb3      1.0000 0.62110  0.67060  0.28000  Biso   1.000  Rb
  Rb4      1.0000 0.12110  0.17060  0.28000  Biso   1.000  Rb
  Rb5      1.0000 0.62110  0.32940  0.78000  Biso   1.000  Rb
  Rb6      1.0000 0.12110  0.82940  0.78000  Biso   1.000  Rb
  Rb7      1.0000 0.37890  0.32940  0.72000  Biso   1.000  Rb
  Rb8      1.0000 0.87890  0.82940  0.72000  Biso   1.000  Rb
  O1       1.0000 0.24670  0.67000  0.09910  Biso   1.000  O
  O2       1.0000 0.74670  0.17000  0.09910  Biso   1.000  O
  O3       1.0000 0.75330  0.67000  0.40090  Biso   1.000  O
  O4       1.0000 0.25330  0.17000  0.40090  Biso   1.000  O
  O5       1.0000 0.75330  0.33000  0.90090  Biso   1.000  O
  O6       1.0000 0.25330  0.83000  0.90090  Biso   1.000  O
  O7       1.0000 0.24670  0.33000  0.59910  Biso   1.000  O
  O8       1.0000 0.74670  0.83000  0.59910  Biso   1.000  O
  C1       1.0000 0.20950  0.65900  0.13800  Biso   1.000  C
  C2       1.0000 0.70950  0.15900  0.13800  Biso   1.000  C
  C3       1.0000 0.79050  0.65900  0.36200  Biso   1.000  C
  C4       1.0000 0.29050  0.15900  0.36200  Biso   1.000  C
  C5       1.0000 0.79050  0.34100  0.86200  Biso   1.000  C
  C6       1.0000 0.29050  0.84100  0.86200  Biso   1.000  C
  C7       1.0000 0.20950  0.34100  0.63800  Biso   1.000  C
  C8       1.0000 0.70950  0.84100  0.63800  Biso   1.000  C
  H1       1.0000 0.20540  0.57660  0.14910  Biso   1.000  H
  H2       1.0000 0.70540  0.07660  0.14910  Biso   1.000  H
  H3       1.0000 0.79460  0.57660  0.35090  Biso   1.000  H
  H4       1.0000 0.29460  0.07660  0.35090  Biso   1.000  H
  H5       1.0000 0.79460  0.42340  0.85090  Biso   1.000  H
  H6       1.0000 0.29460  0.92340  0.85090  Biso   1.000  H
  H7       1.0000 0.20540  0.42340  0.64910  Biso   1.000  H
  H8       1.0000 0.70540  0.92340  0.64910  Biso   1.000  H
  H9       1.0000 0.16850  0.69020  0.09760  Biso   1.000  H
  H10      1.0000 0.66850  0.19020  0.09760  Biso   1.000  H
  H11      1.0000 0.83150  0.69020  0.40240  Biso   1.000  H
  H12      1.0000 0.33150  0.19020  0.40240  Biso   1.000  H
  H13      1.0000 0.83150  0.30980  0.90240  Biso   1.000  H
  H14      1.0000 0.33150  0.80980  0.90240  Biso   1.000  H
  H15      1.0000 0.16850  0.30980  0.59760  Biso   1.000  H
  H16      1.0000 0.66850  0.80980  0.59760  Biso   1.000  H
  C9       1.0000 0.23600  0.72700  0.21900  Biso   1.000  C
  C10      1.0000 0.73600  0.22700  0.21900  Biso   1.000  C
  C11      1.0000 0.76400  0.72700  0.28100  Biso   1.000  C
  C12      1.0000 0.26400  0.22700  0.28100  Biso   1.000  C
  C13      1.0000 0.76400  0.27300  0.78100  Biso   1.000  C
  C14      1.0000 0.26400  0.77300  0.78100  Biso   1.000  C
  C15      1.0000 0.23600  0.27300  0.71900  Biso   1.000  C
  C16      1.0000 0.73600  0.77300  0.71900  Biso   1.000  C
  H17      1.0000 0.23800  0.80920  0.20570  Biso   1.000  H
  H18      1.0000 0.73800  0.30920  0.20570  Biso   1.000  H
  H19      1.0000 0.76200  0.80920  0.29430  Biso   1.000  H
  H20      1.0000 0.26200  0.30920  0.29430  Biso   1.000  H
  H21      1.0000 0.76200  0.19080  0.79430  Biso   1.000  H
  H22      1.0000 0.26200  0.69080  0.79430  Biso   1.000  H
  H23      1.0000 0.23800  0.19080  0.70570  Biso   1.000  H
  H24      1.0000 0.73800  0.69080  0.70570  Biso   1.000  H
  H25      1.0000 0.20770  0.72140  0.24240  Biso   1.000  H
  H26      1.0000 0.70770  0.22140  0.24240  Biso   1.000  H
  H27      1.0000 0.79230  0.72140  0.25760  Biso   1.000  H
  H28      1.0000 0.29230  0.22140  0.25760  Biso   1.000  H
  H29      1.0000 0.79230  0.27860  0.75760  Biso   1.000  H
  H30      1.0000 0.29230  0.77860  0.75760  Biso   1.000  H
  H31      1.0000 0.20770  0.27860  0.74240  Biso   1.000  H
  H32      1.0000 0.70770  0.77860  0.74240  Biso   1.000  H
  O9       1.0000 0.29210  0.69300  0.28490  Biso   1.000  O
  O10      1.0000 0.79210  0.19300  0.28490  Biso   1.000  O
  O11      1.0000 0.70790  0.69300  0.21510  Biso   1.000  O
  O12      1.0000 0.20790  0.19300  0.21510  Biso   1.000  O
  O13      1.0000 0.70790  0.30700  0.71510  Biso   1.000  O
  O14      1.0000 0.20790  0.80700  0.71510  Biso   1.000  O
  O15      1.0000 0.29210  0.30700  0.78490  Biso   1.000  O
  O16      1.0000 0.79210  0.80700  0.78490  Biso   1.000  O
  C17      1.0000 0.29400  0.61700  0.34300  Biso   1.000  C
  C18      1.0000 0.79400  0.11700  0.34300  Biso   1.000  C
  C19      1.0000 0.70600  0.61700  0.15700  Biso   1.000  C
  C20      1.0000 0.20600  0.11700  0.15700  Biso   1.000  C
  C21      1.0000 0.70600  0.38300  0.65700  Biso   1.000  C
  C22      1.0000 0.20600  0.88300  0.65700  Biso   1.000  C
  C23      1.0000 0.29400  0.38300  0.84300  Biso   1.000  C
  C24      1.0000 0.79400  0.88300  0.84300  Biso   1.000  C
  H33      1.0000 0.26280  0.55670  0.31180  Biso   1.000  H
  H34      1.0000 0.76280  0.05670  0.31180  Biso   1.000  H
  H35      1.0000 0.73720  0.55670  0.18820  Biso   1.000  H
  H36      1.0000 0.23720  0.05670  0.18820  Biso   1.000  H
  H37      1.0000 0.73720  0.44330  0.68820  Biso   1.000  H
  H38      1.0000 0.23720  0.94330  0.68820  Biso   1.000  H
  H39      1.0000 0.26280  0.44330  0.81180  Biso   1.000  H
  H40      1.0000 0.76280  0.94330  0.81180  Biso   1.000  H
  H41      1.0000 0.28290  0.65810  0.38220  Biso   1.000  H
  H42      1.0000 0.78290  0.15810  0.38220  Biso   1.000  H
  H43      1.0000 0.71710  0.65810  0.11780  Biso   1.000  H
  H44      1.0000 0.21710  0.15810  0.11780  Biso   1.000  H
  H45      1.0000 0.71710  0.34190  0.61780  Biso   1.000  H
  H46      1.0000 0.21710  0.84190  0.61780  Biso   1.000  H
  H47      1.0000 0.28290  0.34190  0.88220  Biso   1.000  H
  H48      1.0000 0.78290  0.84190  0.88220  Biso   1.000  H
  C25      1.0000 0.35400  0.56000  0.39700  Biso   1.000  C
  C26      1.0000 0.85400  0.06000  0.39700  Biso   1.000  C
  C27      1.0000 0.64600  0.56000  0.10300  Biso   1.000  C
  C28      1.0000 0.14600  0.06000  0.10300  Biso   1.000  C
  C29      1.0000 0.64600  0.44000  0.60300  Biso   1.000  C
  C30      1.0000 0.14600  0.94000  0.60300  Biso   1.000  C
  C31      1.0000 0.35400  0.44000  0.89700  Biso   1.000  C
  C32      1.0000 0.85400  0.94000  0.89700  Biso   1.000  C
  H49      1.0000 0.38610  0.61860  0.42810  Biso   1.000  H
  H50      1.0000 0.88610  0.11860  0.42810  Biso   1.000  H
  H51      1.0000 0.61390  0.61860  0.07190  Biso   1.000  H
  H52      1.0000 0.11390  0.11860  0.07190  Biso   1.000  H
  H53      1.0000 0.61390  0.38140  0.57190  Biso   1.000  H
  H54      1.0000 0.11390  0.88140  0.57190  Biso   1.000  H
  H55      1.0000 0.38610  0.38140  0.92810  Biso   1.000  H
  H56      1.0000 0.88610  0.88140  0.92810  Biso   1.000  H
  H57      1.0000 0.35260  0.50900  0.44140  Biso   1.000  H
  H58      1.0000 0.85260  0.00900  0.44140  Biso   1.000  H
  H59      1.0000 0.64740  0.50900  0.05860  Biso   1.000  H
  H60      1.0000 0.14740  0.00900  0.05860  Biso   1.000  H
  H61      1.0000 0.64740  0.49100  0.55860  Biso   1.000  H
  H62      1.0000 0.14740  0.99100  0.55860  Biso   1.000  H
  H63      1.0000 0.35260  0.49100  0.94140  Biso   1.000  H
  H64      1.0000 0.85260  0.99100  0.94140  Biso   1.000  H
  O17      1.0000 0.36780  0.49000  0.34110  Biso   1.000  O
  O18      1.0000 0.86780  0.99000  0.34110  Biso   1.000  O
  O19      1.0000 0.63220  0.49000  0.15890  Biso   1.000  O
  O20      1.0000 0.13220  0.99000  0.15890  Biso   1.000  O
  O21      1.0000 0.63220  0.51000  0.65890  Biso   1.000  O
  O22      1.0000 0.13220  0.01000  0.65890  Biso   1.000  O
  O23      1.0000 0.36780  0.51000  0.84110  Biso   1.000  O
  O24      1.0000 0.86780  0.01000  0.84110  Biso   1.000  O
  C33      1.0000 0.42860  0.44600  0.38320  Biso   1.000  C
  C34      1.0000 0.92860  0.94600  0.38320  Biso   1.000  C
  C35      1.0000 0.57140  0.44600  0.11680  Biso   1.000  C
  C36      1.0000 0.07140  0.94600  0.11680  Biso   1.000  C
  C37      1.0000 0.57140  0.55400  0.61680  Biso   1.000  C
  C38      1.0000 0.07140  0.05400  0.61680  Biso   1.000  C
  C39      1.0000 0.42860  0.55400  0.88320  Biso   1.000  C
  C40      1.0000 0.92860  0.05400  0.88320  Biso   1.000  C
  H65      1.0000 0.43710  0.40100  0.43550  Biso   1.000  H
  H66      1.0000 0.93710  0.90100  0.43550  Biso   1.000  H
  H67      1.0000 0.56290  0.40100  0.06450  Biso   1.000  H
  H68      1.0000 0.06290  0.90100  0.06450  Biso   1.000  H
  H69      1.0000 0.56290  0.59900  0.56450  Biso   1.000  H
  H70      1.0000 0.06290  0.09900  0.56450  Biso   1.000  H
  H71      1.0000 0.43710  0.59900  0.93550  Biso   1.000  H
  H72      1.0000 0.93710  0.09900  0.93550  Biso   1.000  H
  H73      1.0000 0.45830  0.51070  0.40100  Biso   1.000  H
  H74      1.0000 0.95830  0.01070  0.40100  Biso   1.000  H
  H75      1.0000 0.54170  0.51070  0.09900  Biso   1.000  H
  H76      1.0000 0.04170  0.01070  0.09900  Biso   1.000  H
  H77      1.0000 0.54170  0.48930  0.59900  Biso   1.000  H
  H78      1.0000 0.04170  0.98930  0.59900  Biso   1.000  H
  H79      1.0000 0.45830  0.48930  0.90100  Biso   1.000  H
  H80      1.0000 0.95830  0.98930  0.90100  Biso   1.000  H
  C41      1.0000 0.43220  0.37000  0.31700  Biso   1.000  C
  C42      1.0000 0.93220  0.87000  0.31700  Biso   1.000  C
  C43      1.0000 0.56780  0.37000  0.18300  Biso   1.000  C
  C44      1.0000 0.06780  0.87000  0.18300  Biso   1.000  C
  C45      1.0000 0.56780  0.63000  0.68300  Biso   1.000  C
  C46      1.0000 0.06780  0.13000  0.68300  Biso   1.000  C
  C47      1.0000 0.43220  0.63000  0.81700  Biso   1.000  C
  C48      1.0000 0.93220  0.13000  0.81700  Biso   1.000  C
  H81      1.0000 0.47060  0.32520  0.34640  Biso   1.000  H
  H82      1.0000 0.97060  0.82520  0.34640  Biso   1.000  H
  H83      1.0000 0.52940  0.32520  0.15360  Biso   1.000  H
  H84      1.0000 0.02940  0.82520  0.15360  Biso   1.000  H
  H85      1.0000 0.52940  0.67480  0.65360  Biso   1.000  H
  H86      1.0000 0.02940  0.17480  0.65360  Biso   1.000  H
  H87      1.0000 0.47060  0.67480  0.84640  Biso   1.000  H
  H88      1.0000 0.97060  0.17480  0.84640  Biso   1.000  H
  H89      1.0000 0.39810  0.31390  0.29430  Biso   1.000  H
  H90      1.0000 0.89810  0.81390  0.29430  Biso   1.000  H
  H91      1.0000 0.60190  0.31390  0.20570  Biso   1.000  H
  H92      1.0000 0.10190  0.81390  0.20570  Biso   1.000  H
  H93      1.0000 0.60190  0.68610  0.70570  Biso   1.000  H
  H94      1.0000 0.10190  0.18610  0.70570  Biso   1.000  H
  H95      1.0000 0.39810  0.68610  0.79430  Biso   1.000  H
  H96      1.0000 0.89810  0.18610  0.79430  Biso   1.000  H
  O25      1.0000 0.42980  0.43500  0.24680  Biso   1.000  O
  O26      1.0000 0.92980  0.93500  0.24680  Biso   1.000  O
  O27      1.0000 0.57020  0.43500  0.25320  Biso   1.000  O
  O28      1.0000 0.07020  0.93500  0.25320  Biso   1.000  O
  O29      1.0000 0.57020  0.56500  0.75320  Biso   1.000  O
  O30      1.0000 0.07020  0.06500  0.75320  Biso   1.000  O
  O31      1.0000 0.42980  0.56500  0.74680  Biso   1.000  O
  O32      1.0000 0.92980  0.06500  0.74680  Biso   1.000  O
  C49      1.0000 0.40950  0.37100  0.16400  Biso   1.000  C
  C50      1.0000 0.90950  0.87100  0.16400  Biso   1.000  C
  C51      1.0000 0.59050  0.37100  0.33600  Biso   1.000  C
  C52      1.0000 0.09050  0.87100  0.33600  Biso   1.000  C
  C53      1.0000 0.59050  0.62900  0.83600  Biso   1.000  C
  C54      1.0000 0.09050  0.12900  0.83600  Biso   1.000  C
  C55      1.0000 0.40950  0.62900  0.66400  Biso   1.000  C
  C56      1.0000 0.90950  0.12900  0.66400  Biso   1.000  C
  H97      1.0000 0.42710  0.29240  0.17730  Biso   1.000  H
  H98      1.0000 0.92710  0.79240  0.17730  Biso   1.000  H
  H99      1.0000 0.57290  0.29240  0.32270  Biso   1.000  H
  H100     1.0000 0.07290  0.79240  0.32270  Biso   1.000  H
  H101     1.0000 0.57290  0.70760  0.82270  Biso   1.000  H
  H102     1.0000 0.07290  0.20760  0.82270  Biso   1.000  H
  H103     1.0000 0.42710  0.70760  0.67730  Biso   1.000  H
  H104     1.0000 0.92710  0.20760  0.67730  Biso   1.000  H
  H105     1.0000 0.42460  0.41190  0.12960  Biso   1.000  H
  H106     1.0000 0.92460  0.91190  0.12960  Biso   1.000  H
  H107     1.0000 0.57540  0.41190  0.37040  Biso   1.000  H
  H108     1.0000 0.07540  0.91190  0.37040  Biso   1.000  H
  H109     1.0000 0.57540  0.58810  0.87040  Biso   1.000  H
  H110     1.0000 0.07540  0.08810  0.87040  Biso   1.000  H
  H111     1.0000 0.42460  0.58810  0.62960  Biso   1.000  H
  H112     1.0000 0.92460  0.08810  0.62960  Biso   1.000  H
  C57      1.0000 0.34370  0.36300  0.11300  Biso   1.000  C
  C58      1.0000 0.84370  0.86300  0.11300  Biso   1.000  C
  C59      1.0000 0.65630  0.36300  0.38700  Biso   1.000  C
  C60      1.0000 0.15630  0.86300  0.38700  Biso   1.000  C
  C61      1.0000 0.65630  0.63700  0.88700  Biso   1.000  C
  C62      1.0000 0.15630  0.13700  0.88700  Biso   1.000  C
  C63      1.0000 0.34370  0.63700  0.61300  Biso   1.000  C
  C64      1.0000 0.84370  0.13700  0.61300  Biso   1.000  C
  H113     1.0000 0.33220  0.31360  0.06160  Biso   1.000  H
  H114     1.0000 0.83220  0.81360  0.06160  Biso   1.000  H
  H115     1.0000 0.66780  0.31360  0.43840  Biso   1.000  H
  H116     1.0000 0.16780  0.81360  0.43840  Biso   1.000  H
  H117     1.0000 0.66780  0.68640  0.93840  Biso   1.000  H
  H118     1.0000 0.16780  0.18640  0.93840  Biso   1.000  H
  H119     1.0000 0.33220  0.68640  0.56160  Biso   1.000  H
  H120     1.0000 0.83220  0.18640  0.56160  Biso   1.000  H
  H121     1.0000 0.32850  0.32460  0.14880  Biso   1.000  H
  H122     1.0000 0.82850  0.82460  0.14880  Biso   1.000  H
  H123     1.0000 0.67150  0.32460  0.35120  Biso   1.000  H
  H124     1.0000 0.17150  0.82460  0.35120  Biso   1.000  H
  H125     1.0000 0.67150  0.67540  0.85120  Biso   1.000  H
  H126     1.0000 0.17150  0.17540  0.85120  Biso   1.000  H
  H127     1.0000 0.32850  0.67540  0.64880  Biso   1.000  H
  H128     1.0000 0.82850  0.17540  0.64880  Biso   1.000  H
  O33      1.0000 0.31540  0.47300  0.08590  Biso   1.000  O
  O34      1.0000 0.81540  0.97300  0.08590  Biso   1.000  O
  O35      1.0000 0.68460  0.47300  0.41410  Biso   1.000  O
  O36      1.0000 0.18460  0.97300  0.41410  Biso   1.000  O
  O37      1.0000 0.68460  0.52700  0.91410  Biso   1.000  O
  O38      1.0000 0.18460  0.02700  0.91410  Biso   1.000  O
  O39      1.0000 0.31540  0.52700  0.58590  Biso   1.000  O
  O40      1.0000 0.81540  0.02700  0.58590  Biso   1.000  O
  C65      1.0000 0.24830  0.47000  0.04200  Biso   1.000  C
  C66      1.0000 0.74830  0.97000  0.04200  Biso   1.000  C
  C67      1.0000 0.75170  0.47000  0.45800  Biso   1.000  C
  C68      1.0000 0.25170  0.97000  0.45800  Biso   1.000  C
  C69      1.0000 0.75170  0.53000  0.95800  Biso   1.000  C
  C70      1.0000 0.25170  0.03000  0.95800  Biso   1.000  C
  C71      1.0000 0.24830  0.53000  0.54200  Biso   1.000  C
  C72      1.0000 0.74830  0.03000  0.54200  Biso   1.000  C
  H129     1.0000 0.23470  0.43290  0.07970  Biso   1.000  H
  H130     1.0000 0.73470  0.93290  0.07970  Biso   1.000  H
  H131     1.0000 0.76530  0.43290  0.42030  Biso   1.000  H
  H132     1.0000 0.26530  0.93290  0.42030  Biso   1.000  H
  H133     1.0000 0.76530  0.56710  0.92030  Biso   1.000  H
  H134     1.0000 0.26530  0.06710  0.92030  Biso   1.000  H
  H135     1.0000 0.23470  0.56710  0.57970  Biso   1.000  H
  H136     1.0000 0.73470  0.06710  0.57970  Biso   1.000  H
  H137     1.0000 0.23150  0.42640  0.98700  Biso   1.000  H
  H138     1.0000 0.73150  0.92640  0.98700  Biso   1.000  H
  H139     1.0000 0.76850  0.42640  0.51300  Biso   1.000  H
  H140     1.0000 0.26850  0.92640  0.51300  Biso   1.000  H
  H141     1.0000 0.76850  0.57360  0.01300  Biso   1.000  H
  H142     1.0000 0.26850  0.07360  0.01300  Biso   1.000  H
  H143     1.0000 0.23150  0.57360  0.48700  Biso   1.000  H
  H144     1.0000 0.73150  0.07360  0.48700  Biso   1.000  H
  C73      1.0000 0.22690  0.59800  0.02400  Biso   1.000  C
  C74      1.0000 0.72690  0.09800  0.02400  Biso   1.000  C
  C75      1.0000 0.77310  0.59800  0.47600  Biso   1.000  C
  C76      1.0000 0.27310  0.09800  0.47600  Biso   1.000  C
  C77      1.0000 0.77310  0.40200  0.97600  Biso   1.000  C
  C78      1.0000 0.27310  0.90200  0.97600  Biso   1.000  C
  C79      1.0000 0.22690  0.40200  0.52400  Biso   1.000  C
  C80      1.0000 0.72690  0.90200  0.52400  Biso   1.000  C
  H145     1.0000 0.24110  0.63270  0.98600  Biso   1.000  H
  H146     1.0000 0.74110  0.13270  0.98600  Biso   1.000  H
  H147     1.0000 0.75890  0.63270  0.51400  Biso   1.000  H
  H148     1.0000 0.25890  0.13270  0.51400  Biso   1.000  H
  H149     1.0000 0.75890  0.36730  0.01400  Biso   1.000  H
  H150     1.0000 0.25890  0.86730  0.01400  Biso   1.000  H
  H151     1.0000 0.24110  0.36730  0.48600  Biso   1.000  H
  H152     1.0000 0.74110  0.86730  0.48600  Biso   1.000  H
  H153     1.0000 0.18190  0.59810  0.99060  Biso   1.000  H
  H154     1.0000 0.68190  0.09810  0.99060  Biso   1.000  H
  H155     1.0000 0.81810  0.59810  0.50940  Biso   1.000  H
  H156     1.0000 0.31810  0.09810  0.50940  Biso   1.000  H
  H157     1.0000 0.81810  0.40190  0.00940  Biso   1.000  H
  H158     1.0000 0.31810  0.90190  0.00940  Biso   1.000  H
  H159     1.0000 0.18190  0.40190  0.49060  Biso   1.000  H
  H160     1.0000 0.68190  0.90190  0.49060  Biso   1.000  H
