data_image0
_cell_length_a       15.44
_cell_length_b       17.635
_cell_length_c       8.422
_cell_angle_alpha    90
_cell_angle_beta     97.14
_cell_angle_gamma    90

_symmetry_space_group_name_H-M    "P 1"
_symmetry_int_tables_number       1

loop_
  _symmetry_equiv_pos_as_xyz
  'x, y, z'

loop_
  _atom_site_label
  _atom_site_occupancy
  _atom_site_fract_x
  _atom_site_fract_y
  _atom_site_fract_z
  _atom_site_thermal_displace_type
  _atom_site_B_iso_or_equiv
  _atom_site_type_symbol
  I1       1.0000 0.72960  0.58010  0.07410  Biso   1.000  I
  I2       1.0000 0.27040  0.08010  0.42590  Biso   1.000  I
  I3       1.0000 0.27040  0.41990  0.92590  Biso   1.000  I
  I4       1.0000 0.72960  0.91990  0.57410  Biso   1.000  I
  I5       1.0000 0.61680  0.79600  0.14400  Biso   1.000  I
  I6       1.0000 0.38320  0.29600  0.35600  Biso   1.000  I
  I7       1.0000 0.38320  0.20400  0.85600  Biso   1.000  I
  I8       1.0000 0.61680  0.70400  0.64400  Biso   1.000  I
  I9       1.0000 0.85880  0.79010  0.97450  Biso   1.000  I
  I10      1.0000 0.14120  0.29010  0.52550  Biso   1.000  I
  I11      1.0000 0.14120  0.20990  0.02550  Biso   1.000  I
  I12      1.0000 0.85880  0.70990  0.47450  Biso   1.000  I
  Cu1      1.0000 0.77300  0.71520  0.19880  Biso   1.000  Cu
  Cu2      1.0000 0.22700  0.21520  0.30120  Biso   1.000  Cu
  Cu3      1.0000 0.22700  0.28480  0.80120  Biso   1.000  Cu
  Cu4      1.0000 0.77300  0.78480  0.69880  Biso   1.000  Cu
  Cu5      1.0000 0.69930  0.71010  0.92170  Biso   1.000  Cu
  Cu6      1.0000 0.30070  0.21010  0.57830  Biso   1.000  Cu
  Cu7      1.0000 0.30070  0.28990  0.07830  Biso   1.000  Cu
  Cu8      1.0000 0.69930  0.78990  0.42170  Biso   1.000  Cu
  K1       1.0000 0.76310  0.40780  0.90710  Biso   1.000  K
  K2       1.0000 0.23690  0.90780  0.59290  Biso   1.000  K
  K3       1.0000 0.23690  0.59220  0.09290  Biso   1.000  K
  K4       1.0000 0.76310  0.09220  0.40710  Biso   1.000  K
  O1       1.0000 0.92420  0.34820  0.01200  Biso   1.000  O
  O2       1.0000 0.07580  0.84820  0.48800  Biso   1.000  O
  O3       1.0000 0.07580  0.65180  0.98800  Biso   1.000  O
  O4       1.0000 0.92420  0.15180  0.51200  Biso   1.000  O
  C1       1.0000 0.93200  0.33600  0.19600  Biso   1.000  C
  C2       1.0000 0.06800  0.83600  0.30400  Biso   1.000  C
  C3       1.0000 0.06800  0.66400  0.80400  Biso   1.000  C
  C4       1.0000 0.93200  0.16400  0.69600  Biso   1.000  C
  H1       1.0000 0.97240  0.29490  0.21900  Biso   1.000  H
  H2       1.0000 0.02760  0.79490  0.28100  Biso   1.000  H
  H3       1.0000 0.02760  0.70510  0.78100  Biso   1.000  H
  H4       1.0000 0.97240  0.20510  0.71900  Biso   1.000  H
  H5       1.0000 0.96030  0.38080  0.24010  Biso   1.000  H
  H6       1.0000 0.03970  0.88080  0.25990  Biso   1.000  H
  H7       1.0000 0.03970  0.61920  0.75990  Biso   1.000  H
  H8       1.0000 0.96030  0.11920  0.74010  Biso   1.000  H
  C5       1.0000 0.87100  0.32400  0.27100  Biso   1.000  C
  C6       1.0000 0.12900  0.82400  0.22900  Biso   1.000  C
  C7       1.0000 0.12900  0.67600  0.72900  Biso   1.000  C
  C8       1.0000 0.87100  0.17600  0.77100  Biso   1.000  C
  H9       1.0000 0.88210  0.27580  0.32040  Biso   1.000  H
  H10      1.0000 0.11790  0.77580  0.17960  Biso   1.000  H
  H11      1.0000 0.11790  0.72420  0.67960  Biso   1.000  H
  H12      1.0000 0.88210  0.22420  0.82040  Biso   1.000  H
  H13      1.0000 0.87610  0.36080  0.35620  Biso   1.000  H
  H14      1.0000 0.12390  0.86080  0.14380  Biso   1.000  H
  H15      1.0000 0.12390  0.63920  0.64380  Biso   1.000  H
  H16      1.0000 0.87610  0.13920  0.85620  Biso   1.000  H
  O5       1.0000 0.79700  0.32370  0.19600  Biso   1.000  O
  O6       1.0000 0.20300  0.82370  0.30400  Biso   1.000  O
  O7       1.0000 0.20300  0.67630  0.80400  Biso   1.000  O
  O8       1.0000 0.79700  0.17630  0.69600  Biso   1.000  O
  C9       1.0000 0.71800  0.29100  0.24200  Biso   1.000  C
  C10      1.0000 0.28200  0.79100  0.25800  Biso   1.000  C
  C11      1.0000 0.28200  0.70900  0.75800  Biso   1.000  C
  C12      1.0000 0.71800  0.20900  0.74200  Biso   1.000  C
  H17      1.0000 0.72970  0.23920  0.22010  Biso   1.000  H
  H18      1.0000 0.27030  0.73920  0.27990  Biso   1.000  H
  H19      1.0000 0.27030  0.76080  0.77990  Biso   1.000  H
  H20      1.0000 0.72970  0.26080  0.72010  Biso   1.000  H
  H21      1.0000 0.71780  0.29520  0.35580  Biso   1.000  H
  H22      1.0000 0.28220  0.79520  0.14420  Biso   1.000  H
  H23      1.0000 0.28220  0.70480  0.64420  Biso   1.000  H
  H24      1.0000 0.71780  0.20480  0.85580  Biso   1.000  H
  C13      1.0000 0.64700  0.29500  0.15000  Biso   1.000  C
  C14      1.0000 0.35300  0.79500  0.35000  Biso   1.000  C
  C15      1.0000 0.35300  0.70500  0.85000  Biso   1.000  C
  C16      1.0000 0.64700  0.20500  0.65000  Biso   1.000  C
  H25      1.0000 0.61700  0.24830  0.13000  Biso   1.000  H
  H26      1.0000 0.38300  0.74830  0.37000  Biso   1.000  H
  H27      1.0000 0.38300  0.75170  0.87000  Biso   1.000  H
  H28      1.0000 0.61700  0.25170  0.63000  Biso   1.000  H
  H29      1.0000 0.61770  0.32440  0.22300  Biso   1.000  H
  H30      1.0000 0.38230  0.82440  0.27700  Biso   1.000  H
  H31      1.0000 0.38230  0.67560  0.77700  Biso   1.000  H
  H32      1.0000 0.61770  0.17560  0.72300  Biso   1.000  H
  O9       1.0000 0.62300  0.33600  0.03500  Biso   1.000  O
  O10      1.0000 0.37700  0.83600  0.46500  Biso   1.000  O
  O11      1.0000 0.37700  0.66400  0.96500  Biso   1.000  O
  O12      1.0000 0.62300  0.16400  0.53500  Biso   1.000  O
  C17      1.0000 0.55100  0.37400  0.01000  Biso   1.000  C
  C18      1.0000 0.44900  0.87400  0.49000  Biso   1.000  C
  C19      1.0000 0.44900  0.62600  0.99000  Biso   1.000  C
  C20      1.0000 0.55100  0.12600  0.51000  Biso   1.000  C
  H33      1.0000 0.50630  0.34510  0.05030  Biso   1.000  H
  H34      1.0000 0.49370  0.84510  0.44970  Biso   1.000  H
  H35      1.0000 0.49370  0.65490  0.94970  Biso   1.000  H
  H36      1.0000 0.50630  0.15490  0.55030  Biso   1.000  H
  H37      1.0000 0.55860  0.42160  0.06600  Biso   1.000  H
  H38      1.0000 0.44140  0.92160  0.43400  Biso   1.000  H
  H39      1.0000 0.44140  0.57840  0.93400  Biso   1.000  H
  H40      1.0000 0.55860  0.07840  0.56600  Biso   1.000  H
  C21      1.0000 0.53180  0.38750  0.81700  Biso   1.000  C
  C22      1.0000 0.46820  0.88750  0.68300  Biso   1.000  C
  C23      1.0000 0.46820  0.61250  0.18300  Biso   1.000  C
  C24      1.0000 0.53180  0.11250  0.31700  Biso   1.000  C
  H41      1.0000 0.52070  0.33910  0.76640  Biso   1.000  H
  H42      1.0000 0.47930  0.83910  0.73360  Biso   1.000  H
  H43      1.0000 0.47930  0.66090  0.23360  Biso   1.000  H
  H44      1.0000 0.52070  0.16090  0.26640  Biso   1.000  H
  H45      1.0000 0.48040  0.41810  0.79320  Biso   1.000  H
  H46      1.0000 0.51960  0.91810  0.70680  Biso   1.000  H
  H47      1.0000 0.51960  0.58190  0.20680  Biso   1.000  H
  H48      1.0000 0.48040  0.08190  0.29320  Biso   1.000  H
  O13      1.0000 0.59700  0.42460  0.75600  Biso   1.000  O
  O14      1.0000 0.40300  0.92460  0.74400  Biso   1.000  O
  O15      1.0000 0.40300  0.57540  0.24400  Biso   1.000  O
  O16      1.0000 0.59700  0.07540  0.25600  Biso   1.000  O
  C25      1.0000 0.57600  0.43000  0.58900  Biso   1.000  C
  C26      1.0000 0.42400  0.93000  0.91100  Biso   1.000  C
  C27      1.0000 0.42400  0.57000  0.41100  Biso   1.000  C
  C28      1.0000 0.57600  0.07000  0.08900  Biso   1.000  C
  H49      1.0000 0.57170  0.38360  0.53000  Biso   1.000  H
  H50      1.0000 0.42830  0.88360  0.97000  Biso   1.000  H
  H51      1.0000 0.42830  0.61640  0.47000  Biso   1.000  H
  H52      1.0000 0.57170  0.11640  0.03000  Biso   1.000  H
  H53      1.0000 0.52070  0.45640  0.57860  Biso   1.000  H
  H54      1.0000 0.47930  0.95640  0.92140  Biso   1.000  H
  H55      1.0000 0.47930  0.54360  0.42140  Biso   1.000  H
  H56      1.0000 0.52070  0.04360  0.07860  Biso   1.000  H
  C29      1.0000 0.64800  0.48400  0.55100  Biso   1.000  C
  C30      1.0000 0.35200  0.98400  0.94900  Biso   1.000  C
  C31      1.0000 0.35200  0.51600  0.44900  Biso   1.000  C
  C32      1.0000 0.64800  0.01600  0.05100  Biso   1.000  C
  H57      1.0000 0.63840  0.50450  0.44460  Biso   1.000  H
  H58      1.0000 0.36160  0.00450  0.05540  Biso   1.000  H
  H59      1.0000 0.36160  0.49550  0.55540  Biso   1.000  H
  H60      1.0000 0.63840  0.99550  0.94460  Biso   1.000  H
  H61      1.0000 0.65180  0.52520  0.62510  Biso   1.000  H
  H62      1.0000 0.34820  0.02520  0.87490  Biso   1.000  H
  H63      1.0000 0.34820  0.47480  0.37490  Biso   1.000  H
  H64      1.0000 0.65180  0.97480  0.12510  Biso   1.000  H
  O17      1.0000 0.72800  0.44200  0.57500  Biso   1.000  O
  O18      1.0000 0.27200  0.94200  0.92500  Biso   1.000  O
  O19      1.0000 0.27200  0.55800  0.42500  Biso   1.000  O
  O20      1.0000 0.72800  0.05800  0.07500  Biso   1.000  O
  C33      1.0000 0.79100  0.48300  0.56000  Biso   1.000  C
  C34      1.0000 0.20900  0.98300  0.94000  Biso   1.000  C
  C35      1.0000 0.20900  0.51700  0.44000  Biso   1.000  C
  C36      1.0000 0.79100  0.01700  0.06000  Biso   1.000  C
  H65      1.0000 0.79710  0.46290  0.45850  Biso   1.000  H
  H66      1.0000 0.20290  0.96290  0.04150  Biso   1.000  H
  H67      1.0000 0.20290  0.53710  0.54150  Biso   1.000  H
  H68      1.0000 0.79710  0.03710  0.95850  Biso   1.000  H
  H69      1.0000 0.76140  0.53070  0.55120  Biso   1.000  H
  H70      1.0000 0.23860  0.03070  0.94880  Biso   1.000  H
  H71      1.0000 0.23860  0.46930  0.44880  Biso   1.000  H
  H72      1.0000 0.76140  0.96930  0.05120  Biso   1.000  H
  C37      1.0000 0.89400  0.48900  0.62800  Biso   1.000  C
  C38      1.0000 0.10600  0.98900  0.87200  Biso   1.000  C
  C39      1.0000 0.10600  0.51100  0.37200  Biso   1.000  C
  C40      1.0000 0.89400  0.01100  0.12800  Biso   1.000  C
  H73      1.0000 0.94010  0.49270  0.56030  Biso   1.000  H
  H74      1.0000 0.05990  0.99270  0.93970  Biso   1.000  H
  H75      1.0000 0.05990  0.50730  0.43970  Biso   1.000  H
  H76      1.0000 0.94010  0.00730  0.06030  Biso   1.000  H
  H77      1.0000 0.89560  0.53460  0.69110  Biso   1.000  H
  H78      1.0000 0.10440  0.03460  0.80890  Biso   1.000  H
  H79      1.0000 0.10440  0.46540  0.30890  Biso   1.000  H
  H80      1.0000 0.89560  0.96540  0.19110  Biso   1.000  H
  O21      1.0000 0.89800  0.43610  0.74500  Biso   1.000  O
  O22      1.0000 0.10200  0.93610  0.75500  Biso   1.000  O
  O23      1.0000 0.10200  0.56390  0.25500  Biso   1.000  O
  O24      1.0000 0.89800  0.06390  0.24500  Biso   1.000  O
  C41      1.0000 0.97000  0.39500  0.78200  Biso   1.000  C
  C42      1.0000 0.03000  0.89500  0.71800  Biso   1.000  C
  C43      1.0000 0.03000  0.60500  0.21800  Biso   1.000  C
  C44      1.0000 0.97000  0.10500  0.28200  Biso   1.000  C
  H81      1.0000 0.96860  0.34540  0.73460  Biso   1.000  H
  H82      1.0000 0.03140  0.84540  0.76540  Biso   1.000  H
  H83      1.0000 0.03140  0.65460  0.26540  Biso   1.000  H
  H84      1.0000 0.96860  0.15460  0.23460  Biso   1.000  H
  H85      1.0000 0.01880  0.42020  0.74300  Biso   1.000  H
  H86      1.0000 0.98120  0.92020  0.75700  Biso   1.000  H
  H87      1.0000 0.98120  0.57980  0.25700  Biso   1.000  H
  H88      1.0000 0.01880  0.07980  0.24300  Biso   1.000  H
  C45      1.0000 0.99560  0.38520  0.95500  Biso   1.000  C
  C46      1.0000 0.00440  0.88520  0.54500  Biso   1.000  C
  C47      1.0000 0.00440  0.61480  0.04500  Biso   1.000  C
  C48      1.0000 0.99560  0.11480  0.45500  Biso   1.000  C
  H89      1.0000 0.00930  0.43150  0.01280  Biso   1.000  H
  H90      1.0000 0.99070  0.93150  0.48720  Biso   1.000  H
  H91      1.0000 0.99070  0.56850  0.98720  Biso   1.000  H
  H92      1.0000 0.00930  0.06850  0.51280  Biso   1.000  H
  H93      1.0000 0.04550  0.35230  0.96750  Biso   1.000  H
  H94      1.0000 0.95450  0.85230  0.53250  Biso   1.000  H
  H95      1.0000 0.95450  0.64770  0.03250  Biso   1.000  H
  H96      1.0000 0.04550  0.14770  0.46750  Biso   1.000  H
  O25      1.0000 0.90300  0.33500  0.12000  Biso   1.000  O
  O26      1.0000 0.09700  0.83500  0.38000  Biso   1.000  O
  O27      1.0000 0.09700  0.66500  0.88000  Biso   1.000  O
  O28      1.0000 0.90300  0.16500  0.62000  Biso   1.000  O
  C49      1.0000 0.85600  0.28200  0.22600  Biso   1.000  C
  C50      1.0000 0.14400  0.78200  0.27400  Biso   1.000  C
  C51      1.0000 0.14400  0.71800  0.77400  Biso   1.000  C
  C52      1.0000 0.85600  0.21800  0.72600  Biso   1.000  C
  H97      1.0000 0.86300  0.23200  0.18240  Biso   1.000  H
  H98      1.0000 0.13700  0.73200  0.31760  Biso   1.000  H
  H99      1.0000 0.13700  0.76800  0.81760  Biso   1.000  H
  H100     1.0000 0.86300  0.26800  0.68240  Biso   1.000  H
  H101     1.0000 0.89140  0.28250  0.32820  Biso   1.000  H
  H102     1.0000 0.10860  0.78250  0.17180  Biso   1.000  H
  H103     1.0000 0.10860  0.71750  0.67180  Biso   1.000  H
  H104     1.0000 0.89140  0.21750  0.82820  Biso   1.000  H
  C53      1.0000 0.78500  0.28500  0.25200  Biso   1.000  C
  C54      1.0000 0.21500  0.78500  0.24800  Biso   1.000  C
  C55      1.0000 0.21500  0.71500  0.74800  Biso   1.000  C
  C56      1.0000 0.78500  0.21500  0.75200  Biso   1.000  C
  H105     1.0000 0.76310  0.23390  0.24530  Biso   1.000  H
  H106     1.0000 0.23690  0.73390  0.25470  Biso   1.000  H
  H107     1.0000 0.23690  0.76610  0.75470  Biso   1.000  H
  H108     1.0000 0.76310  0.26610  0.74530  Biso   1.000  H
  H109     1.0000 0.78710  0.29990  0.36170  Biso   1.000  H
  H110     1.0000 0.21290  0.79990  0.13830  Biso   1.000  H
  H111     1.0000 0.21290  0.70010  0.63830  Biso   1.000  H
  H112     1.0000 0.78710  0.20010  0.86170  Biso   1.000  H
  O29      1.0000 0.72800  0.32700  0.17600  Biso   1.000  O
  O30      1.0000 0.27200  0.82700  0.32400  Biso   1.000  O
  O31      1.0000 0.27200  0.67300  0.82400  Biso   1.000  O
  O32      1.0000 0.72800  0.17300  0.67600  Biso   1.000  O
  C57      1.0000 0.64300  0.32100  0.20600  Biso   1.000  C
  C58      1.0000 0.35700  0.82100  0.29400  Biso   1.000  C
  C59      1.0000 0.35700  0.67900  0.79400  Biso   1.000  C
  C60      1.0000 0.64300  0.17900  0.70600  Biso   1.000  C
  H113     1.0000 0.63320  0.26790  0.21770  Biso   1.000  H
  H114     1.0000 0.36680  0.76790  0.28230  Biso   1.000  H
  H115     1.0000 0.36680  0.73210  0.78230  Biso   1.000  H
  H116     1.0000 0.63320  0.23210  0.71770  Biso   1.000  H
  H117     1.0000 0.63240  0.34480  0.30410  Biso   1.000  H
  H118     1.0000 0.36760  0.84480  0.19590  Biso   1.000  H
  H119     1.0000 0.36760  0.65520  0.69590  Biso   1.000  H
  H120     1.0000 0.63240  0.15520  0.80410  Biso   1.000  H
  C61      1.0000 0.59200  0.33800  0.10000  Biso   1.000  C
  C62      1.0000 0.40800  0.83800  0.40000  Biso   1.000  C
  C63      1.0000 0.40800  0.66200  0.90000  Biso   1.000  C
  C64      1.0000 0.59200  0.16200  0.60000  Biso   1.000  C
  H121     1.0000 0.54450  0.30310  0.09900  Biso   1.000  H
  H122     1.0000 0.45550  0.80310  0.40100  Biso   1.000  H
  H123     1.0000 0.45550  0.69690  0.90100  Biso   1.000  H
  H124     1.0000 0.54450  0.19690  0.59900  Biso   1.000  H
  H125     1.0000 0.57210  0.38500  0.14020  Biso   1.000  H
  H126     1.0000 0.42790  0.88500  0.35980  Biso   1.000  H
  H127     1.0000 0.42790  0.61500  0.85980  Biso   1.000  H
  H128     1.0000 0.57210  0.11500  0.64020  Biso   1.000  H
  O33      1.0000 0.59900  0.35000  0.91800  Biso   1.000  O
  O34      1.0000 0.40100  0.85000  0.58200  Biso   1.000  O
  O35      1.0000 0.40100  0.65000  0.08200  Biso   1.000  O
  O36      1.0000 0.59900  0.15000  0.41800  Biso   1.000  O
  C65      1.0000 0.56900  0.39300  0.62500  Biso   1.000  C
  C66      1.0000 0.43100  0.89300  0.87500  Biso   1.000  C
  C67      1.0000 0.43100  0.60700  0.37500  Biso   1.000  C
  C68      1.0000 0.56900  0.10700  0.12500  Biso   1.000  C
  H129     1.0000 0.52720  0.42510  0.56290  Biso   1.000  H
  H130     1.0000 0.47280  0.92510  0.93710  Biso   1.000  H
  H131     1.0000 0.47280  0.57490  0.43710  Biso   1.000  H
  H132     1.0000 0.52720  0.07490  0.06290  Biso   1.000  H
  H133     1.0000 0.57080  0.34510  0.57290  Biso   1.000  H
  H134     1.0000 0.42920  0.84510  0.92710  Biso   1.000  H
  H135     1.0000 0.42920  0.65490  0.42710  Biso   1.000  H
  H136     1.0000 0.57080  0.15490  0.07290  Biso   1.000  H
  O37      1.0000 0.64000  0.43500  0.64500  Biso   1.000  O
  O38      1.0000 0.36000  0.93500  0.85500  Biso   1.000  O
  O39      1.0000 0.36000  0.56500  0.35500  Biso   1.000  O
  O40      1.0000 0.64000  0.06500  0.14500  Biso   1.000  O
  C69      1.0000 0.67700  0.45600  0.49800  Biso   1.000  C
  C70      1.0000 0.32300  0.95600  0.00200  Biso   1.000  C
  C71      1.0000 0.32300  0.54400  0.50200  Biso   1.000  C
  C72      1.0000 0.67700  0.04400  0.99800  Biso   1.000  C
  H137     1.0000 0.68840  0.41040  0.44050  Biso   1.000  H
  H138     1.0000 0.31160  0.91040  0.05950  Biso   1.000  H
  H139     1.0000 0.31160  0.58960  0.55950  Biso   1.000  H
  H140     1.0000 0.68840  0.08960  0.94050  Biso   1.000  H
  H141     1.0000 0.63420  0.48480  0.43290  Biso   1.000  H
  H142     1.0000 0.36580  0.98480  0.06710  Biso   1.000  H
  H143     1.0000 0.36580  0.51520  0.56710  Biso   1.000  H
  H144     1.0000 0.63420  0.01520  0.93290  Biso   1.000  H
  C73      1.0000 0.76400  0.49800  0.53900  Biso   1.000  C
  C74      1.0000 0.23600  0.99800  0.96100  Biso   1.000  C
  C75      1.0000 0.23600  0.50200  0.46100  Biso   1.000  C
  C76      1.0000 0.76400  0.00200  0.03900  Biso   1.000  C
  H145     1.0000 0.78100  0.51650  0.44020  Biso   1.000  H
  H146     1.0000 0.21900  0.01650  0.05980  Biso   1.000  H
  H147     1.0000 0.21900  0.48350  0.55980  Biso   1.000  H
  H148     1.0000 0.78100  0.98350  0.94020  Biso   1.000  H
  H149     1.0000 0.75590  0.53980  0.60690  Biso   1.000  H
  H150     1.0000 0.24410  0.03980  0.89310  Biso   1.000  H
  H151     1.0000 0.24410  0.46020  0.39310  Biso   1.000  H
  H152     1.0000 0.75590  0.96020  0.10690  Biso   1.000  H
  O41      1.0000 0.82200  0.45200  0.60400  Biso   1.000  O
  O42      1.0000 0.17800  0.95200  0.89600  Biso   1.000  O
  O43      1.0000 0.17800  0.54800  0.39600  Biso   1.000  O
  O44      1.0000 0.82200  0.04800  0.10400  Biso   1.000  O
  C77      1.0000 0.89900  0.46100  0.57700  Biso   1.000  C
  C78      1.0000 0.10100  0.96100  0.92300  Biso   1.000  C
  C79      1.0000 0.10100  0.53900  0.42300  Biso   1.000  C
  C80      1.0000 0.89900  0.03900  0.07700  Biso   1.000  C
  H153     1.0000 0.90830  0.43760  0.47840  Biso   1.000  H
  H154     1.0000 0.09170  0.93760  0.02160  Biso   1.000  H
  H155     1.0000 0.09170  0.56240  0.52160  Biso   1.000  H
  H156     1.0000 0.90830  0.06240  0.97840  Biso   1.000  H
  H157     1.0000 0.90800  0.51490  0.56650  Biso   1.000  H
  H158     1.0000 0.09200  0.01490  0.93350  Biso   1.000  H
  H159     1.0000 0.09200  0.48510  0.43350  Biso   1.000  H
  H160     1.0000 0.90800  0.98510  0.06650  Biso   1.000  H
  C81      1.0000 0.95500  0.43400  0.70700  Biso   1.000  C
  C82      1.0000 0.04500  0.93400  0.79300  Biso   1.000  C
  C83      1.0000 0.04500  0.56600  0.29300  Biso   1.000  C
  C84      1.0000 0.95500  0.06600  0.20700  Biso   1.000  C
  H161     1.0000 0.96740  0.38260  0.67740  Biso   1.000  H
  H162     1.0000 0.03260  0.88260  0.82260  Biso   1.000  H
  H163     1.0000 0.03260  0.61740  0.32260  Biso   1.000  H
  H164     1.0000 0.96740  0.11740  0.17740  Biso   1.000  H
  H165     1.0000 0.00780  0.46190  0.70460  Biso   1.000  H
  H166     1.0000 0.99220  0.96190  0.79540  Biso   1.000  H
  H167     1.0000 0.99220  0.53810  0.29540  Biso   1.000  H
  H168     1.0000 0.00780  0.03810  0.20460  Biso   1.000  H
  O45      1.0000 0.93700  0.42900  0.88300  Biso   1.000  O
  O46      1.0000 0.06300  0.92900  0.61700  Biso   1.000  O
  O47      1.0000 0.06300  0.57100  0.11700  Biso   1.000  O
  O48      1.0000 0.93700  0.07100  0.38300  Biso   1.000  O
  C85      1.0000 0.97000  0.37600  0.12600  Biso   1.000  C
  C86      1.0000 0.03000  0.87600  0.37400  Biso   1.000  C
  C87      1.0000 0.03000  0.62400  0.87400  Biso   1.000  C
  C88      1.0000 0.97000  0.12400  0.62600  Biso   1.000  C
  H169     1.0000 0.01600  0.34580  0.18100  Biso   1.000  H
  H170     1.0000 0.98400  0.84580  0.31900  Biso   1.000  H
  H171     1.0000 0.98400  0.65420  0.81900  Biso   1.000  H
  H172     1.0000 0.01600  0.15420  0.68100  Biso   1.000  H
  H173     1.0000 0.96790  0.42370  0.18100  Biso   1.000  H
  H174     1.0000 0.03210  0.92370  0.31900  Biso   1.000  H
  H175     1.0000 0.03210  0.57630  0.81900  Biso   1.000  H
  H176     1.0000 0.96790  0.07630  0.68100  Biso   1.000  H
