data_image0
_cell_length_a       19.1815
_cell_length_b       6.6973
_cell_length_c       34.7044
_cell_angle_alpha    90
_cell_angle_beta     90
_cell_angle_gamma    90

_symmetry_space_group_name_H-M    "P 1"
_symmetry_int_tables_number       1

loop_
  _symmetry_equiv_pos_as_xyz
  'x, y, z'

loop_
  _atom_site_label
  _atom_site_occupancy
  _atom_site_fract_x
  _atom_site_fract_y
  _atom_site_fract_z
  _atom_site_thermal_displace_type
  _atom_site_B_iso_or_equiv
  _atom_site_type_symbol
  Tm1      1.0000 0.10611  0.99846  0.25000  Biso   1.000  Tm
  Tm2      1.0000 0.60611  0.49846  0.25000  Biso   1.000  Tm
  Tm3      1.0000 0.89389  0.00154  0.75000  Biso   1.000  Tm
  Tm4      1.0000 0.89389  0.99846  0.25000  Biso   1.000  Tm
  Tm5      1.0000 0.10611  0.00154  0.75000  Biso   1.000  Tm
  Tm6      1.0000 0.39389  0.50154  0.75000  Biso   1.000  Tm
  Tm7      1.0000 0.39389  0.49846  0.25000  Biso   1.000  Tm
  Tm8      1.0000 0.60611  0.50154  0.75000  Biso   1.000  Tm
  Cu1      1.0000 0.13840  0.00000  0.00000  Biso   1.000  Cu
  Cu2      1.0000 0.63840  0.50000  0.00000  Biso   1.000  Cu
  Cu3      1.0000 0.86160  0.00000  0.50000  Biso   1.000  Cu
  Cu4      1.0000 0.36160  0.50000  0.50000  Biso   1.000  Cu
  Cu5      1.0000 0.86160  0.00000  0.00000  Biso   1.000  Cu
  Cu6      1.0000 0.36160  0.50000  0.00000  Biso   1.000  Cu
  Cu7      1.0000 0.13840  0.00000  0.50000  Biso   1.000  Cu
  Cu8      1.0000 0.63840  0.50000  0.50000  Biso   1.000  Cu
  Cu9      1.0000 0.13610  0.06400  0.49970  Biso   1.000  Cu
  Cu10     1.0000 0.63610  0.56400  0.49970  Biso   1.000  Cu
  Cu11     1.0000 0.86390  0.93600  0.99970  Biso   1.000  Cu
  Cu12     1.0000 0.86390  0.06400  0.00030  Biso   1.000  Cu
  Cu13     1.0000 0.13610  0.93600  0.50030  Biso   1.000  Cu
  Cu14     1.0000 0.36390  0.43600  0.99970  Biso   1.000  Cu
  Cu15     1.0000 0.36390  0.56400  0.00030  Biso   1.000  Cu
  Cu16     1.0000 0.63610  0.43600  0.50030  Biso   1.000  Cu
  Cu17     1.0000 0.86390  0.93600  0.50030  Biso   1.000  Cu
  Cu18     1.0000 0.36390  0.43600  0.50030  Biso   1.000  Cu
  Cu19     1.0000 0.13610  0.06400  0.00030  Biso   1.000  Cu
  Cu20     1.0000 0.13610  0.93600  0.99970  Biso   1.000  Cu
  Cu21     1.0000 0.86390  0.06400  0.49970  Biso   1.000  Cu
  Cu22     1.0000 0.63610  0.56400  0.00030  Biso   1.000  Cu
  Cu23     1.0000 0.63610  0.43600  0.99970  Biso   1.000  Cu
  Cu24     1.0000 0.36390  0.56400  0.49970  Biso   1.000  Cu
  Cu25     1.0000 0.00000  0.63637  0.47157  Biso   1.000  Cu
  Cu26     1.0000 0.50000  0.13637  0.47157  Biso   1.000  Cu
  Cu27     1.0000 0.00000  0.36363  0.97157  Biso   1.000  Cu
  Cu28     1.0000 0.00000  0.63637  0.02843  Biso   1.000  Cu
  Cu29     1.0000 0.00000  0.36363  0.52843  Biso   1.000  Cu
  Cu30     1.0000 0.50000  0.86363  0.97157  Biso   1.000  Cu
  Cu31     1.0000 0.50000  0.13637  0.02843  Biso   1.000  Cu
  Cu32     1.0000 0.50000  0.86363  0.52843  Biso   1.000  Cu
  Br1      1.0000 0.00000  0.00000  0.00000  Biso   1.000  Br
  Br2      1.0000 0.50000  0.50000  0.00000  Biso   1.000  Br
  Br3      1.0000 0.00000  0.00000  0.50000  Biso   1.000  Br
  Br4      1.0000 0.50000  0.50000  0.50000  Biso   1.000  Br
  Br5      1.0000 0.11106  0.50000  0.50000  Biso   1.000  Br
  Br6      1.0000 0.61106  0.00000  0.50000  Biso   1.000  Br
  Br7      1.0000 0.88894  0.50000  0.00000  Biso   1.000  Br
  Br8      1.0000 0.38894  0.00000  0.00000  Biso   1.000  Br
  Br9      1.0000 0.88894  0.50000  0.50000  Biso   1.000  Br
  Br10     1.0000 0.38894  0.00000  0.50000  Biso   1.000  Br
  Br11     1.0000 0.11106  0.50000  0.00000  Biso   1.000  Br
  Br12     1.0000 0.61106  0.00000  0.00000  Biso   1.000  Br
  O1       1.0000 0.16098  0.91080  0.19667  Biso   1.000  O
  O2       1.0000 0.66098  0.41080  0.19667  Biso   1.000  O
  O3       1.0000 0.83902  0.08920  0.69667  Biso   1.000  O
  O4       1.0000 0.83902  0.91080  0.30333  Biso   1.000  O
  O5       1.0000 0.16098  0.08920  0.80333  Biso   1.000  O
  O6       1.0000 0.33902  0.58920  0.69667  Biso   1.000  O
  O7       1.0000 0.33902  0.41080  0.30333  Biso   1.000  O
  O8       1.0000 0.66098  0.58920  0.80333  Biso   1.000  O
  O9       1.0000 0.83902  0.08920  0.80333  Biso   1.000  O
  O10      1.0000 0.33902  0.58920  0.80333  Biso   1.000  O
  O11      1.0000 0.16098  0.91080  0.30333  Biso   1.000  O
  O12      1.0000 0.16098  0.08920  0.69667  Biso   1.000  O
  O13      1.0000 0.83902  0.91080  0.19667  Biso   1.000  O
  O14      1.0000 0.66098  0.41080  0.30333  Biso   1.000  O
  O15      1.0000 0.66098  0.58920  0.69667  Biso   1.000  O
  O16      1.0000 0.33902  0.41080  0.19667  Biso   1.000  O
  O17      1.0000 0.27354  0.89230  0.18216  Biso   1.000  O
  O18      1.0000 0.77354  0.39230  0.18216  Biso   1.000  O
  O19      1.0000 0.72646  0.10770  0.68216  Biso   1.000  O
  O20      1.0000 0.72646  0.89230  0.31784  Biso   1.000  O
  O21      1.0000 0.27354  0.10770  0.81784  Biso   1.000  O
  O22      1.0000 0.22646  0.60770  0.68216  Biso   1.000  O
  O23      1.0000 0.22646  0.39230  0.31784  Biso   1.000  O
  O24      1.0000 0.77354  0.60770  0.81784  Biso   1.000  O
  O25      1.0000 0.72646  0.10770  0.81784  Biso   1.000  O
  O26      1.0000 0.22646  0.60770  0.81784  Biso   1.000  O
  O27      1.0000 0.27354  0.89230  0.31784  Biso   1.000  O
  O28      1.0000 0.27354  0.10770  0.68216  Biso   1.000  O
  O29      1.0000 0.72646  0.89230  0.18216  Biso   1.000  O
  O30      1.0000 0.77354  0.39230  0.31784  Biso   1.000  O
  O31      1.0000 0.77354  0.60770  0.68216  Biso   1.000  O
  O32      1.0000 0.22646  0.39230  0.18216  Biso   1.000  O
  O33      1.0000 0.05791  0.22650  0.29248  Biso   1.000  O
  O34      1.0000 0.55791  0.72650  0.29248  Biso   1.000  O
  O35      1.0000 0.94209  0.77350  0.79248  Biso   1.000  O
  O36      1.0000 0.94209  0.22650  0.20752  Biso   1.000  O
  O37      1.0000 0.05791  0.77350  0.70752  Biso   1.000  O
  O38      1.0000 0.44209  0.27350  0.79248  Biso   1.000  O
  O39      1.0000 0.44209  0.72650  0.20752  Biso   1.000  O
  O40      1.0000 0.55791  0.27350  0.70752  Biso   1.000  O
  O41      1.0000 0.94209  0.77350  0.70752  Biso   1.000  O
  O42      1.0000 0.44209  0.27350  0.70752  Biso   1.000  O
  O43      1.0000 0.05791  0.22650  0.20752  Biso   1.000  O
  O44      1.0000 0.05791  0.77350  0.79248  Biso   1.000  O
  O45      1.0000 0.94209  0.22650  0.29248  Biso   1.000  O
  O46      1.0000 0.55791  0.72650  0.20752  Biso   1.000  O
  O47      1.0000 0.55791  0.27350  0.79248  Biso   1.000  O
  O48      1.0000 0.44209  0.72650  0.29248  Biso   1.000  O
  O49      1.0000 0.00000  0.87500  0.25000  Biso   1.000  O
  O50      1.0000 0.50000  0.37500  0.25000  Biso   1.000  O
  O51      1.0000 0.00000  0.12500  0.75000  Biso   1.000  O
  O52      1.0000 0.50000  0.62500  0.75000  Biso   1.000  O
  H1       1.0000 0.00000  0.72120  0.26000  Biso   1.000  H
  H2       1.0000 0.50000  0.22120  0.26000  Biso   1.000  H
  H3       1.0000 0.00000  0.27880  0.76000  Biso   1.000  H
  H4       1.0000 0.00000  0.72120  0.24000  Biso   1.000  H
  H5       1.0000 0.00000  0.27880  0.74000  Biso   1.000  H
  H6       1.0000 0.50000  0.77880  0.76000  Biso   1.000  H
  H7       1.0000 0.50000  0.22120  0.24000  Biso   1.000  H
  H8       1.0000 0.50000  0.77880  0.74000  Biso   1.000  H
  O53      1.0000 0.19308  0.23140  0.25000  Biso   1.000  O
  O54      1.0000 0.69308  0.73140  0.25000  Biso   1.000  O
  O55      1.0000 0.80692  0.76860  0.75000  Biso   1.000  O
  O56      1.0000 0.80692  0.23140  0.25000  Biso   1.000  O
  O57      1.0000 0.19308  0.76860  0.75000  Biso   1.000  O
  O58      1.0000 0.30692  0.26860  0.75000  Biso   1.000  O
  O59      1.0000 0.30692  0.73140  0.25000  Biso   1.000  O
  O60      1.0000 0.69308  0.26860  0.75000  Biso   1.000  O
  H9       1.0000 0.20410  0.28710  0.26990  Biso   1.000  H
  H10      1.0000 0.70410  0.78710  0.26990  Biso   1.000  H
  H11      1.0000 0.79590  0.71290  0.76990  Biso   1.000  H
  H12      1.0000 0.79590  0.28710  0.23010  Biso   1.000  H
  H13      1.0000 0.20410  0.71290  0.73010  Biso   1.000  H
  H14      1.0000 0.29590  0.21290  0.76990  Biso   1.000  H
  H15      1.0000 0.29590  0.78710  0.23010  Biso   1.000  H
  H16      1.0000 0.70410  0.21290  0.73010  Biso   1.000  H
  H17      1.0000 0.79590  0.71290  0.73010  Biso   1.000  H
  H18      1.0000 0.29590  0.21290  0.73010  Biso   1.000  H
  H19      1.0000 0.20410  0.28710  0.23010  Biso   1.000  H
  H20      1.0000 0.20410  0.71290  0.76990  Biso   1.000  H
  H21      1.0000 0.79590  0.28710  0.26990  Biso   1.000  H
  H22      1.0000 0.70410  0.78710  0.23010  Biso   1.000  H
  H23      1.0000 0.70410  0.21290  0.76990  Biso   1.000  H
  H24      1.0000 0.29590  0.78710  0.26990  Biso   1.000  H
  O61      1.0000 0.11590  0.63120  0.25000  Biso   1.000  O
  O62      1.0000 0.61590  0.13120  0.25000  Biso   1.000  O
  O63      1.0000 0.88410  0.36880  0.75000  Biso   1.000  O
  O64      1.0000 0.88410  0.63120  0.25000  Biso   1.000  O
  O65      1.0000 0.11590  0.36880  0.75000  Biso   1.000  O
  O66      1.0000 0.38410  0.86880  0.75000  Biso   1.000  O
  O67      1.0000 0.38410  0.13120  0.25000  Biso   1.000  O
  O68      1.0000 0.61590  0.86880  0.75000  Biso   1.000  O
  H25      1.0000 0.15290  0.70120  0.25000  Biso   1.000  H
  H26      1.0000 0.65290  0.20120  0.25000  Biso   1.000  H
  H27      1.0000 0.84710  0.29880  0.75000  Biso   1.000  H
  H28      1.0000 0.84710  0.70120  0.25000  Biso   1.000  H
  H29      1.0000 0.15290  0.29880  0.75000  Biso   1.000  H
  H30      1.0000 0.34710  0.79880  0.75000  Biso   1.000  H
  H31      1.0000 0.34710  0.20120  0.25000  Biso   1.000  H
  H32      1.0000 0.65290  0.79880  0.75000  Biso   1.000  H
  H33      1.0000 0.12780  0.51410  0.23800  Biso   1.000  H
  H34      1.0000 0.62780  0.01410  0.23800  Biso   1.000  H
  H35      1.0000 0.87220  0.48590  0.73800  Biso   1.000  H
  H36      1.0000 0.87220  0.51410  0.26200  Biso   1.000  H
  H37      1.0000 0.12780  0.48590  0.76200  Biso   1.000  H
  H38      1.0000 0.37220  0.98590  0.73800  Biso   1.000  H
  H39      1.0000 0.37220  0.01410  0.26200  Biso   1.000  H
  H40      1.0000 0.62780  0.98590  0.76200  Biso   1.000  H
  H41      1.0000 0.87220  0.48590  0.76200  Biso   1.000  H
  H42      1.0000 0.37220  0.98590  0.76200  Biso   1.000  H
  H43      1.0000 0.12780  0.51410  0.26200  Biso   1.000  H
  H44      1.0000 0.12780  0.48590  0.73800  Biso   1.000  H
  H45      1.0000 0.87220  0.51410  0.23800  Biso   1.000  H
  H46      1.0000 0.62780  0.01410  0.26200  Biso   1.000  H
  H47      1.0000 0.62780  0.98590  0.73800  Biso   1.000  H
  H48      1.0000 0.37220  0.01410  0.23800  Biso   1.000  H
  C1       1.0000 0.21170  0.91090  0.17359  Biso   1.000  C
  C2       1.0000 0.71170  0.41090  0.17359  Biso   1.000  C
  C3       1.0000 0.78830  0.08910  0.67359  Biso   1.000  C
  C4       1.0000 0.78830  0.91090  0.32641  Biso   1.000  C
  C5       1.0000 0.21170  0.08910  0.82641  Biso   1.000  C
  C6       1.0000 0.28830  0.58910  0.67359  Biso   1.000  C
  C7       1.0000 0.28830  0.41090  0.32641  Biso   1.000  C
  C8       1.0000 0.71170  0.58910  0.82641  Biso   1.000  C
  C9       1.0000 0.78830  0.08910  0.82641  Biso   1.000  C
  C10      1.0000 0.28830  0.58910  0.82641  Biso   1.000  C
  C11      1.0000 0.21170  0.91090  0.32641  Biso   1.000  C
  C12      1.0000 0.21170  0.08910  0.67359  Biso   1.000  C
  C13      1.0000 0.78830  0.91090  0.17359  Biso   1.000  C
  C14      1.0000 0.71170  0.41090  0.32641  Biso   1.000  C
  C15      1.0000 0.71170  0.58910  0.67359  Biso   1.000  C
  C16      1.0000 0.28830  0.41090  0.17359  Biso   1.000  C
  C17      1.0000 0.19342  0.93510  0.13145  Biso   1.000  C
  C18      1.0000 0.69342  0.43510  0.13145  Biso   1.000  C
  C19      1.0000 0.80658  0.06490  0.63145  Biso   1.000  C
  C20      1.0000 0.80658  0.93510  0.36855  Biso   1.000  C
  C21      1.0000 0.19342  0.06490  0.86855  Biso   1.000  C
  C22      1.0000 0.30658  0.56490  0.63145  Biso   1.000  C
  C23      1.0000 0.30658  0.43510  0.36855  Biso   1.000  C
  C24      1.0000 0.69342  0.56490  0.86855  Biso   1.000  C
  C25      1.0000 0.80658  0.06490  0.86855  Biso   1.000  C
  C26      1.0000 0.30658  0.56490  0.86855  Biso   1.000  C
  C27      1.0000 0.19342  0.93510  0.36855  Biso   1.000  C
  C28      1.0000 0.19342  0.06490  0.63145  Biso   1.000  C
  C29      1.0000 0.80658  0.93510  0.13145  Biso   1.000  C
  C30      1.0000 0.69342  0.43510  0.36855  Biso   1.000  C
  C31      1.0000 0.69342  0.56490  0.63145  Biso   1.000  C
  C32      1.0000 0.30658  0.43510  0.13145  Biso   1.000  C
  C33      1.0000 0.12780  0.99560  0.12013  Biso   1.000  C
  C34      1.0000 0.62780  0.49560  0.12013  Biso   1.000  C
  C35      1.0000 0.87220  0.00440  0.62013  Biso   1.000  C
  C36      1.0000 0.87220  0.99560  0.37987  Biso   1.000  C
  C37      1.0000 0.12780  0.00440  0.87987  Biso   1.000  C
  C38      1.0000 0.37220  0.50440  0.62013  Biso   1.000  C
  C39      1.0000 0.37220  0.49560  0.37987  Biso   1.000  C
  C40      1.0000 0.62780  0.50440  0.87987  Biso   1.000  C
  C41      1.0000 0.87220  0.00440  0.87987  Biso   1.000  C
  C42      1.0000 0.37220  0.50440  0.87987  Biso   1.000  C
  C43      1.0000 0.12780  0.99560  0.37987  Biso   1.000  C
  C44      1.0000 0.12780  0.00440  0.62013  Biso   1.000  C
  C45      1.0000 0.87220  0.99560  0.12013  Biso   1.000  C
  C46      1.0000 0.62780  0.49560  0.37987  Biso   1.000  C
  C47      1.0000 0.62780  0.50440  0.62013  Biso   1.000  C
  C48      1.0000 0.37220  0.49560  0.12013  Biso   1.000  C
  H49      1.0000 0.09320  0.01770  0.13840  Biso   1.000  H
  H50      1.0000 0.59320  0.51770  0.13840  Biso   1.000  H
  H51      1.0000 0.90680  0.98230  0.63840  Biso   1.000  H
  H52      1.0000 0.90680  0.01770  0.36160  Biso   1.000  H
  H53      1.0000 0.09320  0.98230  0.86160  Biso   1.000  H
  H54      1.0000 0.40680  0.48230  0.63840  Biso   1.000  H
  H55      1.0000 0.40680  0.51770  0.36160  Biso   1.000  H
  H56      1.0000 0.59320  0.48230  0.86160  Biso   1.000  H
  H57      1.0000 0.90680  0.98230  0.86160  Biso   1.000  H
  H58      1.0000 0.40680  0.48230  0.86160  Biso   1.000  H
  H59      1.0000 0.09320  0.01770  0.36160  Biso   1.000  H
  H60      1.0000 0.09320  0.98230  0.63840  Biso   1.000  H
  H61      1.0000 0.90680  0.01770  0.13840  Biso   1.000  H
  H62      1.0000 0.59320  0.51770  0.36160  Biso   1.000  H
  H63      1.0000 0.59320  0.48230  0.63840  Biso   1.000  H
  H64      1.0000 0.40680  0.51770  0.13840  Biso   1.000  H
  C49      1.0000 0.11390  0.02290  0.08161  Biso   1.000  C
  C50      1.0000 0.61390  0.52290  0.08161  Biso   1.000  C
  C51      1.0000 0.88610  0.97710  0.58161  Biso   1.000  C
  C52      1.0000 0.88610  0.02290  0.41839  Biso   1.000  C
  C53      1.0000 0.11390  0.97710  0.91839  Biso   1.000  C
  C54      1.0000 0.38610  0.47710  0.58161  Biso   1.000  C
  C55      1.0000 0.38610  0.52290  0.41839  Biso   1.000  C
  C56      1.0000 0.61390  0.47710  0.91839  Biso   1.000  C
  C57      1.0000 0.88610  0.97710  0.91839  Biso   1.000  C
  C58      1.0000 0.38610  0.47710  0.91839  Biso   1.000  C
  C59      1.0000 0.11390  0.02290  0.41839  Biso   1.000  C
  C60      1.0000 0.11390  0.97710  0.58161  Biso   1.000  C
  C61      1.0000 0.88610  0.02290  0.08161  Biso   1.000  C
  C62      1.0000 0.61390  0.52290  0.41839  Biso   1.000  C
  C63      1.0000 0.61390  0.47710  0.58161  Biso   1.000  C
  C64      1.0000 0.38610  0.52290  0.08161  Biso   1.000  C
  H65      1.0000 0.07020  0.07050  0.07440  Biso   1.000  H
  H66      1.0000 0.57020  0.57050  0.07440  Biso   1.000  H
  H67      1.0000 0.92980  0.92950  0.57440  Biso   1.000  H
  H68      1.0000 0.92980  0.07050  0.42560  Biso   1.000  H
  H69      1.0000 0.07020  0.92950  0.92560  Biso   1.000  H
  H70      1.0000 0.42980  0.42950  0.57440  Biso   1.000  H
  H71      1.0000 0.42980  0.57050  0.42560  Biso   1.000  H
  H72      1.0000 0.57020  0.42950  0.92560  Biso   1.000  H
  H73      1.0000 0.92980  0.92950  0.92560  Biso   1.000  H
  H74      1.0000 0.42980  0.42950  0.92560  Biso   1.000  H
  H75      1.0000 0.07020  0.07050  0.42560  Biso   1.000  H
  H76      1.0000 0.07020  0.92950  0.57440  Biso   1.000  H
  H77      1.0000 0.92980  0.07050  0.07440  Biso   1.000  H
  H78      1.0000 0.57020  0.57050  0.42560  Biso   1.000  H
  H79      1.0000 0.57020  0.42950  0.57440  Biso   1.000  H
  H80      1.0000 0.42980  0.57050  0.07440  Biso   1.000  H
  C65      1.0000 0.24240  0.90010  0.10318  Biso   1.000  C
  C66      1.0000 0.74240  0.40010  0.10318  Biso   1.000  C
  C67      1.0000 0.75760  0.09990  0.60318  Biso   1.000  C
  C68      1.0000 0.75760  0.90010  0.39682  Biso   1.000  C
  C69      1.0000 0.24240  0.09990  0.89682  Biso   1.000  C
  C70      1.0000 0.25760  0.59990  0.60318  Biso   1.000  C
  C71      1.0000 0.25760  0.40010  0.39682  Biso   1.000  C
  C72      1.0000 0.74240  0.59990  0.89682  Biso   1.000  C
  C73      1.0000 0.75760  0.09990  0.89682  Biso   1.000  C
  C74      1.0000 0.25760  0.59990  0.89682  Biso   1.000  C
  C75      1.0000 0.24240  0.90010  0.39682  Biso   1.000  C
  C76      1.0000 0.24240  0.09990  0.60318  Biso   1.000  C
  C77      1.0000 0.75760  0.90010  0.10318  Biso   1.000  C
  C78      1.0000 0.74240  0.40010  0.39682  Biso   1.000  C
  C79      1.0000 0.74240  0.59990  0.60318  Biso   1.000  C
  C80      1.0000 0.25760  0.40010  0.10318  Biso   1.000  C
  H81      1.0000 0.28730  0.86030  0.10980  Biso   1.000  H
  H82      1.0000 0.78730  0.36030  0.10980  Biso   1.000  H
  H83      1.0000 0.71270  0.13970  0.60980  Biso   1.000  H
  H84      1.0000 0.71270  0.86030  0.39020  Biso   1.000  H
  H85      1.0000 0.28730  0.13970  0.89020  Biso   1.000  H
  H86      1.0000 0.21270  0.63970  0.60980  Biso   1.000  H
  H87      1.0000 0.21270  0.36030  0.39020  Biso   1.000  H
  H88      1.0000 0.78730  0.63970  0.89020  Biso   1.000  H
  H89      1.0000 0.71270  0.13970  0.89020  Biso   1.000  H
  H90      1.0000 0.21270  0.63970  0.89020  Biso   1.000  H
  H91      1.0000 0.28730  0.86030  0.39020  Biso   1.000  H
  H92      1.0000 0.28730  0.13970  0.60980  Biso   1.000  H
  H93      1.0000 0.71270  0.86030  0.10980  Biso   1.000  H
  H94      1.0000 0.78730  0.36030  0.39020  Biso   1.000  H
  H95      1.0000 0.78730  0.63970  0.60980  Biso   1.000  H
  H96      1.0000 0.21270  0.36030  0.10980  Biso   1.000  H
  C81      1.0000 0.22460  0.92450  0.06502  Biso   1.000  C
  C82      1.0000 0.72460  0.42450  0.06502  Biso   1.000  C
  C83      1.0000 0.77540  0.07550  0.56502  Biso   1.000  C
  C84      1.0000 0.77540  0.92450  0.43498  Biso   1.000  C
  C85      1.0000 0.22460  0.07550  0.93498  Biso   1.000  C
  C86      1.0000 0.27540  0.57550  0.56502  Biso   1.000  C
  C87      1.0000 0.27540  0.42450  0.43498  Biso   1.000  C
  C88      1.0000 0.72460  0.57550  0.93498  Biso   1.000  C
  C89      1.0000 0.77540  0.07550  0.93498  Biso   1.000  C
  C90      1.0000 0.27540  0.57550  0.93498  Biso   1.000  C
  C91      1.0000 0.22460  0.92450  0.43498  Biso   1.000  C
  C92      1.0000 0.22460  0.07550  0.56502  Biso   1.000  C
  C93      1.0000 0.77540  0.92450  0.06502  Biso   1.000  C
  C94      1.0000 0.72460  0.42450  0.43498  Biso   1.000  C
  C95      1.0000 0.72460  0.57550  0.56502  Biso   1.000  C
  C96      1.0000 0.27540  0.42450  0.06502  Biso   1.000  C
  H97      1.0000 0.25800  0.89920  0.04620  Biso   1.000  H
  H98      1.0000 0.75800  0.39920  0.04620  Biso   1.000  H
  H99      1.0000 0.74200  0.10080  0.54620  Biso   1.000  H
  H100     1.0000 0.74200  0.89920  0.45380  Biso   1.000  H
  H101     1.0000 0.25800  0.10080  0.95380  Biso   1.000  H
  H102     1.0000 0.24200  0.60080  0.54620  Biso   1.000  H
  H103     1.0000 0.24200  0.39920  0.45380  Biso   1.000  H
  H104     1.0000 0.75800  0.60080  0.95380  Biso   1.000  H
  H105     1.0000 0.74200  0.10080  0.95380  Biso   1.000  H
  H106     1.0000 0.24200  0.60080  0.95380  Biso   1.000  H
  H107     1.0000 0.25800  0.89920  0.45380  Biso   1.000  H
  H108     1.0000 0.25800  0.10080  0.54620  Biso   1.000  H
  H109     1.0000 0.74200  0.89920  0.04620  Biso   1.000  H
  H110     1.0000 0.75800  0.39920  0.45380  Biso   1.000  H
  H111     1.0000 0.75800  0.60080  0.54620  Biso   1.000  H
  H112     1.0000 0.24200  0.39920  0.04620  Biso   1.000  H
  C97      1.0000 0.05970  0.54150  0.39568  Biso   1.000  C
  C98      1.0000 0.55970  0.04150  0.39568  Biso   1.000  C
  C99      1.0000 0.94030  0.45850  0.89568  Biso   1.000  C
  C100     1.0000 0.94030  0.54150  0.10432  Biso   1.000  C
  C101     1.0000 0.05970  0.45850  0.60432  Biso   1.000  C
  C102     1.0000 0.44030  0.95850  0.89568  Biso   1.000  C
  C103     1.0000 0.44030  0.04150  0.10432  Biso   1.000  C
  C104     1.0000 0.55970  0.95850  0.60432  Biso   1.000  C
  C105     1.0000 0.94030  0.45850  0.60432  Biso   1.000  C
  C106     1.0000 0.44030  0.95850  0.60432  Biso   1.000  C
  C107     1.0000 0.05970  0.54150  0.10432  Biso   1.000  C
  C108     1.0000 0.05970  0.45850  0.89568  Biso   1.000  C
  C109     1.0000 0.94030  0.54150  0.39568  Biso   1.000  C
  C110     1.0000 0.55970  0.04150  0.10432  Biso   1.000  C
  C111     1.0000 0.55970  0.95850  0.89568  Biso   1.000  C
  C112     1.0000 0.44030  0.04150  0.39568  Biso   1.000  C
  H113     1.0000 0.10150  0.57540  0.40760  Biso   1.000  H
  H114     1.0000 0.60150  0.07540  0.40760  Biso   1.000  H
  H115     1.0000 0.89850  0.42460  0.90760  Biso   1.000  H
  H116     1.0000 0.89850  0.57540  0.09240  Biso   1.000  H
  H117     1.0000 0.10150  0.42460  0.59240  Biso   1.000  H
  H118     1.0000 0.39850  0.92460  0.90760  Biso   1.000  H
  H119     1.0000 0.39850  0.07540  0.09240  Biso   1.000  H
  H120     1.0000 0.60150  0.92460  0.59240  Biso   1.000  H
  H121     1.0000 0.89850  0.42460  0.59240  Biso   1.000  H
  H122     1.0000 0.39850  0.92460  0.59240  Biso   1.000  H
  H123     1.0000 0.10150  0.57540  0.09240  Biso   1.000  H
  H124     1.0000 0.10150  0.42460  0.90760  Biso   1.000  H
  H125     1.0000 0.89850  0.57540  0.40760  Biso   1.000  H
  H126     1.0000 0.60150  0.07540  0.09240  Biso   1.000  H
  H127     1.0000 0.60150  0.92460  0.90760  Biso   1.000  H
  H128     1.0000 0.39850  0.07540  0.40760  Biso   1.000  H
  C113     1.0000 0.06218  0.45380  0.35956  Biso   1.000  C
  C114     1.0000 0.56218  0.95380  0.35956  Biso   1.000  C
  C115     1.0000 0.93782  0.54620  0.85956  Biso   1.000  C
  C116     1.0000 0.93782  0.45380  0.14044  Biso   1.000  C
  C117     1.0000 0.06218  0.54620  0.64044  Biso   1.000  C
  C118     1.0000 0.43782  0.04620  0.85956  Biso   1.000  C
  C119     1.0000 0.43782  0.95380  0.14044  Biso   1.000  C
  C120     1.0000 0.56218  0.04620  0.64044  Biso   1.000  C
  C121     1.0000 0.93782  0.54620  0.64044  Biso   1.000  C
  C122     1.0000 0.43782  0.04620  0.64044  Biso   1.000  C
  C123     1.0000 0.06218  0.45380  0.14044  Biso   1.000  C
  C124     1.0000 0.06218  0.54620  0.85956  Biso   1.000  C
  C125     1.0000 0.93782  0.45380  0.35956  Biso   1.000  C
  C126     1.0000 0.56218  0.95380  0.14044  Biso   1.000  C
  C127     1.0000 0.56218  0.04620  0.85956  Biso   1.000  C
  C128     1.0000 0.43782  0.95380  0.35956  Biso   1.000  C
  H129     1.0000 0.10470  0.43020  0.34750  Biso   1.000  H
  H130     1.0000 0.60470  0.93020  0.34750  Biso   1.000  H
  H131     1.0000 0.89530  0.56980  0.84750  Biso   1.000  H
  H132     1.0000 0.89530  0.43020  0.15250  Biso   1.000  H
  H133     1.0000 0.10470  0.56980  0.65250  Biso   1.000  H
  H134     1.0000 0.39530  0.06980  0.84750  Biso   1.000  H
  H135     1.0000 0.39530  0.93020  0.15250  Biso   1.000  H
  H136     1.0000 0.60470  0.06980  0.65250  Biso   1.000  H
  H137     1.0000 0.89530  0.56980  0.65250  Biso   1.000  H
  H138     1.0000 0.39530  0.06980  0.65250  Biso   1.000  H
  H139     1.0000 0.10470  0.43020  0.15250  Biso   1.000  H
  H140     1.0000 0.10470  0.56980  0.84750  Biso   1.000  H
  H141     1.0000 0.89530  0.43020  0.34750  Biso   1.000  H
  H142     1.0000 0.60470  0.93020  0.15250  Biso   1.000  H
  H143     1.0000 0.60470  0.06980  0.84750  Biso   1.000  H
  H144     1.0000 0.39530  0.93020  0.34750  Biso   1.000  H
  C129     1.0000 0.00000  0.40160  0.34159  Biso   1.000  C
  C130     1.0000 0.50000  0.90160  0.34159  Biso   1.000  C
  C131     1.0000 0.00000  0.59840  0.84159  Biso   1.000  C
  C132     1.0000 0.00000  0.40160  0.15841  Biso   1.000  C
  C133     1.0000 0.00000  0.59840  0.65841  Biso   1.000  C
  C134     1.0000 0.50000  0.09840  0.84159  Biso   1.000  C
  C135     1.0000 0.50000  0.90160  0.15841  Biso   1.000  C
  C136     1.0000 0.50000  0.09840  0.65841  Biso   1.000  C
  C137     1.0000 0.00000  0.27750  0.30518  Biso   1.000  C
  C138     1.0000 0.50000  0.77750  0.30518  Biso   1.000  C
  C139     1.0000 0.00000  0.72250  0.80518  Biso   1.000  C
  C140     1.0000 0.00000  0.27750  0.19482  Biso   1.000  C
  C141     1.0000 0.00000  0.72250  0.69482  Biso   1.000  C
  C142     1.0000 0.50000  0.22250  0.80518  Biso   1.000  C
  C143     1.0000 0.50000  0.77750  0.19482  Biso   1.000  C
  C144     1.0000 0.50000  0.22250  0.69482  Biso   1.000  C
  N1       1.0000 0.16080  0.98350  0.05395  Biso   1.000  N
  N2       1.0000 0.66080  0.48350  0.05395  Biso   1.000  N
  N3       1.0000 0.83920  0.01650  0.55395  Biso   1.000  N
  N4       1.0000 0.83920  0.98350  0.44605  Biso   1.000  N
  N5       1.0000 0.16080  0.01650  0.94605  Biso   1.000  N
  N6       1.0000 0.33920  0.51650  0.55395  Biso   1.000  N
  N7       1.0000 0.33920  0.48350  0.44605  Biso   1.000  N
  N8       1.0000 0.66080  0.51650  0.94605  Biso   1.000  N
  N9       1.0000 0.83920  0.01650  0.94605  Biso   1.000  N
  N10      1.0000 0.33920  0.51650  0.94605  Biso   1.000  N
  N11      1.0000 0.16080  0.98350  0.44605  Biso   1.000  N
  N12      1.0000 0.16080  0.01650  0.55395  Biso   1.000  N
  N13      1.0000 0.83920  0.98350  0.05395  Biso   1.000  N
  N14      1.0000 0.66080  0.48350  0.44605  Biso   1.000  N
  N15      1.0000 0.66080  0.51650  0.55395  Biso   1.000  N
  N16      1.0000 0.33920  0.48350  0.05395  Biso   1.000  N
  N17      1.0000 0.00000  0.58020  0.41440  Biso   1.000  N
  N18      1.0000 0.50000  0.08020  0.41440  Biso   1.000  N
  N19      1.0000 0.00000  0.41980  0.91440  Biso   1.000  N
  N20      1.0000 0.00000  0.58020  0.08560  Biso   1.000  N
  N21      1.0000 0.00000  0.41980  0.58560  Biso   1.000  N
  N22      1.0000 0.50000  0.91980  0.91440  Biso   1.000  N
  N23      1.0000 0.50000  0.08020  0.08560  Biso   1.000  N
  N24      1.0000 0.50000  0.91980  0.58560  Biso   1.000  N
