data_image0
_cell_length_a       8.1083
_cell_length_b       24.7179
_cell_length_c       26.8979
_cell_angle_alpha    90
_cell_angle_beta     90
_cell_angle_gamma    90

_symmetry_space_group_name_H-M    "P 1"
_symmetry_int_tables_number       1

loop_
  _symmetry_equiv_pos_as_xyz
  'x, y, z'

loop_
  _atom_site_label
  _atom_site_occupancy
  _atom_site_fract_x
  _atom_site_fract_y
  _atom_site_fract_z
  _atom_site_thermal_displace_type
  _atom_site_B_iso_or_equiv
  _atom_site_type_symbol
  C1       1.0000 0.65910  0.10269  0.23781  Biso   1.000  C
  C2       1.0000 0.84090  0.89731  0.73781  Biso   1.000  C
  C3       1.0000 0.34090  0.60269  0.26219  Biso   1.000  C
  C4       1.0000 0.15910  0.39731  0.76219  Biso   1.000  C
  C5       1.0000 0.34090  0.89731  0.76219  Biso   1.000  C
  C6       1.0000 0.15910  0.10269  0.26219  Biso   1.000  C
  C7       1.0000 0.65910  0.39731  0.73781  Biso   1.000  C
  C8       1.0000 0.84090  0.60269  0.23781  Biso   1.000  C
  N1       1.0000 0.68070  0.09023  0.19801  Biso   1.000  N
  N2       1.0000 0.81930  0.90977  0.69801  Biso   1.000  N
  N3       1.0000 0.31930  0.59023  0.30199  Biso   1.000  N
  N4       1.0000 0.18070  0.40977  0.80199  Biso   1.000  N
  N5       1.0000 0.31930  0.90977  0.80199  Biso   1.000  N
  N6       1.0000 0.18070  0.09023  0.30199  Biso   1.000  N
  N7       1.0000 0.68070  0.40977  0.69801  Biso   1.000  N
  N8       1.0000 0.81930  0.59023  0.19801  Biso   1.000  N
  C9       1.0000 0.63500  0.11859  0.28959  Biso   1.000  C
  C10      1.0000 0.86500  0.88141  0.78959  Biso   1.000  C
  C11      1.0000 0.36500  0.61859  0.21041  Biso   1.000  C
  C12      1.0000 0.13500  0.38141  0.71041  Biso   1.000  C
  C13      1.0000 0.36500  0.88141  0.71041  Biso   1.000  C
  C14      1.0000 0.13500  0.11859  0.21041  Biso   1.000  C
  C15      1.0000 0.63500  0.38141  0.78959  Biso   1.000  C
  C16      1.0000 0.86500  0.61859  0.28959  Biso   1.000  C
  H1       1.0000 0.68860  0.09220  0.31140  Biso   1.000  H
  H2       1.0000 0.81140  0.90780  0.81140  Biso   1.000  H
  H3       1.0000 0.31140  0.59220  0.18860  Biso   1.000  H
  H4       1.0000 0.18860  0.40780  0.68860  Biso   1.000  H
  H5       1.0000 0.31140  0.90780  0.68860  Biso   1.000  H
  H6       1.0000 0.18860  0.09220  0.18860  Biso   1.000  H
  H7       1.0000 0.68860  0.40780  0.81140  Biso   1.000  H
  H8       1.0000 0.81140  0.59220  0.31140  Biso   1.000  H
  H9       1.0000 0.51670  0.11980  0.29700  Biso   1.000  H
  H10      1.0000 0.98330  0.88020  0.79700  Biso   1.000  H
  H11      1.0000 0.48330  0.61980  0.20300  Biso   1.000  H
  H12      1.0000 0.01670  0.38020  0.70300  Biso   1.000  H
  H13      1.0000 0.48330  0.88020  0.70300  Biso   1.000  H
  H14      1.0000 0.01670  0.11980  0.20300  Biso   1.000  H
  H15      1.0000 0.51670  0.38020  0.79700  Biso   1.000  H
  H16      1.0000 0.98330  0.61980  0.29700  Biso   1.000  H
  H17      1.0000 0.68340  0.15440  0.29510  Biso   1.000  H
  H18      1.0000 0.81660  0.84560  0.79510  Biso   1.000  H
  H19      1.0000 0.31660  0.65440  0.20490  Biso   1.000  H
  H20      1.0000 0.18340  0.34560  0.70490  Biso   1.000  H
  H21      1.0000 0.31660  0.84560  0.70490  Biso   1.000  H
  H22      1.0000 0.18340  0.15440  0.20490  Biso   1.000  H
  H23      1.0000 0.68340  0.34560  0.79510  Biso   1.000  H
  H24      1.0000 0.81660  0.65440  0.29510  Biso   1.000  H
  Cu1      1.0000 0.85035  0.11670  0.57947  Biso   1.000  Cu
  Cu2      1.0000 0.64965  0.88330  0.07947  Biso   1.000  Cu
  Cu3      1.0000 0.14965  0.61670  0.92053  Biso   1.000  Cu
  Cu4      1.0000 0.35035  0.38330  0.42053  Biso   1.000  Cu
  Cu5      1.0000 0.14965  0.88330  0.42053  Biso   1.000  Cu
  Cu6      1.0000 0.35035  0.11670  0.92053  Biso   1.000  Cu
  Cu7      1.0000 0.85035  0.38330  0.07947  Biso   1.000  Cu
  Cu8      1.0000 0.64965  0.61670  0.57947  Biso   1.000  Cu
  P1       1.0000 0.85970  0.20071  0.61142  Biso   1.000  P
  P2       1.0000 0.64030  0.79929  0.11142  Biso   1.000  P
  P3       1.0000 0.14030  0.70071  0.88858  Biso   1.000  P
  P4       1.0000 0.35970  0.29929  0.38858  Biso   1.000  P
  P5       1.0000 0.14030  0.79929  0.38858  Biso   1.000  P
  P6       1.0000 0.35970  0.20071  0.88858  Biso   1.000  P
  P7       1.0000 0.85970  0.29929  0.11142  Biso   1.000  P
  P8       1.0000 0.64030  0.70071  0.61142  Biso   1.000  P
  P9       1.0000 0.68640  0.05498  0.61457  Biso   1.000  P
  P10      1.0000 0.81360  0.94502  0.11457  Biso   1.000  P
  P11      1.0000 0.31360  0.55498  0.88543  Biso   1.000  P
  P12      1.0000 0.18640  0.44502  0.38543  Biso   1.000  P
  P13      1.0000 0.31360  0.94502  0.38543  Biso   1.000  P
  P14      1.0000 0.18640  0.05498  0.88543  Biso   1.000  P
  P15      1.0000 0.68640  0.44502  0.11457  Biso   1.000  P
  P16      1.0000 0.81360  0.55498  0.61457  Biso   1.000  P
  O1       1.0000 0.75340  0.13599  0.50933  Biso   1.000  O
  O2       1.0000 0.74660  0.86401  0.00933  Biso   1.000  O
  O3       1.0000 0.24660  0.63599  0.99067  Biso   1.000  O
  O4       1.0000 0.25340  0.36401  0.49067  Biso   1.000  O
  O5       1.0000 0.24660  0.86401  0.49067  Biso   1.000  O
  O6       1.0000 0.25340  0.13599  0.99067  Biso   1.000  O
  O7       1.0000 0.75340  0.36401  0.00933  Biso   1.000  O
  O8       1.0000 0.74660  0.63599  0.50933  Biso   1.000  O
  F1       1.0000 0.73950  0.15960  0.41173  Biso   1.000  F
  F2       1.0000 0.76050  0.84040  0.91173  Biso   1.000  F
  F3       1.0000 0.26050  0.65960  0.08827  Biso   1.000  F
  F4       1.0000 0.23950  0.34040  0.58827  Biso   1.000  F
  F5       1.0000 0.26050  0.84040  0.58827  Biso   1.000  F
  F6       1.0000 0.23950  0.15960  0.08827  Biso   1.000  F
  F7       1.0000 0.73950  0.34040  0.91173  Biso   1.000  F
  F8       1.0000 0.76050  0.65960  0.41173  Biso   1.000  F
  F9       1.0000 0.50920  0.12193  0.42825  Biso   1.000  F
  F10      1.0000 0.99080  0.87807  0.92825  Biso   1.000  F
  F11      1.0000 0.49080  0.62193  0.07175  Biso   1.000  F
  F12      1.0000 0.00920  0.37807  0.57175  Biso   1.000  F
  F13      1.0000 0.49080  0.87807  0.57175  Biso   1.000  F
  F14      1.0000 0.00920  0.12193  0.07175  Biso   1.000  F
  F15      1.0000 0.50920  0.37807  0.92825  Biso   1.000  F
  F16      1.0000 0.99080  0.62193  0.42825  Biso   1.000  F
  O9       1.0000 0.74090  0.04776  0.48792  Biso   1.000  O
  O10      1.0000 0.75910  0.95224  0.98792  Biso   1.000  O
  O11      1.0000 0.25910  0.54776  0.01208  Biso   1.000  O
  O12      1.0000 0.24090  0.45224  0.51208  Biso   1.000  O
  O13      1.0000 0.25910  0.95224  0.51208  Biso   1.000  O
  O14      1.0000 0.24090  0.04776  0.01208  Biso   1.000  O
  O15      1.0000 0.74090  0.45224  0.98792  Biso   1.000  O
  O16      1.0000 0.75910  0.54776  0.48792  Biso   1.000  O
  F17      1.0000 0.70070  0.07536  0.39453  Biso   1.000  F
  F18      1.0000 0.79930  0.92464  0.89453  Biso   1.000  F
  F19      1.0000 0.29930  0.57536  0.10547  Biso   1.000  F
  F20      1.0000 0.20070  0.42464  0.60547  Biso   1.000  F
  F21      1.0000 0.29930  0.92464  0.60547  Biso   1.000  F
  F22      1.0000 0.20070  0.07536  0.10547  Biso   1.000  F
  F23      1.0000 0.70070  0.42464  0.89453  Biso   1.000  F
  F24      1.0000 0.79930  0.57536  0.39453  Biso   1.000  F
  N9       1.0000 0.66760  0.01253  0.80561  Biso   1.000  N
  N10      1.0000 0.83240  0.98747  0.30561  Biso   1.000  N
  N11      1.0000 0.33240  0.51253  0.69439  Biso   1.000  N
  N12      1.0000 0.16760  0.48747  0.19439  Biso   1.000  N
  N13      1.0000 0.33240  0.98747  0.19439  Biso   1.000  N
  N14      1.0000 0.16760  0.01253  0.69439  Biso   1.000  N
  N15      1.0000 0.66760  0.48747  0.30561  Biso   1.000  N
  N16      1.0000 0.83240  0.51253  0.80561  Biso   1.000  N
  C17      1.0000 0.70290  0.98432  0.59397  Biso   1.000  C
  C18      1.0000 0.79710  0.01568  0.09397  Biso   1.000  C
  C19      1.0000 0.29710  0.48432  0.90603  Biso   1.000  C
  C20      1.0000 0.20290  0.51568  0.40603  Biso   1.000  C
  C21      1.0000 0.29710  0.01568  0.40603  Biso   1.000  C
  C22      1.0000 0.20290  0.98432  0.90603  Biso   1.000  C
  C23      1.0000 0.70290  0.51568  0.09397  Biso   1.000  C
  C24      1.0000 0.79710  0.48432  0.59397  Biso   1.000  C
  H25      1.0000 0.65510  0.96040  0.61970  Biso   1.000  H
  H26      1.0000 0.84490  0.03960  0.11970  Biso   1.000  H
  H27      1.0000 0.34490  0.46040  0.88030  Biso   1.000  H
  H28      1.0000 0.15510  0.53960  0.38030  Biso   1.000  H
  H29      1.0000 0.34490  0.03960  0.38030  Biso   1.000  H
  H30      1.0000 0.15510  0.96040  0.88030  Biso   1.000  H
  H31      1.0000 0.65510  0.53960  0.11970  Biso   1.000  H
  H32      1.0000 0.84490  0.46040  0.61970  Biso   1.000  H
  H33      1.0000 0.63810  0.97950  0.56310  Biso   1.000  H
  H34      1.0000 0.86190  0.02050  0.06310  Biso   1.000  H
  H35      1.0000 0.36190  0.47950  0.93690  Biso   1.000  H
  H36      1.0000 0.13810  0.52050  0.43690  Biso   1.000  H
  H37      1.0000 0.36190  0.02050  0.43690  Biso   1.000  H
  H38      1.0000 0.13810  0.97950  0.93690  Biso   1.000  H
  H39      1.0000 0.63810  0.52050  0.06310  Biso   1.000  H
  H40      1.0000 0.86190  0.47950  0.56310  Biso   1.000  H
  C25      1.0000 0.71780  0.05070  0.68187  Biso   1.000  C
  C26      1.0000 0.78220  0.94930  0.18187  Biso   1.000  C
  C27      1.0000 0.28220  0.55070  0.81813  Biso   1.000  C
  C28      1.0000 0.21780  0.44930  0.31813  Biso   1.000  C
  C29      1.0000 0.28220  0.94930  0.31813  Biso   1.000  C
  C30      1.0000 0.21780  0.05070  0.81813  Biso   1.000  C
  C31      1.0000 0.71780  0.44930  0.18187  Biso   1.000  C
  C32      1.0000 0.78220  0.55070  0.68187  Biso   1.000  C
  H41      1.0000 0.82570  0.03310  0.68790  Biso   1.000  H
  H42      1.0000 0.67430  0.96690  0.18790  Biso   1.000  H
  H43      1.0000 0.17430  0.53310  0.81210  Biso   1.000  H
  H44      1.0000 0.32570  0.46690  0.31210  Biso   1.000  H
  H45      1.0000 0.17430  0.96690  0.31210  Biso   1.000  H
  H46      1.0000 0.32570  0.03310  0.81210  Biso   1.000  H
  H47      1.0000 0.82570  0.46690  0.18790  Biso   1.000  H
  H48      1.0000 0.67430  0.53310  0.68790  Biso   1.000  H
  H49      1.0000 0.72510  0.08800  0.69510  Biso   1.000  H
  H50      1.0000 0.77490  0.91200  0.19510  Biso   1.000  H
  H51      1.0000 0.27490  0.58800  0.80490  Biso   1.000  H
  H52      1.0000 0.22510  0.41200  0.30490  Biso   1.000  H
  H53      1.0000 0.27490  0.91200  0.30490  Biso   1.000  H
  H54      1.0000 0.22510  0.08800  0.80490  Biso   1.000  H
  H55      1.0000 0.72510  0.41200  0.19510  Biso   1.000  H
  H56      1.0000 0.77490  0.58800  0.69510  Biso   1.000  H
  C33      1.0000 0.46260  0.06635  0.61083  Biso   1.000  C
  C34      1.0000 0.03740  0.93365  0.11083  Biso   1.000  C
  C35      1.0000 0.53740  0.56635  0.88917  Biso   1.000  C
  C36      1.0000 0.96260  0.43365  0.38917  Biso   1.000  C
  C37      1.0000 0.53740  0.93365  0.38917  Biso   1.000  C
  C38      1.0000 0.96260  0.06635  0.88917  Biso   1.000  C
  C39      1.0000 0.46260  0.43365  0.11083  Biso   1.000  C
  C40      1.0000 0.03740  0.56635  0.61083  Biso   1.000  C
  H57      1.0000 0.40570  0.03630  0.62800  Biso   1.000  H
  H58      1.0000 0.09430  0.96370  0.12800  Biso   1.000  H
  H59      1.0000 0.59430  0.53630  0.87200  Biso   1.000  H
  H60      1.0000 0.90570  0.46370  0.37200  Biso   1.000  H
  H61      1.0000 0.59430  0.96370  0.37200  Biso   1.000  H
  H62      1.0000 0.90570  0.03630  0.87200  Biso   1.000  H
  H63      1.0000 0.40570  0.46370  0.12800  Biso   1.000  H
  H64      1.0000 0.09430  0.53630  0.62800  Biso   1.000  H
  H65      1.0000 0.43570  0.10010  0.62890  Biso   1.000  H
  H66      1.0000 0.06430  0.89990  0.12890  Biso   1.000  H
  H67      1.0000 0.56430  0.60010  0.87110  Biso   1.000  H
  H68      1.0000 0.93570  0.39990  0.37110  Biso   1.000  H
  H69      1.0000 0.56430  0.89990  0.37110  Biso   1.000  H
  H70      1.0000 0.93570  0.10010  0.87110  Biso   1.000  H
  H71      1.0000 0.43570  0.39990  0.12890  Biso   1.000  H
  H72      1.0000 0.06430  0.60010  0.62890  Biso   1.000  H
  N17      1.0000 0.87530  0.29530  0.43944  Biso   1.000  N
  N18      1.0000 0.62470  0.70470  0.93944  Biso   1.000  N
  N19      1.0000 0.12470  0.79530  0.06056  Biso   1.000  N
  N20      1.0000 0.37530  0.20470  0.56056  Biso   1.000  N
  N21      1.0000 0.12470  0.70470  0.56056  Biso   1.000  N
  N22      1.0000 0.37530  0.29530  0.06056  Biso   1.000  N
  N23      1.0000 0.87530  0.20470  0.93944  Biso   1.000  N
  N24      1.0000 0.62470  0.79530  0.43944  Biso   1.000  N
  C41      1.0000 0.04410  0.22423  0.64511  Biso   1.000  C
  C42      1.0000 0.45590  0.77577  0.14511  Biso   1.000  C
  C43      1.0000 0.95590  0.72423  0.85489  Biso   1.000  C
  C44      1.0000 0.54410  0.27577  0.35489  Biso   1.000  C
  C45      1.0000 0.95590  0.77577  0.35489  Biso   1.000  C
  C46      1.0000 0.54410  0.22423  0.85489  Biso   1.000  C
  C47      1.0000 0.04410  0.27577  0.14511  Biso   1.000  C
  C48      1.0000 0.45590  0.72423  0.64511  Biso   1.000  C
  H73      1.0000 0.12330  0.23940  0.62080  Biso   1.000  H
  H74      1.0000 0.37670  0.76060  0.12080  Biso   1.000  H
  H75      1.0000 0.87670  0.73940  0.87920  Biso   1.000  H
  H76      1.0000 0.62330  0.26060  0.37920  Biso   1.000  H
  H77      1.0000 0.87670  0.76060  0.37920  Biso   1.000  H
  H78      1.0000 0.62330  0.23940  0.87920  Biso   1.000  H
  H79      1.0000 0.12330  0.26060  0.12080  Biso   1.000  H
  H80      1.0000 0.37670  0.73940  0.62080  Biso   1.000  H
  H81      1.0000 0.01160  0.25370  0.66800  Biso   1.000  H
  H82      1.0000 0.48840  0.74630  0.16800  Biso   1.000  H
  H83      1.0000 0.98840  0.75370  0.83200  Biso   1.000  H
  H84      1.0000 0.51160  0.24630  0.33200  Biso   1.000  H
  H85      1.0000 0.98840  0.74630  0.33200  Biso   1.000  H
  H86      1.0000 0.51160  0.25370  0.83200  Biso   1.000  H
  H87      1.0000 0.01160  0.24630  0.16800  Biso   1.000  H
  H88      1.0000 0.48840  0.75370  0.66800  Biso   1.000  H
  N25      1.0000 0.89520  0.86510  0.56168  Biso   1.000  N
  N26      1.0000 0.60480  0.13490  0.06168  Biso   1.000  N
  N27      1.0000 0.10480  0.36510  0.93832  Biso   1.000  N
  N28      1.0000 0.39520  0.63490  0.43832  Biso   1.000  N
  N29      1.0000 0.10480  0.13490  0.43832  Biso   1.000  N
  N30      1.0000 0.39520  0.86510  0.93832  Biso   1.000  N
  N31      1.0000 0.89520  0.63490  0.06168  Biso   1.000  N
  N32      1.0000 0.60480  0.36510  0.56168  Biso   1.000  N
  C49      1.0000 0.89160  0.90971  0.57168  Biso   1.000  C
  C50      1.0000 0.60840  0.09029  0.07168  Biso   1.000  C
  C51      1.0000 0.10840  0.40971  0.92832  Biso   1.000  C
  C52      1.0000 0.39160  0.59029  0.42832  Biso   1.000  C
  C53      1.0000 0.10840  0.09029  0.42832  Biso   1.000  C
  C54      1.0000 0.39160  0.90971  0.92832  Biso   1.000  C
  C55      1.0000 0.89160  0.59029  0.07168  Biso   1.000  C
  C56      1.0000 0.60840  0.40971  0.57168  Biso   1.000  C
  C57      1.0000 0.58690  0.02018  0.71213  Biso   1.000  C
  C58      1.0000 0.91310  0.97982  0.21213  Biso   1.000  C
  C59      1.0000 0.41310  0.52018  0.78787  Biso   1.000  C
  C60      1.0000 0.08690  0.47982  0.28787  Biso   1.000  C
  C61      1.0000 0.41310  0.97982  0.28787  Biso   1.000  C
  C62      1.0000 0.08690  0.02018  0.78787  Biso   1.000  C
  C63      1.0000 0.58690  0.47982  0.21213  Biso   1.000  C
  C64      1.0000 0.91310  0.52018  0.71213  Biso   1.000  C
  H89      1.0000 0.48010  0.03940  0.70930  Biso   1.000  H
  H90      1.0000 0.01990  0.96060  0.20930  Biso   1.000  H
  H91      1.0000 0.51990  0.53940  0.79070  Biso   1.000  H
  H92      1.0000 0.98010  0.46060  0.29070  Biso   1.000  H
  H93      1.0000 0.51990  0.96060  0.29070  Biso   1.000  H
  H94      1.0000 0.98010  0.03940  0.79070  Biso   1.000  H
  H95      1.0000 0.48010  0.46060  0.20930  Biso   1.000  H
  H96      1.0000 0.01990  0.53940  0.70930  Biso   1.000  H
  H97      1.0000 0.57260  0.98350  0.69800  Biso   1.000  H
  H98      1.0000 0.92740  0.01650  0.19800  Biso   1.000  H
  H99      1.0000 0.42740  0.48350  0.80200  Biso   1.000  H
  H100     1.0000 0.07260  0.51650  0.30200  Biso   1.000  H
  H101     1.0000 0.42740  0.01650  0.30200  Biso   1.000  H
  H102     1.0000 0.07260  0.98350  0.80200  Biso   1.000  H
  H103     1.0000 0.57260  0.51650  0.19800  Biso   1.000  H
  H104     1.0000 0.92740  0.48350  0.69800  Biso   1.000  H
  C65      1.0000 0.65300  0.27500  0.66572  Biso   1.000  C
  C66      1.0000 0.84700  0.72500  0.16572  Biso   1.000  C
  C67      1.0000 0.34700  0.77500  0.83428  Biso   1.000  C
  C68      1.0000 0.15300  0.22500  0.33428  Biso   1.000  C
  C69      1.0000 0.34700  0.72500  0.33428  Biso   1.000  C
  C70      1.0000 0.15300  0.27500  0.83428  Biso   1.000  C
  C71      1.0000 0.65300  0.22500  0.16572  Biso   1.000  C
  C72      1.0000 0.84700  0.77500  0.66572  Biso   1.000  C
  H105     1.0000 0.75430  0.29140  0.67970  Biso   1.000  H
  H106     1.0000 0.74570  0.70860  0.17970  Biso   1.000  H
  H107     1.0000 0.24570  0.79140  0.82030  Biso   1.000  H
  H108     1.0000 0.25430  0.20860  0.32030  Biso   1.000  H
  H109     1.0000 0.24570  0.70860  0.32030  Biso   1.000  H
  H110     1.0000 0.25430  0.29140  0.82030  Biso   1.000  H
  H111     1.0000 0.75430  0.20860  0.17970  Biso   1.000  H
  H112     1.0000 0.74570  0.79140  0.67970  Biso   1.000  H
  H113     1.0000 0.62360  0.29500  0.63510  Biso   1.000  H
  H114     1.0000 0.87640  0.70500  0.13510  Biso   1.000  H
  H115     1.0000 0.37640  0.79500  0.86490  Biso   1.000  H
  H116     1.0000 0.12360  0.20500  0.36490  Biso   1.000  H
  H117     1.0000 0.37640  0.70500  0.36490  Biso   1.000  H
  H118     1.0000 0.12360  0.29500  0.86490  Biso   1.000  H
  H119     1.0000 0.62360  0.20500  0.13510  Biso   1.000  H
  H120     1.0000 0.87640  0.79500  0.63510  Biso   1.000  H
  C73      1.0000 0.68610  0.21550  0.65285  Biso   1.000  C
  C74      1.0000 0.81390  0.78450  0.15285  Biso   1.000  C
  C75      1.0000 0.31390  0.71550  0.84715  Biso   1.000  C
  C76      1.0000 0.18610  0.28450  0.34715  Biso   1.000  C
  C77      1.0000 0.31390  0.78450  0.34715  Biso   1.000  C
  C78      1.0000 0.18610  0.21550  0.84715  Biso   1.000  C
  C79      1.0000 0.68610  0.28450  0.15285  Biso   1.000  C
  C80      1.0000 0.81390  0.71550  0.65285  Biso   1.000  C
  H121     1.0000 0.58500  0.20050  0.63750  Biso   1.000  H
  H122     1.0000 0.91500  0.79950  0.13750  Biso   1.000  H
  H123     1.0000 0.41500  0.70050  0.86250  Biso   1.000  H
  H124     1.0000 0.08500  0.29950  0.36250  Biso   1.000  H
  H125     1.0000 0.41500  0.79950  0.36250  Biso   1.000  H
  H126     1.0000 0.08500  0.20050  0.86250  Biso   1.000  H
  H127     1.0000 0.58500  0.29950  0.13750  Biso   1.000  H
  H128     1.0000 0.91500  0.70050  0.63750  Biso   1.000  H
  H129     1.0000 0.70430  0.19570  0.68440  Biso   1.000  H
  H130     1.0000 0.79570  0.80430  0.18440  Biso   1.000  H
  H131     1.0000 0.29570  0.69570  0.81560  Biso   1.000  H
  H132     1.0000 0.20430  0.30430  0.31560  Biso   1.000  H
  H133     1.0000 0.29570  0.80430  0.31560  Biso   1.000  H
  H134     1.0000 0.20430  0.19570  0.81560  Biso   1.000  H
  H135     1.0000 0.70430  0.30430  0.18440  Biso   1.000  H
  H136     1.0000 0.79570  0.69570  0.68440  Biso   1.000  H
  N33      1.0000 0.41440  0.28196  0.73022  Biso   1.000  N
  N34      1.0000 0.08560  0.71804  0.23022  Biso   1.000  N
  N35      1.0000 0.58560  0.78196  0.76978  Biso   1.000  N
  N36      1.0000 0.91440  0.21804  0.26978  Biso   1.000  N
  N37      1.0000 0.58560  0.71804  0.26978  Biso   1.000  N
  N38      1.0000 0.91440  0.28196  0.76978  Biso   1.000  N
  N39      1.0000 0.41440  0.21804  0.23022  Biso   1.000  N
  N40      1.0000 0.08560  0.78196  0.73022  Biso   1.000  N
  C81      1.0000 0.51830  0.27966  0.70193  Biso   1.000  C
  C82      1.0000 0.98170  0.72034  0.20193  Biso   1.000  C
  C83      1.0000 0.48170  0.77966  0.79807  Biso   1.000  C
  C84      1.0000 0.01830  0.22034  0.29807  Biso   1.000  C
  C85      1.0000 0.48170  0.72034  0.29807  Biso   1.000  C
  C86      1.0000 0.01830  0.27966  0.79807  Biso   1.000  C
  C87      1.0000 0.51830  0.22034  0.20193  Biso   1.000  C
  C88      1.0000 0.98170  0.77966  0.70193  Biso   1.000  C
  C89      1.0000 0.73110  0.09680  0.48041  Biso   1.000  C
  C90      1.0000 0.76890  0.90320  0.98041  Biso   1.000  C
  C91      1.0000 0.26890  0.59680  0.01959  Biso   1.000  C
  C92      1.0000 0.23110  0.40320  0.51959  Biso   1.000  C
  C93      1.0000 0.26890  0.90320  0.51959  Biso   1.000  C
  C94      1.0000 0.23110  0.09680  0.01959  Biso   1.000  C
  C95      1.0000 0.73110  0.40320  0.98041  Biso   1.000  C
  C96      1.0000 0.76890  0.59680  0.48041  Biso   1.000  C
  C97      1.0000 0.13130  0.17964  0.67531  Biso   1.000  C
  C98      1.0000 0.36870  0.82036  0.17531  Biso   1.000  C
  C99      1.0000 0.86870  0.67964  0.82469  Biso   1.000  C
  C100     1.0000 0.63130  0.32036  0.32469  Biso   1.000  C
  C101     1.0000 0.86870  0.82036  0.32469  Biso   1.000  C
  C102     1.0000 0.63130  0.17964  0.82469  Biso   1.000  C
  C103     1.0000 0.13130  0.32036  0.17531  Biso   1.000  C
  C104     1.0000 0.36870  0.67964  0.67531  Biso   1.000  C
  H137     1.0000 0.15740  0.14910  0.65280  Biso   1.000  H
  H138     1.0000 0.34260  0.85090  0.15280  Biso   1.000  H
  H139     1.0000 0.84260  0.64910  0.84720  Biso   1.000  H
  H140     1.0000 0.65740  0.35090  0.34720  Biso   1.000  H
  H141     1.0000 0.84260  0.85090  0.34720  Biso   1.000  H
  H142     1.0000 0.65740  0.14910  0.84720  Biso   1.000  H
  H143     1.0000 0.15740  0.35090  0.15280  Biso   1.000  H
  H144     1.0000 0.34260  0.64910  0.65280  Biso   1.000  H
  H145     1.0000 0.23700  0.19410  0.68810  Biso   1.000  H
  H146     1.0000 0.26300  0.80590  0.18810  Biso   1.000  H
  H147     1.0000 0.76300  0.69410  0.81190  Biso   1.000  H
  H148     1.0000 0.73700  0.30590  0.31190  Biso   1.000  H
  H149     1.0000 0.76300  0.80590  0.31190  Biso   1.000  H
  H150     1.0000 0.73700  0.19410  0.81190  Biso   1.000  H
  H151     1.0000 0.23700  0.30590  0.18810  Biso   1.000  H
  H152     1.0000 0.26300  0.69410  0.68810  Biso   1.000  H
  N41      1.0000 0.95970  0.14310  0.75005  Biso   1.000  N
  N42      1.0000 0.54030  0.85690  0.25005  Biso   1.000  N
  N43      1.0000 0.04030  0.64310  0.74995  Biso   1.000  N
  N44      1.0000 0.45970  0.35690  0.24995  Biso   1.000  N
  N45      1.0000 0.04030  0.85690  0.24995  Biso   1.000  N
  N46      1.0000 0.45970  0.14310  0.74995  Biso   1.000  N
  N47      1.0000 0.95970  0.35690  0.25005  Biso   1.000  N
  N48      1.0000 0.54030  0.64310  0.75005  Biso   1.000  N
  C105     1.0000 0.88230  0.96768  0.58432  Biso   1.000  C
  C106     1.0000 0.61770  0.03232  0.08432  Biso   1.000  C
  C107     1.0000 0.11770  0.46768  0.91568  Biso   1.000  C
  C108     1.0000 0.38230  0.53232  0.41568  Biso   1.000  C
  C109     1.0000 0.11770  0.03232  0.41568  Biso   1.000  C
  C110     1.0000 0.38230  0.96768  0.91568  Biso   1.000  C
  C111     1.0000 0.88230  0.53232  0.08432  Biso   1.000  C
  C112     1.0000 0.61770  0.46768  0.58432  Biso   1.000  C
  H153     1.0000 0.92780  0.98940  0.55660  Biso   1.000  H
  H154     1.0000 0.57220  0.01060  0.05660  Biso   1.000  H
  H155     1.0000 0.07220  0.48940  0.94340  Biso   1.000  H
  H156     1.0000 0.42780  0.51060  0.44340  Biso   1.000  H
  H157     1.0000 0.07220  0.01060  0.44340  Biso   1.000  H
  H158     1.0000 0.42780  0.98940  0.94340  Biso   1.000  H
  H159     1.0000 0.92780  0.51060  0.05660  Biso   1.000  H
  H160     1.0000 0.57220  0.48940  0.55660  Biso   1.000  H
  H161     1.0000 0.94940  0.97490  0.61430  Biso   1.000  H
  H162     1.0000 0.55060  0.02510  0.11430  Biso   1.000  H
  H163     1.0000 0.05060  0.47490  0.88570  Biso   1.000  H
  H164     1.0000 0.44940  0.52510  0.38570  Biso   1.000  H
  H165     1.0000 0.05060  0.02510  0.38570  Biso   1.000  H
  H166     1.0000 0.44940  0.97490  0.88570  Biso   1.000  H
  H167     1.0000 0.94940  0.52510  0.11430  Biso   1.000  H
  H168     1.0000 0.55060  0.47490  0.61430  Biso   1.000  H
  C113     1.0000 0.83520  0.25166  0.56267  Biso   1.000  C
  C114     1.0000 0.66480  0.74834  0.06267  Biso   1.000  C
  C115     1.0000 0.16480  0.75166  0.93733  Biso   1.000  C
  C116     1.0000 0.33520  0.24834  0.43733  Biso   1.000  C
  C117     1.0000 0.16480  0.74834  0.43733  Biso   1.000  C
  C118     1.0000 0.33520  0.25166  0.93733  Biso   1.000  C
  C119     1.0000 0.83520  0.24834  0.06267  Biso   1.000  C
  C120     1.0000 0.66480  0.75166  0.56267  Biso   1.000  C
  H169     1.0000 0.72240  0.24920  0.54880  Biso   1.000  H
  H170     1.0000 0.77760  0.75080  0.04880  Biso   1.000  H
  H171     1.0000 0.27760  0.74920  0.95120  Biso   1.000  H
  H172     1.0000 0.22240  0.25080  0.45120  Biso   1.000  H
  H173     1.0000 0.27760  0.75080  0.45120  Biso   1.000  H
  H174     1.0000 0.22240  0.24920  0.95120  Biso   1.000  H
  H175     1.0000 0.72240  0.25080  0.04880  Biso   1.000  H
  H176     1.0000 0.77760  0.74920  0.54880  Biso   1.000  H
  H177     1.0000 0.84860  0.28810  0.57740  Biso   1.000  H
  H178     1.0000 0.65140  0.71190  0.07740  Biso   1.000  H
  H179     1.0000 0.15140  0.78810  0.92260  Biso   1.000  H
  H180     1.0000 0.34860  0.21190  0.42260  Biso   1.000  H
  H181     1.0000 0.15140  0.71190  0.42260  Biso   1.000  H
  H182     1.0000 0.34860  0.28810  0.92260  Biso   1.000  H
  H183     1.0000 0.84860  0.21190  0.07740  Biso   1.000  H
  H184     1.0000 0.65140  0.78810  0.57740  Biso   1.000  H
  C121     1.0000 0.63170  0.01566  0.76449  Biso   1.000  C
  C122     1.0000 0.86830  0.98434  0.26449  Biso   1.000  C
  C123     1.0000 0.36830  0.51566  0.73551  Biso   1.000  C
  C124     1.0000 0.13170  0.48434  0.23551  Biso   1.000  C
  C125     1.0000 0.36830  0.98434  0.23551  Biso   1.000  C
  C126     1.0000 0.13170  0.01566  0.73551  Biso   1.000  C
  C127     1.0000 0.63170  0.48434  0.26449  Biso   1.000  C
  C128     1.0000 0.86830  0.51566  0.76449  Biso   1.000  C
  C129     1.0000 0.91330  0.27377  0.47507  Biso   1.000  C
  C130     1.0000 0.58670  0.72623  0.97507  Biso   1.000  C
  C131     1.0000 0.08670  0.77377  0.02493  Biso   1.000  C
  C132     1.0000 0.41330  0.22623  0.52493  Biso   1.000  C
  C133     1.0000 0.08670  0.72623  0.52493  Biso   1.000  C
  C134     1.0000 0.41330  0.27377  0.02493  Biso   1.000  C
  C135     1.0000 0.91330  0.22623  0.97507  Biso   1.000  C
  C136     1.0000 0.58670  0.77377  0.47507  Biso   1.000  C
  C137     1.0000 0.96140  0.24431  0.52048  Biso   1.000  C
  C138     1.0000 0.53860  0.75569  0.02048  Biso   1.000  C
  C139     1.0000 0.03860  0.74431  0.97952  Biso   1.000  C
  C140     1.0000 0.46140  0.25569  0.47952  Biso   1.000  C
  C141     1.0000 0.03860  0.75569  0.47952  Biso   1.000  C
  C142     1.0000 0.46140  0.24431  0.97952  Biso   1.000  C
  C143     1.0000 0.96140  0.25569  0.02048  Biso   1.000  C
  C144     1.0000 0.53860  0.74431  0.52048  Biso   1.000  C
  H185     1.0000 0.07040  0.25750  0.53180  Biso   1.000  H
  H186     1.0000 0.42960  0.74250  0.03180  Biso   1.000  H
  H187     1.0000 0.92960  0.75750  0.96820  Biso   1.000  H
  H188     1.0000 0.57040  0.24250  0.46820  Biso   1.000  H
  H189     1.0000 0.92960  0.74250  0.46820  Biso   1.000  H
  H190     1.0000 0.57040  0.25750  0.96820  Biso   1.000  H
  H191     1.0000 0.07040  0.24250  0.03180  Biso   1.000  H
  H192     1.0000 0.42960  0.75750  0.53180  Biso   1.000  H
  H193     1.0000 0.97200  0.20530  0.51270  Biso   1.000  H
  H194     1.0000 0.52800  0.79470  0.01270  Biso   1.000  H
  H195     1.0000 0.02800  0.70530  0.98730  Biso   1.000  H
  H196     1.0000 0.47200  0.29470  0.48730  Biso   1.000  H
  H197     1.0000 0.02800  0.79470  0.48730  Biso   1.000  H
  H198     1.0000 0.47200  0.20530  0.98730  Biso   1.000  H
  H199     1.0000 0.97200  0.29470  0.01270  Biso   1.000  H
  H200     1.0000 0.52800  0.70530  0.51270  Biso   1.000  H
  C145     1.0000 0.67330  0.11371  0.42858  Biso   1.000  C
  C146     1.0000 0.82670  0.88629  0.92858  Biso   1.000  C
  C147     1.0000 0.32670  0.61371  0.07142  Biso   1.000  C
  C148     1.0000 0.17330  0.38629  0.57142  Biso   1.000  C
  C149     1.0000 0.32670  0.88629  0.57142  Biso   1.000  C
  C150     1.0000 0.17330  0.11371  0.07142  Biso   1.000  C
  C151     1.0000 0.67330  0.38629  0.92858  Biso   1.000  C
  C152     1.0000 0.82670  0.61371  0.42858  Biso   1.000  C
  C153     1.0000 0.03470  0.15898  0.71738  Biso   1.000  C
  C154     1.0000 0.46530  0.84102  0.21738  Biso   1.000  C
  C155     1.0000 0.96530  0.65898  0.78262  Biso   1.000  C
  C156     1.0000 0.53470  0.34102  0.28262  Biso   1.000  C
  C157     1.0000 0.96530  0.84102  0.28262  Biso   1.000  C
  C158     1.0000 0.53470  0.15898  0.78262  Biso   1.000  C
  C159     1.0000 0.03470  0.34102  0.21738  Biso   1.000  C
  C160     1.0000 0.46530  0.65898  0.71738  Biso   1.000  C
  C161     1.0000 0.21760  0.08211  0.55985  Biso   1.000  C
  C162     1.0000 0.28240  0.91789  0.05985  Biso   1.000  C
  C163     1.0000 0.78240  0.58211  0.94015  Biso   1.000  C
  C164     1.0000 0.71760  0.41789  0.44015  Biso   1.000  C
  C165     1.0000 0.78240  0.91789  0.44015  Biso   1.000  C
  C166     1.0000 0.71760  0.08211  0.94015  Biso   1.000  C
  C167     1.0000 0.21760  0.41789  0.05985  Biso   1.000  C
  C168     1.0000 0.28240  0.58211  0.55985  Biso   1.000  C
  C169     1.0000 0.39510  0.07055  0.55801  Biso   1.000  C
  C170     1.0000 0.10490  0.92945  0.05801  Biso   1.000  C
  C171     1.0000 0.60490  0.57055  0.94199  Biso   1.000  C
  C172     1.0000 0.89510  0.42945  0.44199  Biso   1.000  C
  C173     1.0000 0.60490  0.92945  0.44199  Biso   1.000  C
  C174     1.0000 0.89510  0.07055  0.94199  Biso   1.000  C
  C175     1.0000 0.39510  0.42945  0.05801  Biso   1.000  C
  C176     1.0000 0.10490  0.57055  0.55801  Biso   1.000  C
  H201     1.0000 0.45290  0.09980  0.53990  Biso   1.000  H
  H202     1.0000 0.04710  0.90020  0.03990  Biso   1.000  H
  H203     1.0000 0.54710  0.59980  0.96010  Biso   1.000  H
  H204     1.0000 0.95290  0.40020  0.46010  Biso   1.000  H
  H205     1.0000 0.54710  0.90020  0.46010  Biso   1.000  H
  H206     1.0000 0.95290  0.09980  0.96010  Biso   1.000  H
  H207     1.0000 0.45290  0.40020  0.03990  Biso   1.000  H
  H208     1.0000 0.04710  0.59980  0.53990  Biso   1.000  H
  H209     1.0000 0.41440  0.03610  0.54010  Biso   1.000  H
  H210     1.0000 0.08560  0.96390  0.04010  Biso   1.000  H
  H211     1.0000 0.58560  0.53610  0.95990  Biso   1.000  H
  H212     1.0000 0.91440  0.46390  0.45990  Biso   1.000  H
  H213     1.0000 0.58560  0.96390  0.45990  Biso   1.000  H
  H214     1.0000 0.91440  0.03610  0.95990  Biso   1.000  H
  H215     1.0000 0.41440  0.46390  0.04010  Biso   1.000  H
  H216     1.0000 0.08560  0.53610  0.54010  Biso   1.000  H
  N49      1.0000 0.08060  0.09156  0.56379  Biso   1.000  N
  N50      1.0000 0.41940  0.90844  0.06379  Biso   1.000  N
  N51      1.0000 0.91940  0.59156  0.93621  Biso   1.000  N
  N52      1.0000 0.58060  0.40844  0.43621  Biso   1.000  N
  N53      1.0000 0.91940  0.90844  0.43621  Biso   1.000  N
  N54      1.0000 0.58060  0.09156  0.93621  Biso   1.000  N
  N55      1.0000 0.08060  0.40844  0.06379  Biso   1.000  N
  N56      1.0000 0.41940  0.59156  0.56379  Biso   1.000  N
