data_image0
_cell_length_a       20.082
_cell_length_b       8.128
_cell_length_c       14.501
_cell_angle_alpha    90
_cell_angle_beta     90.68
_cell_angle_gamma    90

_symmetry_space_group_name_H-M    "P 1"
_symmetry_int_tables_number       1

loop_
  _symmetry_equiv_pos_as_xyz
  'x, y, z'

loop_
  _atom_site_label
  _atom_site_occupancy
  _atom_site_fract_x
  _atom_site_fract_y
  _atom_site_fract_z
  _atom_site_thermal_displace_type
  _atom_site_B_iso_or_equiv
  _atom_site_type_symbol
  Cu1      1.0000 0.50000  0.17970  0.75000  Biso   1.000  Cu
  Cu2      1.0000 0.00000  0.67970  0.75000  Biso   1.000  Cu
  Cu3      1.0000 0.50000  0.82030  0.25000  Biso   1.000  Cu
  Cu4      1.0000 0.00000  0.32030  0.25000  Biso   1.000  Cu
  S1       1.0000 0.40781  0.35480  0.75390  Biso   1.000  S
  S2       1.0000 0.59219  0.35480  0.74610  Biso   1.000  S
  S3       1.0000 0.90781  0.85480  0.75390  Biso   1.000  S
  S4       1.0000 0.09219  0.85480  0.74610  Biso   1.000  S
  S5       1.0000 0.59219  0.64520  0.24610  Biso   1.000  S
  S6       1.0000 0.40781  0.64520  0.25390  Biso   1.000  S
  S7       1.0000 0.09219  0.14520  0.24610  Biso   1.000  S
  S8       1.0000 0.90781  0.14520  0.25390  Biso   1.000  S
  S9       1.0000 0.53741  0.04640  0.87899  Biso   1.000  S
  S10      1.0000 0.46259  0.04640  0.62101  Biso   1.000  S
  S11      1.0000 0.03741  0.54640  0.87899  Biso   1.000  S
  S12      1.0000 0.96259  0.54640  0.62101  Biso   1.000  S
  S13      1.0000 0.46259  0.95360  0.12101  Biso   1.000  S
  S14      1.0000 0.53741  0.95360  0.37899  Biso   1.000  S
  S15      1.0000 0.96259  0.45360  0.12101  Biso   1.000  S
  S16      1.0000 0.03741  0.45360  0.37899  Biso   1.000  S
  S17      1.0000 0.65710  0.10880  0.99640  Biso   1.000  S
  S18      1.0000 0.34290  0.10880  0.50360  Biso   1.000  S
  S19      1.0000 0.15710  0.60880  0.99640  Biso   1.000  S
  S20      1.0000 0.84290  0.60880  0.50360  Biso   1.000  S
  S21      1.0000 0.34290  0.89120  0.00360  Biso   1.000  S
  S22      1.0000 0.65710  0.89120  0.49640  Biso   1.000  S
  S23      1.0000 0.84290  0.39120  0.00360  Biso   1.000  S
  S24      1.0000 0.15710  0.39120  0.49640  Biso   1.000  S
  S25      1.0000 0.70833  0.37340  0.87790  Biso   1.000  S
  S26      1.0000 0.29167  0.37340  0.62210  Biso   1.000  S
  S27      1.0000 0.20833  0.87340  0.87790  Biso   1.000  S
  S28      1.0000 0.79167  0.87340  0.62210  Biso   1.000  S
  S29      1.0000 0.29167  0.62660  0.12210  Biso   1.000  S
  S30      1.0000 0.70833  0.62660  0.37790  Biso   1.000  S
  S31      1.0000 0.79167  0.12660  0.12210  Biso   1.000  S
  S32      1.0000 0.20833  0.12660  0.37790  Biso   1.000  S
  F1       1.0000 0.00400  0.02600  0.41450  Biso   1.000  F
  F2       1.0000 0.99600  0.02600  0.08550  Biso   1.000  F
  F3       1.0000 0.50400  0.52600  0.41450  Biso   1.000  F
  F4       1.0000 0.49600  0.52600  0.08550  Biso   1.000  F
  F5       1.0000 0.99600  0.97400  0.58550  Biso   1.000  F
  F6       1.0000 0.00400  0.97400  0.91450  Biso   1.000  F
  F7       1.0000 0.49600  0.47400  0.58550  Biso   1.000  F
  F8       1.0000 0.50400  0.47400  0.91450  Biso   1.000  F
  F9       1.0000 0.06880  0.97600  0.47020  Biso   1.000  F
  F10      1.0000 0.93120  0.97600  0.02980  Biso   1.000  F
  F11      1.0000 0.56880  0.47600  0.47020  Biso   1.000  F
  F12      1.0000 0.43120  0.47600  0.02980  Biso   1.000  F
  F13      1.0000 0.93120  0.02400  0.52980  Biso   1.000  F
  F14      1.0000 0.06880  0.02400  0.97020  Biso   1.000  F
  F15      1.0000 0.43120  0.52400  0.52980  Biso   1.000  F
  F16      1.0000 0.56880  0.52400  0.97020  Biso   1.000  F
  F17      1.0000 0.98650  0.16000  0.47200  Biso   1.000  F
  F18      1.0000 0.01350  0.16000  0.02800  Biso   1.000  F
  F19      1.0000 0.48650  0.66000  0.47200  Biso   1.000  F
  F20      1.0000 0.51350  0.66000  0.02800  Biso   1.000  F
  F21      1.0000 0.01350  0.84000  0.52800  Biso   1.000  F
  F22      1.0000 0.98650  0.84000  0.97200  Biso   1.000  F
  F23      1.0000 0.51350  0.34000  0.52800  Biso   1.000  F
  F24      1.0000 0.48650  0.34000  0.97200  Biso   1.000  F
  F25      1.0000 0.95940  0.89200  0.44810  Biso   1.000  F
  F26      1.0000 0.04060  0.89200  0.05190  Biso   1.000  F
  F27      1.0000 0.45940  0.39200  0.44810  Biso   1.000  F
  F28      1.0000 0.54060  0.39200  0.05190  Biso   1.000  F
  F29      1.0000 0.04060  0.10800  0.55190  Biso   1.000  F
  F30      1.0000 0.95940  0.10800  0.94810  Biso   1.000  F
  F31      1.0000 0.54060  0.60800  0.55190  Biso   1.000  F
  F32      1.0000 0.45940  0.60800  0.94810  Biso   1.000  F
  C1       1.0000 0.61200  0.15680  0.89610  Biso   1.000  C
  C2       1.0000 0.38800  0.15680  0.60390  Biso   1.000  C
  C3       1.0000 0.11200  0.65680  0.89610  Biso   1.000  C
  C4       1.0000 0.88800  0.65680  0.60390  Biso   1.000  C
  C5       1.0000 0.38800  0.84320  0.10390  Biso   1.000  C
  C6       1.0000 0.61200  0.84320  0.39610  Biso   1.000  C
  C7       1.0000 0.88800  0.34320  0.10390  Biso   1.000  C
  C8       1.0000 0.11200  0.34320  0.39610  Biso   1.000  C
  C9       1.0000 0.72240  0.24600  0.97290  Biso   1.000  C
  C10      1.0000 0.27760  0.24600  0.52710  Biso   1.000  C
  C11      1.0000 0.22240  0.74600  0.97290  Biso   1.000  C
  C12      1.0000 0.77760  0.74600  0.52710  Biso   1.000  C
  C13      1.0000 0.27760  0.75400  0.02710  Biso   1.000  C
  C14      1.0000 0.72240  0.75400  0.47290  Biso   1.000  C
  C15      1.0000 0.77760  0.25400  0.02710  Biso   1.000  C
  C16      1.0000 0.22240  0.25400  0.47290  Biso   1.000  C
  C17      1.0000 0.63440  0.27660  0.84270  Biso   1.000  C
  C18      1.0000 0.36560  0.27660  0.65730  Biso   1.000  C
  C19      1.0000 0.13440  0.77660  0.84270  Biso   1.000  C
  C20      1.0000 0.86560  0.77660  0.65730  Biso   1.000  C
  C21      1.0000 0.36560  0.72340  0.15730  Biso   1.000  C
  C22      1.0000 0.63440  0.72340  0.34270  Biso   1.000  C
  C23      1.0000 0.86560  0.22340  0.15730  Biso   1.000  C
  C24      1.0000 0.13440  0.22340  0.34270  Biso   1.000  C
  C25      1.0000 0.85270  0.22100  0.34980  Biso   1.000  C
  C26      1.0000 0.14730  0.22100  0.15020  Biso   1.000  C
  C27      1.0000 0.35270  0.72100  0.34980  Biso   1.000  C
  C28      1.0000 0.64730  0.72100  0.15020  Biso   1.000  C
  C29      1.0000 0.14730  0.77900  0.65020  Biso   1.000  C
  C30      1.0000 0.85270  0.77900  0.84980  Biso   1.000  C
  C31      1.0000 0.64730  0.27900  0.65020  Biso   1.000  C
  C32      1.0000 0.35270  0.27900  0.84980  Biso   1.000  C
  C33      1.0000 0.80380  0.11400  0.37560  Biso   1.000  C
  C34      1.0000 0.19620  0.11400  0.12440  Biso   1.000  C
  C35      1.0000 0.30380  0.61400  0.37560  Biso   1.000  C
  C36      1.0000 0.69620  0.61400  0.12440  Biso   1.000  C
  C37      1.0000 0.19620  0.88600  0.62440  Biso   1.000  C
  C38      1.0000 0.80380  0.88600  0.87560  Biso   1.000  C
  C39      1.0000 0.69620  0.38600  0.62440  Biso   1.000  C
  C40      1.0000 0.30380  0.38600  0.87560  Biso   1.000  C
  C41      1.0000 0.57060  0.84260  0.84770  Biso   1.000  C
  C42      1.0000 0.42940  0.84260  0.65230  Biso   1.000  C
  C43      1.0000 0.07060  0.34260  0.84770  Biso   1.000  C
  C44      1.0000 0.92940  0.34260  0.65230  Biso   1.000  C
  C45      1.0000 0.42940  0.15740  0.15230  Biso   1.000  C
  C46      1.0000 0.57060  0.15740  0.34770  Biso   1.000  C
  C47      1.0000 0.92940  0.65740  0.15230  Biso   1.000  C
  C48      1.0000 0.07060  0.65740  0.34770  Biso   1.000  C
  C49      1.0000 0.61430  0.83970  0.76640  Biso   1.000  C
  C50      1.0000 0.38570  0.83970  0.73360  Biso   1.000  C
  C51      1.0000 0.11430  0.33970  0.76640  Biso   1.000  C
  C52      1.0000 0.88570  0.33970  0.73360  Biso   1.000  C
  C53      1.0000 0.38570  0.16030  0.23360  Biso   1.000  C
  C54      1.0000 0.61430  0.16030  0.26640  Biso   1.000  C
  C55      1.0000 0.88570  0.66030  0.23360  Biso   1.000  C
  C56      1.0000 0.11430  0.66030  0.26640  Biso   1.000  C
  B1       1.0000 0.00000  0.00000  0.50000  Biso   1.000  B
  B2       1.0000 0.00000  0.00000  0.00000  Biso   1.000  B
  B3       1.0000 0.50000  0.50000  0.50000  Biso   1.000  B
  B4       1.0000 0.50000  0.50000  0.00000  Biso   1.000  B
  H1       1.0000 0.83030  0.32300  0.33010  Biso   1.000  H
  H2       1.0000 0.16970  0.32300  0.16990  Biso   1.000  H
  H3       1.0000 0.33030  0.82300  0.33010  Biso   1.000  H
  H4       1.0000 0.66970  0.82300  0.16990  Biso   1.000  H
  H5       1.0000 0.16970  0.67700  0.66990  Biso   1.000  H
  H6       1.0000 0.83030  0.67700  0.83010  Biso   1.000  H
  H7       1.0000 0.66970  0.17700  0.66990  Biso   1.000  H
  H8       1.0000 0.33030  0.17700  0.83010  Biso   1.000  H
  H9       1.0000 0.87980  0.25250  0.40290  Biso   1.000  H
  H10      1.0000 0.12020  0.25250  0.09710  Biso   1.000  H
  H11      1.0000 0.37980  0.75250  0.40290  Biso   1.000  H
  H12      1.0000 0.62020  0.75250  0.09710  Biso   1.000  H
  H13      1.0000 0.12020  0.74750  0.59710  Biso   1.000  H
  H14      1.0000 0.87980  0.74750  0.90290  Biso   1.000  H
  H15      1.0000 0.62020  0.24750  0.59710  Biso   1.000  H
  H16      1.0000 0.37980  0.24750  0.90290  Biso   1.000  H
  H17      1.0000 0.82880  0.00850  0.39420  Biso   1.000  H
  H18      1.0000 0.17120  0.00850  0.10580  Biso   1.000  H
  H19      1.0000 0.32880  0.50850  0.39420  Biso   1.000  H
  H20      1.0000 0.67120  0.50850  0.10580  Biso   1.000  H
  H21      1.0000 0.17120  0.99150  0.60580  Biso   1.000  H
  H22      1.0000 0.82880  0.99150  0.89420  Biso   1.000  H
  H23      1.0000 0.67120  0.49150  0.60580  Biso   1.000  H
  H24      1.0000 0.32880  0.49150  0.89420  Biso   1.000  H
  H25      1.0000 0.77930  0.07900  0.32140  Biso   1.000  H
  H26      1.0000 0.22070  0.07900  0.17860  Biso   1.000  H
  H27      1.0000 0.27930  0.57900  0.32140  Biso   1.000  H
  H28      1.0000 0.72070  0.57900  0.17860  Biso   1.000  H
  H29      1.0000 0.22070  0.92100  0.67860  Biso   1.000  H
  H30      1.0000 0.77930  0.92100  0.82140  Biso   1.000  H
  H31      1.0000 0.72070  0.42100  0.67860  Biso   1.000  H
  H32      1.0000 0.27930  0.42100  0.82140  Biso   1.000  H
  H33      1.0000 0.77850  0.14410  0.42190  Biso   1.000  H
  H34      1.0000 0.22150  0.14410  0.07810  Biso   1.000  H
  H35      1.0000 0.27850  0.64410  0.42190  Biso   1.000  H
  H36      1.0000 0.72150  0.64410  0.07810  Biso   1.000  H
  H37      1.0000 0.22150  0.85590  0.57810  Biso   1.000  H
  H38      1.0000 0.77850  0.85590  0.92190  Biso   1.000  H
  H39      1.0000 0.72150  0.35590  0.57810  Biso   1.000  H
  H40      1.0000 0.27850  0.35590  0.92190  Biso   1.000  H
  H41      1.0000 0.59720  0.79920  0.89730  Biso   1.000  H
  H42      1.0000 0.40280  0.79920  0.60270  Biso   1.000  H
  H43      1.0000 0.09720  0.29920  0.89730  Biso   1.000  H
  H44      1.0000 0.90280  0.29920  0.60270  Biso   1.000  H
  H45      1.0000 0.40280  0.20080  0.10270  Biso   1.000  H
  H46      1.0000 0.59720  0.20080  0.39730  Biso   1.000  H
  H47      1.0000 0.90280  0.70080  0.10270  Biso   1.000  H
  H48      1.0000 0.09720  0.70080  0.39730  Biso   1.000  H
  H49      1.0000 0.53510  0.76770  0.83510  Biso   1.000  H
  H50      1.0000 0.46490  0.76770  0.66490  Biso   1.000  H
  H51      1.0000 0.03510  0.26770  0.83510  Biso   1.000  H
  H52      1.0000 0.96490  0.26770  0.66490  Biso   1.000  H
  H53      1.0000 0.46490  0.23230  0.16490  Biso   1.000  H
  H54      1.0000 0.53510  0.23230  0.33510  Biso   1.000  H
  H55      1.0000 0.96490  0.73230  0.16490  Biso   1.000  H
  H56      1.0000 0.03510  0.73230  0.33510  Biso   1.000  H
  H57      1.0000 0.63050  0.73260  0.75020  Biso   1.000  H
  H58      1.0000 0.36950  0.73260  0.74980  Biso   1.000  H
  H59      1.0000 0.13050  0.23260  0.75020  Biso   1.000  H
  H60      1.0000 0.86950  0.23260  0.74980  Biso   1.000  H
  H61      1.0000 0.36950  0.26740  0.24980  Biso   1.000  H
  H62      1.0000 0.63050  0.26740  0.25020  Biso   1.000  H
  H63      1.0000 0.86950  0.76740  0.24980  Biso   1.000  H
  H64      1.0000 0.13050  0.76740  0.25020  Biso   1.000  H
  H65      1.0000 0.59010  0.87960  0.71060  Biso   1.000  H
  H66      1.0000 0.40990  0.87960  0.78940  Biso   1.000  H
  H67      1.0000 0.09010  0.37960  0.71060  Biso   1.000  H
  H68      1.0000 0.90990  0.37960  0.78940  Biso   1.000  H
  H69      1.0000 0.40990  0.12040  0.28940  Biso   1.000  H
  H70      1.0000 0.59010  0.12040  0.21060  Biso   1.000  H
  H71      1.0000 0.90990  0.62040  0.28940  Biso   1.000  H
  H72      1.0000 0.09010  0.62040  0.21060  Biso   1.000  H
  H73      1.0000 0.65220  0.91140  0.77270  Biso   1.000  H
  H74      1.0000 0.34780  0.91140  0.72730  Biso   1.000  H
  H75      1.0000 0.15220  0.41140  0.77270  Biso   1.000  H
  H76      1.0000 0.84780  0.41140  0.72730  Biso   1.000  H
  H77      1.0000 0.34780  0.08860  0.22730  Biso   1.000  H
  H78      1.0000 0.65220  0.08860  0.27270  Biso   1.000  H
  H79      1.0000 0.84780  0.58860  0.22730  Biso   1.000  H
  H80      1.0000 0.15220  0.58860  0.27270  Biso   1.000  H
