data_image0
_cell_length_a       20.821
_cell_length_b       9.232
_cell_length_c       14.349
_cell_angle_alpha    90
_cell_angle_beta     93.09
_cell_angle_gamma    90

_symmetry_space_group_name_H-M    "P 1"
_symmetry_int_tables_number       1

loop_
  _symmetry_equiv_pos_as_xyz
  'x, y, z'

loop_
  _atom_site_label
  _atom_site_occupancy
  _atom_site_fract_x
  _atom_site_fract_y
  _atom_site_fract_z
  _atom_site_thermal_displace_type
  _atom_site_B_iso_or_equiv
  _atom_site_type_symbol
  Cu1      1.0000 0.50000  0.18720  0.75000  Biso   1.000  Cu
  Cu2      1.0000 0.00000  0.68720  0.75000  Biso   1.000  Cu
  Cu3      1.0000 0.50000  0.81280  0.25000  Biso   1.000  Cu
  Cu4      1.0000 0.00000  0.31280  0.25000  Biso   1.000  Cu
  Cl1      1.0000 0.00000  0.00000  0.50000  Biso   1.000  Cl
  Cl2      1.0000 0.00000  0.00000  0.00000  Biso   1.000  Cl
  Cl3      1.0000 0.50000  0.50000  0.50000  Biso   1.000  Cl
  Cl4      1.0000 0.50000  0.50000  0.00000  Biso   1.000  Cl
  S1       1.0000 0.46389  0.08330  0.61027  Biso   1.000  S
  S2       1.0000 0.53611  0.08330  0.88973  Biso   1.000  S
  S3       1.0000 0.96389  0.58330  0.61027  Biso   1.000  S
  S4       1.0000 0.03611  0.58330  0.88973  Biso   1.000  S
  S5       1.0000 0.53611  0.91670  0.38973  Biso   1.000  S
  S6       1.0000 0.46389  0.91670  0.11027  Biso   1.000  S
  S7       1.0000 0.03611  0.41670  0.38973  Biso   1.000  S
  S8       1.0000 0.96389  0.41670  0.11027  Biso   1.000  S
  S9       1.0000 0.40717  0.32370  0.76247  Biso   1.000  S
  S10      1.0000 0.59283  0.32370  0.73753  Biso   1.000  S
  S11      1.0000 0.90717  0.82370  0.76247  Biso   1.000  S
  S12      1.0000 0.09283  0.82370  0.73753  Biso   1.000  S
  S13      1.0000 0.59283  0.67630  0.23753  Biso   1.000  S
  S14      1.0000 0.40717  0.67630  0.26247  Biso   1.000  S
  S15      1.0000 0.09283  0.17630  0.23753  Biso   1.000  S
  S16      1.0000 0.90717  0.17630  0.26247  Biso   1.000  S
  S17      1.0000 0.34425  0.14430  0.49263  Biso   1.000  S
  S18      1.0000 0.65575  0.14430  0.00737  Biso   1.000  S
  S19      1.0000 0.84425  0.64430  0.49263  Biso   1.000  S
  S20      1.0000 0.15575  0.64430  0.00737  Biso   1.000  S
  S21      1.0000 0.65575  0.85570  0.50737  Biso   1.000  S
  S22      1.0000 0.34425  0.85570  0.99263  Biso   1.000  S
  S23      1.0000 0.15575  0.35570  0.50737  Biso   1.000  S
  S24      1.0000 0.84425  0.35570  0.99263  Biso   1.000  S
  S25      1.0000 0.29318  0.35090  0.62670  Biso   1.000  S
  S26      1.0000 0.70682  0.35090  0.87330  Biso   1.000  S
  S27      1.0000 0.79318  0.85090  0.62670  Biso   1.000  S
  S28      1.0000 0.20682  0.85090  0.87330  Biso   1.000  S
  S29      1.0000 0.70682  0.64910  0.37330  Biso   1.000  S
  S30      1.0000 0.29318  0.64910  0.12670  Biso   1.000  S
  S31      1.0000 0.20682  0.14910  0.37330  Biso   1.000  S
  S32      1.0000 0.79318  0.14910  0.12670  Biso   1.000  S
  O1       1.0000 0.93330  0.03900  0.52870  Biso   1.000  O
  O2       1.0000 0.06670  0.03900  0.97130  Biso   1.000  O
  O3       1.0000 0.43330  0.53900  0.52870  Biso   1.000  O
  O4       1.0000 0.56670  0.53900  0.97130  Biso   1.000  O
  O5       1.0000 0.06670  0.96100  0.47130  Biso   1.000  O
  O6       1.0000 0.93330  0.96100  0.02870  Biso   1.000  O
  O7       1.0000 0.56670  0.46100  0.47130  Biso   1.000  O
  O8       1.0000 0.43330  0.46100  0.02870  Biso   1.000  O
  O9       1.0000 0.96540  0.90690  0.43130  Biso   1.000  O
  O10      1.0000 0.03460  0.90690  0.06870  Biso   1.000  O
  O11      1.0000 0.46540  0.40690  0.43130  Biso   1.000  O
  O12      1.0000 0.53460  0.40690  0.06870  Biso   1.000  O
  O13      1.0000 0.03460  0.09310  0.56870  Biso   1.000  O
  O14      1.0000 0.96540  0.09310  0.93130  Biso   1.000  O
  O15      1.0000 0.53460  0.59310  0.56870  Biso   1.000  O
  O16      1.0000 0.46540  0.59310  0.93130  Biso   1.000  O
  O17      1.0000 0.98760  0.13700  0.47870  Biso   1.000  O
  O18      1.0000 0.01240  0.13700  0.02130  Biso   1.000  O
  O19      1.0000 0.48760  0.63700  0.47870  Biso   1.000  O
  O20      1.0000 0.51240  0.63700  0.02130  Biso   1.000  O
  O21      1.0000 0.01240  0.86300  0.52130  Biso   1.000  O
  O22      1.0000 0.98760  0.86300  0.97870  Biso   1.000  O
  O23      1.0000 0.51240  0.36300  0.52130  Biso   1.000  O
  O24      1.0000 0.48760  0.36300  0.97870  Biso   1.000  O
  O25      1.0000 0.00580  0.03360  0.40630  Biso   1.000  O
  O26      1.0000 0.99420  0.03360  0.09370  Biso   1.000  O
  O27      1.0000 0.50580  0.53360  0.40630  Biso   1.000  O
  O28      1.0000 0.49420  0.53360  0.09370  Biso   1.000  O
  O29      1.0000 0.99420  0.96640  0.59370  Biso   1.000  O
  O30      1.0000 0.00580  0.96640  0.90630  Biso   1.000  O
  O31      1.0000 0.49420  0.46640  0.59370  Biso   1.000  O
  O32      1.0000 0.50580  0.46640  0.90630  Biso   1.000  O
  O33      1.0000 0.00200  0.09990  0.43400  Biso   1.000  O
  O34      1.0000 0.99800  0.09990  0.06600  Biso   1.000  O
  O35      1.0000 0.50200  0.59990  0.43400  Biso   1.000  O
  O36      1.0000 0.49800  0.59990  0.06600  Biso   1.000  O
  O37      1.0000 0.99800  0.90010  0.56600  Biso   1.000  O
  O38      1.0000 0.00200  0.90010  0.93400  Biso   1.000  O
  O39      1.0000 0.49800  0.40010  0.56600  Biso   1.000  O
  O40      1.0000 0.50200  0.40010  0.93400  Biso   1.000  O
  C1       1.0000 0.38950  0.17260  0.59760  Biso   1.000  C
  C2       1.0000 0.61050  0.17260  0.90240  Biso   1.000  C
  C3       1.0000 0.88950  0.67260  0.59760  Biso   1.000  C
  C4       1.0000 0.11050  0.67260  0.90240  Biso   1.000  C
  C5       1.0000 0.61050  0.82740  0.40240  Biso   1.000  C
  C6       1.0000 0.38950  0.82740  0.09760  Biso   1.000  C
  C7       1.0000 0.11050  0.32740  0.40240  Biso   1.000  C
  C8       1.0000 0.88950  0.32740  0.09760  Biso   1.000  C
  C9       1.0000 0.36630  0.26590  0.65850  Biso   1.000  C
  C10      1.0000 0.63370  0.26590  0.84150  Biso   1.000  C
  C11      1.0000 0.86630  0.76590  0.65850  Biso   1.000  C
  C12      1.0000 0.13370  0.76590  0.84150  Biso   1.000  C
  C13      1.0000 0.63370  0.73410  0.34150  Biso   1.000  C
  C14      1.0000 0.36630  0.73410  0.15850  Biso   1.000  C
  C15      1.0000 0.13370  0.23410  0.34150  Biso   1.000  C
  C16      1.0000 0.86630  0.23410  0.15850  Biso   1.000  C
  C17      1.0000 0.27830  0.24830  0.52480  Biso   1.000  C
  C18      1.0000 0.72170  0.24830  0.97520  Biso   1.000  C
  C19      1.0000 0.77830  0.74830  0.52480  Biso   1.000  C
  C20      1.0000 0.22170  0.74830  0.97520  Biso   1.000  C
  C21      1.0000 0.72170  0.75170  0.47520  Biso   1.000  C
  C22      1.0000 0.27830  0.75170  0.02480  Biso   1.000  C
  C23      1.0000 0.22170  0.25170  0.47520  Biso   1.000  C
  C24      1.0000 0.77830  0.25170  0.02480  Biso   1.000  C
  C25      1.0000 0.38670  0.71000  0.72640  Biso   1.000  C
  C26      1.0000 0.61330  0.71000  0.77360  Biso   1.000  C
  C27      1.0000 0.88670  0.21000  0.72640  Biso   1.000  C
  C28      1.0000 0.11330  0.21000  0.77360  Biso   1.000  C
  C29      1.0000 0.61330  0.29000  0.27360  Biso   1.000  C
  C30      1.0000 0.38670  0.29000  0.22640  Biso   1.000  C
  C31      1.0000 0.11330  0.79000  0.27360  Biso   1.000  C
  C32      1.0000 0.88670  0.79000  0.22640  Biso   1.000  C
  C33      1.0000 0.40260  0.86960  0.71200  Biso   1.000  C
  C34      1.0000 0.59740  0.86960  0.78800  Biso   1.000  C
  C35      1.0000 0.90260  0.36960  0.71200  Biso   1.000  C
  C36      1.0000 0.09740  0.36960  0.78800  Biso   1.000  C
  C37      1.0000 0.59740  0.13040  0.28800  Biso   1.000  C
  C38      1.0000 0.40260  0.13040  0.21200  Biso   1.000  C
  C39      1.0000 0.09740  0.63040  0.28800  Biso   1.000  C
  C40      1.0000 0.90260  0.63040  0.21200  Biso   1.000  C
  C41      1.0000 0.43790  0.89700  0.62530  Biso   1.000  C
  C42      1.0000 0.56210  0.89700  0.87470  Biso   1.000  C
  C43      1.0000 0.93790  0.39700  0.62530  Biso   1.000  C
  C44      1.0000 0.06210  0.39700  0.87470  Biso   1.000  C
  C45      1.0000 0.56210  0.10300  0.37470  Biso   1.000  C
  C46      1.0000 0.43790  0.10300  0.12530  Biso   1.000  C
  C47      1.0000 0.06210  0.60300  0.37470  Biso   1.000  C
  C48      1.0000 0.93790  0.60300  0.12530  Biso   1.000  C
  C49      1.0000 0.28740  0.41900  0.89030  Biso   1.000  C
  C50      1.0000 0.71260  0.41900  0.60970  Biso   1.000  C
  C51      1.0000 0.78740  0.91900  0.89030  Biso   1.000  C
  C52      1.0000 0.21260  0.91900  0.60970  Biso   1.000  C
  C53      1.0000 0.71260  0.58100  0.10970  Biso   1.000  C
  C54      1.0000 0.28740  0.58100  0.39030  Biso   1.000  C
  C55      1.0000 0.21260  0.08100  0.10970  Biso   1.000  C
  C56      1.0000 0.78740  0.08100  0.39030  Biso   1.000  C
  C57      1.0000 0.29820  0.26700  0.86920  Biso   1.000  C
  C58      1.0000 0.70180  0.26700  0.63080  Biso   1.000  C
  C59      1.0000 0.79820  0.76700  0.86920  Biso   1.000  C
  C60      1.0000 0.20180  0.76700  0.63080  Biso   1.000  C
  C61      1.0000 0.70180  0.73300  0.13080  Biso   1.000  C
  C62      1.0000 0.29820  0.73300  0.36920  Biso   1.000  C
  C63      1.0000 0.20180  0.23300  0.13080  Biso   1.000  C
  C64      1.0000 0.79820  0.23300  0.36920  Biso   1.000  C
  C65      1.0000 0.36450  0.22620  0.85340  Biso   1.000  C
  C66      1.0000 0.63550  0.22620  0.64660  Biso   1.000  C
  C67      1.0000 0.86450  0.72620  0.85340  Biso   1.000  C
  C68      1.0000 0.13550  0.72620  0.64660  Biso   1.000  C
  C69      1.0000 0.63550  0.77380  0.14660  Biso   1.000  C
  C70      1.0000 0.36450  0.77380  0.35340  Biso   1.000  C
  C71      1.0000 0.13550  0.27380  0.14660  Biso   1.000  C
  C72      1.0000 0.86450  0.27380  0.35340  Biso   1.000  C
  H1       1.0000 0.47120  0.81430  0.62700  Biso   1.000  H
  H2       1.0000 0.52880  0.81430  0.87300  Biso   1.000  H
  H3       1.0000 0.97120  0.31430  0.62700  Biso   1.000  H
  H4       1.0000 0.02880  0.31430  0.87300  Biso   1.000  H
  H5       1.0000 0.52880  0.18570  0.37300  Biso   1.000  H
  H6       1.0000 0.47120  0.18570  0.12700  Biso   1.000  H
  H7       1.0000 0.02880  0.68570  0.37300  Biso   1.000  H
  H8       1.0000 0.97120  0.68570  0.12700  Biso   1.000  H
  H9       1.0000 0.42050  0.87110  0.56340  Biso   1.000  H
  H10      1.0000 0.57950  0.87110  0.93660  Biso   1.000  H
  H11      1.0000 0.92050  0.37110  0.56340  Biso   1.000  H
  H12      1.0000 0.07950  0.37110  0.93660  Biso   1.000  H
  H13      1.0000 0.57950  0.12890  0.43660  Biso   1.000  H
  H14      1.0000 0.42050  0.12890  0.06340  Biso   1.000  H
  H15      1.0000 0.07950  0.62890  0.43660  Biso   1.000  H
  H16      1.0000 0.92050  0.62890  0.06340  Biso   1.000  H
  H17      1.0000 0.37200  0.89460  0.70800  Biso   1.000  H
  H18      1.0000 0.62800  0.89460  0.79200  Biso   1.000  H
  H19      1.0000 0.87200  0.39460  0.70800  Biso   1.000  H
  H20      1.0000 0.12800  0.39460  0.79200  Biso   1.000  H
  H21      1.0000 0.62800  0.10540  0.29200  Biso   1.000  H
  H22      1.0000 0.37200  0.10540  0.20800  Biso   1.000  H
  H23      1.0000 0.12800  0.60540  0.29200  Biso   1.000  H
  H24      1.0000 0.87200  0.60540  0.20800  Biso   1.000  H
  H25      1.0000 0.42590  0.89590  0.77430  Biso   1.000  H
  H26      1.0000 0.57410  0.89590  0.72570  Biso   1.000  H
  H27      1.0000 0.92590  0.39590  0.77430  Biso   1.000  H
  H28      1.0000 0.07410  0.39590  0.72570  Biso   1.000  H
  H29      1.0000 0.57410  0.10410  0.22570  Biso   1.000  H
  H30      1.0000 0.42590  0.10410  0.27430  Biso   1.000  H
  H31      1.0000 0.07410  0.60410  0.22570  Biso   1.000  H
  H32      1.0000 0.92590  0.60410  0.27430  Biso   1.000  H
  H33      1.0000 0.35910  0.12570  0.85160  Biso   1.000  H
  H34      1.0000 0.64090  0.12570  0.64840  Biso   1.000  H
  H35      1.0000 0.85910  0.62570  0.85160  Biso   1.000  H
  H36      1.0000 0.14090  0.62570  0.64840  Biso   1.000  H
  H37      1.0000 0.64090  0.87430  0.14840  Biso   1.000  H
  H38      1.0000 0.35910  0.87430  0.35160  Biso   1.000  H
  H39      1.0000 0.14090  0.37430  0.14840  Biso   1.000  H
  H40      1.0000 0.85910  0.37430  0.35160  Biso   1.000  H
  H41      1.0000 0.39430  0.28410  0.90100  Biso   1.000  H
  H42      1.0000 0.60570  0.28410  0.59900  Biso   1.000  H
  H43      1.0000 0.89430  0.78410  0.90100  Biso   1.000  H
  H44      1.0000 0.10570  0.78410  0.59900  Biso   1.000  H
  H45      1.0000 0.60570  0.71590  0.09900  Biso   1.000  H
  H46      1.0000 0.39430  0.71590  0.40100  Biso   1.000  H
  H47      1.0000 0.10570  0.21590  0.09900  Biso   1.000  H
  H48      1.0000 0.89430  0.21590  0.40100  Biso   1.000  H
  H49      1.0000 0.36280  0.69040  0.77490  Biso   1.000  H
  H50      1.0000 0.63720  0.69040  0.72510  Biso   1.000  H
  H51      1.0000 0.86280  0.19040  0.77490  Biso   1.000  H
  H52      1.0000 0.13720  0.19040  0.72510  Biso   1.000  H
  H53      1.0000 0.63720  0.30960  0.22510  Biso   1.000  H
  H54      1.0000 0.36280  0.30960  0.27490  Biso   1.000  H
  H55      1.0000 0.13720  0.80960  0.22510  Biso   1.000  H
  H56      1.0000 0.86280  0.80960  0.27490  Biso   1.000  H
  H57      1.0000 0.35890  0.67920  0.66680  Biso   1.000  H
  H58      1.0000 0.64110  0.67920  0.83320  Biso   1.000  H
  H59      1.0000 0.85890  0.17920  0.66680  Biso   1.000  H
  H60      1.0000 0.14110  0.17920  0.83320  Biso   1.000  H
  H61      1.0000 0.64110  0.32080  0.33320  Biso   1.000  H
  H62      1.0000 0.35890  0.32080  0.16680  Biso   1.000  H
  H63      1.0000 0.14110  0.82080  0.33320  Biso   1.000  H
  H64      1.0000 0.85890  0.82080  0.16680  Biso   1.000  H
  H65      1.0000 0.42360  0.65070  0.72250  Biso   1.000  H
  H66      1.0000 0.57640  0.65070  0.77750  Biso   1.000  H
  H67      1.0000 0.92360  0.15070  0.72250  Biso   1.000  H
  H68      1.0000 0.07640  0.15070  0.77750  Biso   1.000  H
  H69      1.0000 0.57640  0.34930  0.27750  Biso   1.000  H
  H70      1.0000 0.42360  0.34930  0.22250  Biso   1.000  H
  H71      1.0000 0.07640  0.84930  0.27750  Biso   1.000  H
  H72      1.0000 0.92360  0.84930  0.22250  Biso   1.000  H
  H73      1.0000 0.30660  0.44220  0.94180  Biso   1.000  H
  H74      1.0000 0.69340  0.44220  0.55820  Biso   1.000  H
  H75      1.0000 0.80660  0.94220  0.94180  Biso   1.000  H
  H76      1.0000 0.19340  0.94220  0.55820  Biso   1.000  H
  H77      1.0000 0.69340  0.55780  0.05820  Biso   1.000  H
  H78      1.0000 0.30660  0.55780  0.44180  Biso   1.000  H
  H79      1.0000 0.19340  0.05780  0.05820  Biso   1.000  H
  H80      1.0000 0.80660  0.05780  0.44180  Biso   1.000  H
  H81      1.0000 0.29590  0.47180  0.83570  Biso   1.000  H
  H82      1.0000 0.70410  0.47180  0.66430  Biso   1.000  H
  H83      1.0000 0.79590  0.97180  0.83570  Biso   1.000  H
  H84      1.0000 0.20410  0.97180  0.66430  Biso   1.000  H
  H85      1.0000 0.70410  0.52820  0.16430  Biso   1.000  H
  H86      1.0000 0.29590  0.52820  0.33570  Biso   1.000  H
  H87      1.0000 0.20410  0.02820  0.16430  Biso   1.000  H
  H88      1.0000 0.79590  0.02820  0.33570  Biso   1.000  H
  H89      1.0000 0.23860  0.42490  0.89350  Biso   1.000  H
  H90      1.0000 0.76140  0.42490  0.60650  Biso   1.000  H
  H91      1.0000 0.73860  0.92490  0.89350  Biso   1.000  H
  H92      1.0000 0.26140  0.92490  0.60650  Biso   1.000  H
  H93      1.0000 0.76140  0.57510  0.10650  Biso   1.000  H
  H94      1.0000 0.23860  0.57510  0.39350  Biso   1.000  H
  H95      1.0000 0.26140  0.07510  0.10650  Biso   1.000  H
  H96      1.0000 0.73860  0.07510  0.39350  Biso   1.000  H
  H97      1.0000 0.28240  0.21380  0.91850  Biso   1.000  H
  H98      1.0000 0.71760  0.21380  0.58150  Biso   1.000  H
  H99      1.0000 0.78240  0.71380  0.91850  Biso   1.000  H
  H100     1.0000 0.21760  0.71380  0.58150  Biso   1.000  H
  H101     1.0000 0.71760  0.78620  0.08150  Biso   1.000  H
  H102     1.0000 0.28240  0.78620  0.41850  Biso   1.000  H
  H103     1.0000 0.21760  0.28620  0.08150  Biso   1.000  H
  H104     1.0000 0.78240  0.28620  0.41850  Biso   1.000  H
  H105     1.0000 0.27190  0.24350  0.81230  Biso   1.000  H
  H106     1.0000 0.72810  0.24350  0.68770  Biso   1.000  H
  H107     1.0000 0.77190  0.74350  0.81230  Biso   1.000  H
  H108     1.0000 0.22810  0.74350  0.68770  Biso   1.000  H
  H109     1.0000 0.72810  0.75650  0.18770  Biso   1.000  H
  H110     1.0000 0.27190  0.75650  0.31230  Biso   1.000  H
  H111     1.0000 0.22810  0.25650  0.18770  Biso   1.000  H
  H112     1.0000 0.77190  0.25650  0.31230  Biso   1.000  H
