data_image0
_cell_length_a       15.368
_cell_length_b       8.37
_cell_length_c       13.71
_cell_angle_alpha    90
_cell_angle_beta     101.697
_cell_angle_gamma    90

_symmetry_space_group_name_H-M    "P 1"
_symmetry_int_tables_number       1

loop_
  _symmetry_equiv_pos_as_xyz
  'x, y, z'

loop_
  _atom_site_label
  _atom_site_occupancy
  _atom_site_fract_x
  _atom_site_fract_y
  _atom_site_fract_z
  _atom_site_thermal_displace_type
  _atom_site_B_iso_or_equiv
  _atom_site_type_symbol
  Cu1      1.0000 0.36373  0.04683  0.62769  Biso   1.000  Cu
  Cu2      1.0000 0.63627  0.54683  0.87231  Biso   1.000  Cu
  Cu3      1.0000 0.63627  0.95317  0.37231  Biso   1.000  Cu
  Cu4      1.0000 0.36373  0.45317  0.12769  Biso   1.000  Cu
  Cu5      1.0000 0.58237  0.45032  0.61548  Biso   1.000  Cu
  Cu6      1.0000 0.41763  0.95032  0.88452  Biso   1.000  Cu
  Cu7      1.0000 0.41763  0.54968  0.38452  Biso   1.000  Cu
  Cu8      1.0000 0.58237  0.04968  0.11548  Biso   1.000  Cu
  Cu9      1.0000 0.08449  0.77194  0.62609  Biso   1.000  Cu
  Cu10     1.0000 0.91551  0.27194  0.87391  Biso   1.000  Cu
  Cu11     1.0000 0.91551  0.22806  0.37391  Biso   1.000  Cu
  Cu12     1.0000 0.08449  0.72806  0.12609  Biso   1.000  Cu
  Cu13     1.0000 0.85698  0.16779  0.60298  Biso   1.000  Cu
  Cu14     1.0000 0.14302  0.66779  0.89702  Biso   1.000  Cu
  Cu15     1.0000 0.14302  0.83221  0.39702  Biso   1.000  Cu
  Cu16     1.0000 0.85698  0.33221  0.10298  Biso   1.000  Cu
  N1       1.0000 0.05060  0.53860  0.62410  Biso   1.000  N
  N2       1.0000 0.94940  0.03860  0.87590  Biso   1.000  N
  N3       1.0000 0.94940  0.46140  0.37590  Biso   1.000  N
  N4       1.0000 0.05060  0.96140  0.12410  Biso   1.000  N
  N5       1.0000 0.09910  0.40670  0.61340  Biso   1.000  N
  N6       1.0000 0.90090  0.90670  0.88660  Biso   1.000  N
  N7       1.0000 0.90090  0.59330  0.38660  Biso   1.000  N
  N8       1.0000 0.09910  0.09330  0.11340  Biso   1.000  N
  C1       1.0000 0.97190  0.48220  0.62580  Biso   1.000  C
  C2       1.0000 0.02810  0.98220  0.87420  Biso   1.000  C
  C3       1.0000 0.02810  0.51780  0.37420  Biso   1.000  C
  C4       1.0000 0.97190  0.01780  0.12580  Biso   1.000  C
  H1       1.0000 0.92430  0.54620  0.63380  Biso   1.000  H
  H2       1.0000 0.07570  0.04620  0.86620  Biso   1.000  H
  H3       1.0000 0.07570  0.45380  0.36620  Biso   1.000  H
  H4       1.0000 0.92430  0.95380  0.13380  Biso   1.000  H
  N9       1.0000 0.96600  0.32130  0.61490  Biso   1.000  N
  N10      1.0000 0.03400  0.82130  0.88510  Biso   1.000  N
  N11      1.0000 0.03400  0.67870  0.38510  Biso   1.000  N
  N12      1.0000 0.96600  0.17870  0.11490  Biso   1.000  N
  N13      1.0000 0.42100  0.24540  0.62240  Biso   1.000  N
  N14      1.0000 0.57900  0.74540  0.87760  Biso   1.000  N
  N15      1.0000 0.57900  0.75460  0.37760  Biso   1.000  N
  N16      1.0000 0.42100  0.25460  0.12240  Biso   1.000  N
  N17      1.0000 0.44670  0.18160  0.87340  Biso   1.000  N
  N18      1.0000 0.55330  0.68160  0.62660  Biso   1.000  N
  N19      1.0000 0.55330  0.81840  0.12660  Biso   1.000  N
  N20      1.0000 0.44670  0.31840  0.37340  Biso   1.000  N
  N21      1.0000 0.25900  0.93480  0.62840  Biso   1.000  N
  N22      1.0000 0.74100  0.43480  0.87160  Biso   1.000  N
  N23      1.0000 0.74100  0.06520  0.37160  Biso   1.000  N
  N24      1.0000 0.25900  0.56520  0.12840  Biso   1.000  N
  N25      1.0000 0.75290  0.28580  0.60090  Biso   1.000  N
  N26      1.0000 0.24710  0.78580  0.89910  Biso   1.000  N
  N27      1.0000 0.24710  0.71420  0.39910  Biso   1.000  N
  N28      1.0000 0.75290  0.21420  0.10090  Biso   1.000  N
  C5       1.0000 0.97160  0.87400  0.62060  Biso   1.000  C
  C6       1.0000 0.02840  0.37400  0.87940  Biso   1.000  C
  C7       1.0000 0.02840  0.12600  0.37940  Biso   1.000  C
  C8       1.0000 0.97160  0.62600  0.12060  Biso   1.000  C
  N29      1.0000 0.39680  0.31510  0.87890  Biso   1.000  N
  N30      1.0000 0.60320  0.81510  0.62110  Biso   1.000  N
  N31      1.0000 0.60320  0.68490  0.12110  Biso   1.000  N
  N32      1.0000 0.39680  0.18490  0.37890  Biso   1.000  N
  N33      1.0000 0.53040  0.39600  0.87750  Biso   1.000  N
  N34      1.0000 0.46960  0.89600  0.62250  Biso   1.000  N
  N35      1.0000 0.46960  0.60400  0.12250  Biso   1.000  N
  N36      1.0000 0.53040  0.10400  0.37750  Biso   1.000  N
  N37      1.0000 0.91900  0.96960  0.61430  Biso   1.000  N
  N38      1.0000 0.08100  0.46960  0.88570  Biso   1.000  N
  N39      1.0000 0.08100  0.03040  0.38570  Biso   1.000  N
  N40      1.0000 0.91900  0.53040  0.11430  Biso   1.000  N
  C9       1.0000 0.47330  0.34230  0.61950  Biso   1.000  C
  C10      1.0000 0.52670  0.84230  0.88050  Biso   1.000  C
  C11      1.0000 0.52670  0.65770  0.38050  Biso   1.000  C
  C12      1.0000 0.47330  0.15770  0.11950  Biso   1.000  C
  C13      1.0000 0.04660  0.28080  0.60770  Biso   1.000  C
  C14      1.0000 0.95340  0.78080  0.89230  Biso   1.000  C
  C15      1.0000 0.95340  0.71920  0.39230  Biso   1.000  C
  C16      1.0000 0.04660  0.21920  0.10770  Biso   1.000  C
  H5       1.0000 0.06470  0.17650  0.59950  Biso   1.000  H
  H6       1.0000 0.93530  0.67650  0.90050  Biso   1.000  H
  H7       1.0000 0.93530  0.82350  0.40050  Biso   1.000  H
  H8       1.0000 0.06470  0.32350  0.09950  Biso   1.000  H
  C17      1.0000 0.52500  0.23750  0.87250  Biso   1.000  C
  C18      1.0000 0.47500  0.73750  0.62750  Biso   1.000  C
  C19      1.0000 0.47500  0.76250  0.12750  Biso   1.000  C
  C20      1.0000 0.52500  0.26250  0.37250  Biso   1.000  C
  H9       1.0000 0.57330  0.17250  0.86870  Biso   1.000  H
  H10      1.0000 0.42670  0.67250  0.63130  Biso   1.000  H
  H11      1.0000 0.42670  0.82750  0.13130  Biso   1.000  H
  H12      1.0000 0.57330  0.32750  0.36870  Biso   1.000  H
  C21      1.0000 0.24980  0.43410  0.71200  Biso   1.000  C
  C22      1.0000 0.75020  0.93410  0.78800  Biso   1.000  C
  C23      1.0000 0.75020  0.56590  0.28800  Biso   1.000  C
  C24      1.0000 0.24980  0.06590  0.21200  Biso   1.000  C
  H13      1.0000 0.23070  0.52900  0.74240  Biso   1.000  H
  H14      1.0000 0.76930  0.02900  0.75760  Biso   1.000  H
  H15      1.0000 0.76930  0.47100  0.25760  Biso   1.000  H
  H16      1.0000 0.23070  0.97100  0.24240  Biso   1.000  H
  H17      1.0000 0.31110  0.45010  0.70640  Biso   1.000  H
  H18      1.0000 0.68890  0.95010  0.79360  Biso   1.000  H
  H19      1.0000 0.68890  0.54990  0.29360  Biso   1.000  H
  H20      1.0000 0.31110  0.04990  0.20640  Biso   1.000  H
  C25      1.0000 0.24510  0.29180  0.77970  Biso   1.000  C
  C26      1.0000 0.75490  0.79180  0.72030  Biso   1.000  C
  C27      1.0000 0.75490  0.70820  0.22030  Biso   1.000  C
  C28      1.0000 0.24510  0.20820  0.27970  Biso   1.000  C
  H21      1.0000 0.18390  0.27790  0.78630  Biso   1.000  H
  H22      1.0000 0.81610  0.77790  0.71370  Biso   1.000  H
  H23      1.0000 0.81610  0.72210  0.21370  Biso   1.000  H
  H24      1.0000 0.18390  0.22210  0.28630  Biso   1.000  H
  H25      1.0000 0.26240  0.19660  0.74800  Biso   1.000  H
  H26      1.0000 0.73760  0.69660  0.75200  Biso   1.000  H
  H27      1.0000 0.73760  0.80340  0.25200  Biso   1.000  H
  H28      1.0000 0.26240  0.30340  0.24800  Biso   1.000  H
  C29      1.0000 0.68910  0.35690  0.60160  Biso   1.000  C
  C30      1.0000 0.31090  0.85690  0.89840  Biso   1.000  C
  C31      1.0000 0.31090  0.64310  0.39840  Biso   1.000  C
  C32      1.0000 0.68910  0.14310  0.10160  Biso   1.000  C
  C33      1.0000 0.19400  0.41450  0.61030  Biso   1.000  C
  C34      1.0000 0.80600  0.91450  0.88970  Biso   1.000  C
  C35      1.0000 0.80600  0.58550  0.38970  Biso   1.000  C
  C36      1.0000 0.19400  0.08550  0.11030  Biso   1.000  C
  H29      1.0000 0.20430  0.50380  0.56890  Biso   1.000  H
  H30      1.0000 0.79570  0.00380  0.93110  Biso   1.000  H
  H31      1.0000 0.79570  0.49620  0.43110  Biso   1.000  H
  H32      1.0000 0.20430  0.99620  0.06890  Biso   1.000  H
  H33      1.0000 0.21120  0.31740  0.58050  Biso   1.000  H
  H34      1.0000 0.78880  0.81740  0.91950  Biso   1.000  H
  H35      1.0000 0.78880  0.68260  0.41950  Biso   1.000  H
  H36      1.0000 0.21120  0.18260  0.08050  Biso   1.000  H
  C37      1.0000 0.44850  0.44100  0.88140  Biso   1.000  C
  C38      1.0000 0.55150  0.94100  0.61860  Biso   1.000  C
  C39      1.0000 0.55150  0.55900  0.11860  Biso   1.000  C
  C40      1.0000 0.44850  0.05900  0.38140  Biso   1.000  C
  H37      1.0000 0.43020  0.54630  0.88540  Biso   1.000  H
  H38      1.0000 0.56980  0.04630  0.61460  Biso   1.000  H
  H39      1.0000 0.56980  0.45370  0.11460  Biso   1.000  H
  H40      1.0000 0.43020  0.95370  0.38540  Biso   1.000  H
  C41      1.0000 0.30180  0.30520  0.88070  Biso   1.000  C
  C42      1.0000 0.69820  0.80520  0.61930  Biso   1.000  C
  C43      1.0000 0.69820  0.69480  0.11930  Biso   1.000  C
  C44      1.0000 0.30180  0.19480  0.38070  Biso   1.000  C
  H41      1.0000 0.28460  0.39970  0.91320  Biso   1.000  H
  H42      1.0000 0.71540  0.89970  0.58680  Biso   1.000  H
  H43      1.0000 0.71540  0.60030  0.08680  Biso   1.000  H
  H44      1.0000 0.28460  0.10030  0.41320  Biso   1.000  H
  H45      1.0000 0.29170  0.21310  0.91990  Biso   1.000  H
  H46      1.0000 0.70830  0.71310  0.58010  Biso   1.000  H
  H47      1.0000 0.70830  0.78690  0.08010  Biso   1.000  H
  H48      1.0000 0.29170  0.28690  0.41990  Biso   1.000  H
  C45      1.0000 0.19380  0.86540  0.62830  Biso   1.000  C
  C46      1.0000 0.80620  0.36540  0.87170  Biso   1.000  C
  C47      1.0000 0.80620  0.13460  0.37170  Biso   1.000  C
  C48      1.0000 0.19380  0.63460  0.12830  Biso   1.000  C
