data_image0
_cell_length_a       15.836
_cell_length_b       24.736
_cell_length_c       7.948
_cell_angle_alpha    90
_cell_angle_beta     90
_cell_angle_gamma    90

_symmetry_space_group_name_H-M    "P 1"
_symmetry_int_tables_number       1

loop_
  _symmetry_equiv_pos_as_xyz
  'x, y, z'

loop_
  _atom_site_label
  _atom_site_occupancy
  _atom_site_fract_x
  _atom_site_fract_y
  _atom_site_fract_z
  _atom_site_thermal_displace_type
  _atom_site_B_iso_or_equiv
  _atom_site_type_symbol
  Cu1      1.0000 0.08483  0.17017  0.69009  Biso   1.000  Cu
  Cu2      1.0000 0.91517  0.82983  0.69009  Biso   1.000  Cu
  Cu3      1.0000 0.33483  0.07983  0.94009  Biso   1.000  Cu
  Cu4      1.0000 0.16517  0.42017  0.94009  Biso   1.000  Cu
  Cu5      1.0000 0.08483  0.67017  0.19009  Biso   1.000  Cu
  Cu6      1.0000 0.91517  0.32983  0.19009  Biso   1.000  Cu
  Cu7      1.0000 0.33483  0.57983  0.44009  Biso   1.000  Cu
  Cu8      1.0000 0.16517  0.92017  0.44009  Biso   1.000  Cu
  Cu9      1.0000 0.58483  0.17017  0.19009  Biso   1.000  Cu
  Cu10     1.0000 0.41517  0.82983  0.19009  Biso   1.000  Cu
  Cu11     1.0000 0.83483  0.07983  0.44009  Biso   1.000  Cu
  Cu12     1.0000 0.66517  0.42017  0.44009  Biso   1.000  Cu
  Cu13     1.0000 0.58483  0.67017  0.69009  Biso   1.000  Cu
  Cu14     1.0000 0.41517  0.32983  0.69009  Biso   1.000  Cu
  Cu15     1.0000 0.83483  0.57983  0.94009  Biso   1.000  Cu
  Cu16     1.0000 0.66517  0.92017  0.94009  Biso   1.000  Cu
  C1       1.0000 0.01460  0.42331  0.49630  Biso   1.000  C
  C2       1.0000 0.98540  0.57669  0.49630  Biso   1.000  C
  C3       1.0000 0.26460  0.82669  0.74630  Biso   1.000  C
  C4       1.0000 0.23540  0.67331  0.74630  Biso   1.000  C
  C5       1.0000 0.01460  0.92331  0.99630  Biso   1.000  C
  C6       1.0000 0.98540  0.07669  0.99630  Biso   1.000  C
  C7       1.0000 0.26460  0.32669  0.24630  Biso   1.000  C
  C8       1.0000 0.23540  0.17331  0.24630  Biso   1.000  C
  C9       1.0000 0.51460  0.42331  0.99630  Biso   1.000  C
  C10      1.0000 0.48540  0.57669  0.99630  Biso   1.000  C
  C11      1.0000 0.76460  0.82669  0.24630  Biso   1.000  C
  C12      1.0000 0.73540  0.67331  0.24630  Biso   1.000  C
  C13      1.0000 0.51460  0.92331  0.49630  Biso   1.000  C
  C14      1.0000 0.48540  0.07669  0.49630  Biso   1.000  C
  C15      1.0000 0.76460  0.32669  0.74630  Biso   1.000  C
  C16      1.0000 0.73540  0.17331  0.74630  Biso   1.000  C
  H1       1.0000 0.96980  0.41320  0.41940  Biso   1.000  H
  H2       1.0000 0.03020  0.58680  0.41940  Biso   1.000  H
  H3       1.0000 0.21980  0.83680  0.66940  Biso   1.000  H
  H4       1.0000 0.28020  0.66320  0.66940  Biso   1.000  H
  H5       1.0000 0.96980  0.91320  0.91940  Biso   1.000  H
  H6       1.0000 0.03020  0.08680  0.91940  Biso   1.000  H
  H7       1.0000 0.21980  0.33680  0.16940  Biso   1.000  H
  H8       1.0000 0.28020  0.16320  0.16940  Biso   1.000  H
  H9       1.0000 0.46980  0.41320  0.91940  Biso   1.000  H
  H10      1.0000 0.53020  0.58680  0.91940  Biso   1.000  H
  H11      1.0000 0.71980  0.83680  0.16940  Biso   1.000  H
  H12      1.0000 0.78020  0.66320  0.16940  Biso   1.000  H
  H13      1.0000 0.46980  0.91320  0.41940  Biso   1.000  H
  H14      1.0000 0.53020  0.08680  0.41940  Biso   1.000  H
  H15      1.0000 0.71980  0.33680  0.66940  Biso   1.000  H
  H16      1.0000 0.78020  0.16320  0.66940  Biso   1.000  H
  H17      1.0000 0.99350  0.41910  0.61010  Biso   1.000  H
  H18      1.0000 0.00650  0.58090  0.61010  Biso   1.000  H
  H19      1.0000 0.24350  0.83090  0.86010  Biso   1.000  H
  H20      1.0000 0.25650  0.66910  0.86010  Biso   1.000  H
  H21      1.0000 0.99350  0.91910  0.11010  Biso   1.000  H
  H22      1.0000 0.00650  0.08090  0.11010  Biso   1.000  H
  H23      1.0000 0.24350  0.33090  0.36010  Biso   1.000  H
  H24      1.0000 0.25650  0.16910  0.36010  Biso   1.000  H
  H25      1.0000 0.49350  0.41910  0.11010  Biso   1.000  H
  H26      1.0000 0.50650  0.58090  0.11010  Biso   1.000  H
  H27      1.0000 0.74350  0.83090  0.36010  Biso   1.000  H
  H28      1.0000 0.75650  0.66910  0.36010  Biso   1.000  H
  H29      1.0000 0.49350  0.91910  0.61010  Biso   1.000  H
  H30      1.0000 0.50650  0.08090  0.61010  Biso   1.000  H
  H31      1.0000 0.74350  0.33090  0.86010  Biso   1.000  H
  H32      1.0000 0.75650  0.16910  0.86010  Biso   1.000  H
  C17      1.0000 0.00420  0.25598  0.47520  Biso   1.000  C
  C18      1.0000 0.99580  0.74402  0.47520  Biso   1.000  C
  C19      1.0000 0.25420  0.99402  0.72520  Biso   1.000  C
  C20      1.0000 0.24580  0.50598  0.72520  Biso   1.000  C
  C21      1.0000 0.00420  0.75598  0.97520  Biso   1.000  C
  C22      1.0000 0.99580  0.24402  0.97520  Biso   1.000  C
  C23      1.0000 0.25420  0.49402  0.22520  Biso   1.000  C
  C24      1.0000 0.24580  0.00598  0.22520  Biso   1.000  C
  C25      1.0000 0.50420  0.25598  0.97520  Biso   1.000  C
  C26      1.0000 0.49580  0.74402  0.97520  Biso   1.000  C
  C27      1.0000 0.75420  0.99402  0.22520  Biso   1.000  C
  C28      1.0000 0.74580  0.50598  0.22520  Biso   1.000  C
  C29      1.0000 0.50420  0.75598  0.47520  Biso   1.000  C
  C30      1.0000 0.49580  0.24402  0.47520  Biso   1.000  C
  C31      1.0000 0.75420  0.49402  0.72520  Biso   1.000  C
  C32      1.0000 0.74580  0.00598  0.72520  Biso   1.000  C
  H33      1.0000 0.96680  0.22930  0.43990  Biso   1.000  H
  H34      1.0000 0.03320  0.77070  0.43990  Biso   1.000  H
  H35      1.0000 0.21680  0.02070  0.68990  Biso   1.000  H
  H36      1.0000 0.28320  0.47930  0.68990  Biso   1.000  H
  H37      1.0000 0.96680  0.72930  0.93990  Biso   1.000  H
  H38      1.0000 0.03320  0.27070  0.93990  Biso   1.000  H
  H39      1.0000 0.21680  0.52070  0.18990  Biso   1.000  H
  H40      1.0000 0.28320  0.97930  0.18990  Biso   1.000  H
  H41      1.0000 0.46680  0.22930  0.93990  Biso   1.000  H
  H42      1.0000 0.53320  0.77070  0.93990  Biso   1.000  H
  H43      1.0000 0.71680  0.02070  0.18990  Biso   1.000  H
  H44      1.0000 0.78320  0.47930  0.18990  Biso   1.000  H
  H45      1.0000 0.46680  0.72930  0.43990  Biso   1.000  H
  H46      1.0000 0.53320  0.27070  0.43990  Biso   1.000  H
  H47      1.0000 0.71680  0.52070  0.68990  Biso   1.000  H
  H48      1.0000 0.78320  0.97930  0.68990  Biso   1.000  H
  N1       1.0000 0.06610  0.32956  0.50130  Biso   1.000  N
  N2       1.0000 0.93390  0.67044  0.50130  Biso   1.000  N
  N3       1.0000 0.31610  0.92044  0.75130  Biso   1.000  N
  N4       1.0000 0.18390  0.57956  0.75130  Biso   1.000  N
  N5       1.0000 0.06610  0.82956  0.00130  Biso   1.000  N
  N6       1.0000 0.93390  0.17044  0.00130  Biso   1.000  N
  N7       1.0000 0.31610  0.42044  0.25130  Biso   1.000  N
  N8       1.0000 0.18390  0.07956  0.25130  Biso   1.000  N
  N9       1.0000 0.56610  0.32956  0.00130  Biso   1.000  N
  N10      1.0000 0.43390  0.67044  0.00130  Biso   1.000  N
  N11      1.0000 0.81610  0.92044  0.25130  Biso   1.000  N
  N12      1.0000 0.68390  0.57956  0.25130  Biso   1.000  N
  N13      1.0000 0.56610  0.82956  0.50130  Biso   1.000  N
  N14      1.0000 0.43390  0.17044  0.50130  Biso   1.000  N
  N15      1.0000 0.81610  0.42044  0.75130  Biso   1.000  N
  N16      1.0000 0.68390  0.07956  0.75130  Biso   1.000  N
  C33      1.0000 0.18813  0.14116  0.76280  Biso   1.000  C
  C34      1.0000 0.81187  0.85884  0.76280  Biso   1.000  C
  C35      1.0000 0.43813  0.10884  0.01280  Biso   1.000  C
  C36      1.0000 0.06187  0.39116  0.01280  Biso   1.000  C
  C37      1.0000 0.18813  0.64116  0.26280  Biso   1.000  C
  C38      1.0000 0.81187  0.35884  0.26280  Biso   1.000  C
  C39      1.0000 0.43813  0.60884  0.51280  Biso   1.000  C
  C40      1.0000 0.06187  0.89116  0.51280  Biso   1.000  C
  C41      1.0000 0.68813  0.14116  0.26280  Biso   1.000  C
  C42      1.0000 0.31187  0.85884  0.26280  Biso   1.000  C
  C43      1.0000 0.93813  0.10884  0.51280  Biso   1.000  C
  C44      1.0000 0.56187  0.39116  0.51280  Biso   1.000  C
  C45      1.0000 0.68813  0.64116  0.76280  Biso   1.000  C
  C46      1.0000 0.31187  0.35884  0.76280  Biso   1.000  C
  C47      1.0000 0.93813  0.60884  0.01280  Biso   1.000  C
  C48      1.0000 0.56187  0.89116  0.01280  Biso   1.000  C
  N17      1.0000 0.24789  0.12074  0.81350  Biso   1.000  N
  N18      1.0000 0.75211  0.87926  0.81350  Biso   1.000  N
  N19      1.0000 0.49789  0.12926  0.06350  Biso   1.000  N
  N20      1.0000 0.00211  0.37074  0.06350  Biso   1.000  N
  N21      1.0000 0.24789  0.62074  0.31350  Biso   1.000  N
  N22      1.0000 0.75211  0.37926  0.31350  Biso   1.000  N
  N23      1.0000 0.49789  0.62926  0.56350  Biso   1.000  N
  N24      1.0000 0.00211  0.87074  0.56350  Biso   1.000  N
  N25      1.0000 0.74789  0.12074  0.31350  Biso   1.000  N
  N26      1.0000 0.25211  0.87926  0.31350  Biso   1.000  N
  N27      1.0000 0.99789  0.12926  0.56350  Biso   1.000  N
  N28      1.0000 0.50211  0.37074  0.56350  Biso   1.000  N
  N29      1.0000 0.74789  0.62074  0.81350  Biso   1.000  N
  N30      1.0000 0.25211  0.37926  0.81350  Biso   1.000  N
  N31      1.0000 0.99789  0.62926  0.06350  Biso   1.000  N
  N32      1.0000 0.50211  0.87074  0.06350  Biso   1.000  N
  N33      1.0000 0.06564  0.24654  0.58970  Biso   1.000  N
  N34      1.0000 0.93436  0.75346  0.58970  Biso   1.000  N
  N35      1.0000 0.31564  0.00346  0.83970  Biso   1.000  N
  N36      1.0000 0.18436  0.49654  0.83970  Biso   1.000  N
  N37      1.0000 0.06564  0.74654  0.08970  Biso   1.000  N
  N38      1.0000 0.93436  0.25346  0.08970  Biso   1.000  N
  N39      1.0000 0.31564  0.50346  0.33970  Biso   1.000  N
  N40      1.0000 0.18436  0.99654  0.33970  Biso   1.000  N
  N41      1.0000 0.56564  0.24654  0.08970  Biso   1.000  N
  N42      1.0000 0.43436  0.75346  0.08970  Biso   1.000  N
  N43      1.0000 0.81564  0.00346  0.33970  Biso   1.000  N
  N44      1.0000 0.68436  0.49654  0.33970  Biso   1.000  N
  N45      1.0000 0.56564  0.74654  0.58970  Biso   1.000  N
  N46      1.0000 0.43436  0.25346  0.58970  Biso   1.000  N
  N47      1.0000 0.81564  0.50346  0.83970  Biso   1.000  N
  N48      1.0000 0.68436  0.99654  0.83970  Biso   1.000  N
  C49      1.0000 0.08851  0.38615  0.47110  Biso   1.000  C
  C50      1.0000 0.91149  0.61385  0.47110  Biso   1.000  C
  C51      1.0000 0.33851  0.86385  0.72110  Biso   1.000  C
  C52      1.0000 0.16149  0.63615  0.72110  Biso   1.000  C
  C53      1.0000 0.08851  0.88615  0.97110  Biso   1.000  C
  C54      1.0000 0.91149  0.11385  0.97110  Biso   1.000  C
  C55      1.0000 0.33851  0.36385  0.22110  Biso   1.000  C
  C56      1.0000 0.16149  0.13615  0.22110  Biso   1.000  C
  C57      1.0000 0.58851  0.38615  0.97110  Biso   1.000  C
  C58      1.0000 0.41149  0.61385  0.97110  Biso   1.000  C
  C59      1.0000 0.83851  0.86385  0.22110  Biso   1.000  C
  C60      1.0000 0.66149  0.63615  0.22110  Biso   1.000  C
  C61      1.0000 0.58851  0.88615  0.47110  Biso   1.000  C
  C62      1.0000 0.41149  0.11385  0.47110  Biso   1.000  C
  C63      1.0000 0.83851  0.36385  0.72110  Biso   1.000  C
  C64      1.0000 0.66149  0.13615  0.72110  Biso   1.000  C
  H49      1.0000 0.10930  0.39000  0.35700  Biso   1.000  H
  H50      1.0000 0.89070  0.61000  0.35700  Biso   1.000  H
  H51      1.0000 0.35930  0.86000  0.60700  Biso   1.000  H
  H52      1.0000 0.14070  0.64000  0.60700  Biso   1.000  H
  H53      1.0000 0.10930  0.89000  0.85700  Biso   1.000  H
  H54      1.0000 0.89070  0.11000  0.85700  Biso   1.000  H
  H55      1.0000 0.35930  0.36000  0.10700  Biso   1.000  H
  H56      1.0000 0.14070  0.14000  0.10700  Biso   1.000  H
  H57      1.0000 0.60930  0.39000  0.85700  Biso   1.000  H
  H58      1.0000 0.39070  0.61000  0.85700  Biso   1.000  H
  H59      1.0000 0.85930  0.86000  0.10700  Biso   1.000  H
  H60      1.0000 0.64070  0.64000  0.10700  Biso   1.000  H
  H61      1.0000 0.60930  0.89000  0.35700  Biso   1.000  H
  H62      1.0000 0.39070  0.11000  0.35700  Biso   1.000  H
  H63      1.0000 0.85930  0.36000  0.60700  Biso   1.000  H
  H64      1.0000 0.64070  0.14000  0.60700  Biso   1.000  H
  H65      1.0000 0.13360  0.39650  0.54720  Biso   1.000  H
  H66      1.0000 0.86640  0.60350  0.54720  Biso   1.000  H
  H67      1.0000 0.38360  0.85350  0.79720  Biso   1.000  H
  H68      1.0000 0.11640  0.64650  0.79720  Biso   1.000  H
  H69      1.0000 0.13360  0.89650  0.04720  Biso   1.000  H
  H70      1.0000 0.86640  0.10350  0.04720  Biso   1.000  H
  H71      1.0000 0.38360  0.35350  0.29720  Biso   1.000  H
  H72      1.0000 0.11640  0.14650  0.29720  Biso   1.000  H
  H73      1.0000 0.63360  0.39650  0.04720  Biso   1.000  H
  H74      1.0000 0.36640  0.60350  0.04720  Biso   1.000  H
  H75      1.0000 0.88360  0.85350  0.29720  Biso   1.000  H
  H76      1.0000 0.61640  0.64650  0.29720  Biso   1.000  H
  H77      1.0000 0.63360  0.89650  0.54720  Biso   1.000  H
  H78      1.0000 0.36640  0.10350  0.54720  Biso   1.000  H
  H79      1.0000 0.88360  0.35350  0.79720  Biso   1.000  H
  H80      1.0000 0.61640  0.14650  0.79720  Biso   1.000  H
  N49      1.0000 0.00172  0.30529  0.41840  Biso   1.000  N
  N50      1.0000 0.99828  0.69471  0.41840  Biso   1.000  N
  N51      1.0000 0.25172  0.94471  0.66840  Biso   1.000  N
  N52      1.0000 0.24828  0.55529  0.66840  Biso   1.000  N
  N53      1.0000 0.00172  0.80529  0.91840  Biso   1.000  N
  N54      1.0000 0.99828  0.19471  0.91840  Biso   1.000  N
  N55      1.0000 0.25172  0.44471  0.16840  Biso   1.000  N
  N56      1.0000 0.24828  0.05529  0.16840  Biso   1.000  N
  N57      1.0000 0.50172  0.30529  0.91840  Biso   1.000  N
  N58      1.0000 0.49828  0.69471  0.91840  Biso   1.000  N
  N59      1.0000 0.75172  0.94471  0.16840  Biso   1.000  N
  N60      1.0000 0.74828  0.55529  0.16840  Biso   1.000  N
  N61      1.0000 0.50172  0.80529  0.41840  Biso   1.000  N
  N62      1.0000 0.49828  0.19471  0.41840  Biso   1.000  N
  N63      1.0000 0.75172  0.44471  0.66840  Biso   1.000  N
  N64      1.0000 0.74828  0.05529  0.66840  Biso   1.000  N
  C65      1.0000 0.10360  0.29384  0.60160  Biso   1.000  C
  C66      1.0000 0.89640  0.70616  0.60160  Biso   1.000  C
  C67      1.0000 0.35360  0.95616  0.85160  Biso   1.000  C
  C68      1.0000 0.14640  0.54384  0.85160  Biso   1.000  C
  C69      1.0000 0.10360  0.79384  0.10160  Biso   1.000  C
  C70      1.0000 0.89640  0.20616  0.10160  Biso   1.000  C
  C71      1.0000 0.35360  0.45616  0.35160  Biso   1.000  C
  C72      1.0000 0.14640  0.04384  0.35160  Biso   1.000  C
  C73      1.0000 0.60360  0.29384  0.10160  Biso   1.000  C
  C74      1.0000 0.39640  0.70616  0.10160  Biso   1.000  C
  C75      1.0000 0.85360  0.95616  0.35160  Biso   1.000  C
  C76      1.0000 0.64640  0.54384  0.35160  Biso   1.000  C
  C77      1.0000 0.60360  0.79384  0.60160  Biso   1.000  C
  C78      1.0000 0.39640  0.20616  0.60160  Biso   1.000  C
  C79      1.0000 0.85360  0.45616  0.85160  Biso   1.000  C
  C80      1.0000 0.64640  0.04384  0.85160  Biso   1.000  C
  H81      1.0000 0.14980  0.30120  0.67020  Biso   1.000  H
  H82      1.0000 0.85020  0.69880  0.67020  Biso   1.000  H
  H83      1.0000 0.39980  0.94880  0.92020  Biso   1.000  H
  H84      1.0000 0.10020  0.55120  0.92020  Biso   1.000  H
  H85      1.0000 0.14980  0.80120  0.17020  Biso   1.000  H
  H86      1.0000 0.85020  0.19880  0.17020  Biso   1.000  H
  H87      1.0000 0.39980  0.44880  0.42020  Biso   1.000  H
  H88      1.0000 0.10020  0.05120  0.42020  Biso   1.000  H
  H89      1.0000 0.64980  0.30120  0.17020  Biso   1.000  H
  H90      1.0000 0.35020  0.69880  0.17020  Biso   1.000  H
  H91      1.0000 0.89980  0.94880  0.42020  Biso   1.000  H
  H92      1.0000 0.60020  0.55120  0.42020  Biso   1.000  H
  H93      1.0000 0.64980  0.80120  0.67020  Biso   1.000  H
  H94      1.0000 0.35020  0.19880  0.67020  Biso   1.000  H
  H95      1.0000 0.89980  0.44880  0.92020  Biso   1.000  H
  H96      1.0000 0.60020  0.05120  0.92020  Biso   1.000  H
  C81      1.0000 0.03737  0.48128  0.46770  Biso   1.000  C
  C82      1.0000 0.96263  0.51872  0.46770  Biso   1.000  C
  C83      1.0000 0.28737  0.76872  0.71770  Biso   1.000  C
  C84      1.0000 0.21263  0.73128  0.71770  Biso   1.000  C
  C85      1.0000 0.03737  0.98128  0.96770  Biso   1.000  C
  C86      1.0000 0.96263  0.01872  0.96770  Biso   1.000  C
  C87      1.0000 0.28737  0.26872  0.21770  Biso   1.000  C
  C88      1.0000 0.21263  0.23128  0.21770  Biso   1.000  C
  C89      1.0000 0.53737  0.48128  0.96770  Biso   1.000  C
  C90      1.0000 0.46263  0.51872  0.96770  Biso   1.000  C
  C91      1.0000 0.78737  0.76872  0.21770  Biso   1.000  C
  C92      1.0000 0.71263  0.73128  0.21770  Biso   1.000  C
  C93      1.0000 0.53737  0.98128  0.46770  Biso   1.000  C
  C94      1.0000 0.46263  0.01872  0.46770  Biso   1.000  C
  C95      1.0000 0.78737  0.26872  0.71770  Biso   1.000  C
  C96      1.0000 0.71263  0.23128  0.71770  Biso   1.000  C
  H97      1.0000 0.06630  0.48440  0.36050  Biso   1.000  H
  H98      1.0000 0.93370  0.51560  0.36050  Biso   1.000  H
  H99      1.0000 0.31630  0.76560  0.61050  Biso   1.000  H
  H100     1.0000 0.18370  0.73440  0.61050  Biso   1.000  H
  H101     1.0000 0.06630  0.98440  0.86050  Biso   1.000  H
  H102     1.0000 0.93370  0.01560  0.86050  Biso   1.000  H
  H103     1.0000 0.31630  0.26560  0.11050  Biso   1.000  H
  H104     1.0000 0.18370  0.23440  0.11050  Biso   1.000  H
  H105     1.0000 0.56630  0.48440  0.86050  Biso   1.000  H
  H106     1.0000 0.43370  0.51560  0.86050  Biso   1.000  H
  H107     1.0000 0.81630  0.76560  0.11050  Biso   1.000  H
  H108     1.0000 0.68370  0.73440  0.11050  Biso   1.000  H
  H109     1.0000 0.56630  0.98440  0.36050  Biso   1.000  H
  H110     1.0000 0.43370  0.01560  0.36050  Biso   1.000  H
  H111     1.0000 0.81630  0.26560  0.61050  Biso   1.000  H
  H112     1.0000 0.68370  0.23440  0.61050  Biso   1.000  H
  H113     1.0000 0.07640  0.49270  0.55480  Biso   1.000  H
  H114     1.0000 0.92360  0.50730  0.55480  Biso   1.000  H
  H115     1.0000 0.32640  0.75730  0.80480  Biso   1.000  H
  H116     1.0000 0.17360  0.74270  0.80480  Biso   1.000  H
  H117     1.0000 0.07640  0.99270  0.05480  Biso   1.000  H
  H118     1.0000 0.92360  0.00730  0.05480  Biso   1.000  H
  H119     1.0000 0.32640  0.25730  0.30480  Biso   1.000  H
  H120     1.0000 0.17360  0.24270  0.30480  Biso   1.000  H
  H121     1.0000 0.57640  0.49270  0.05480  Biso   1.000  H
  H122     1.0000 0.42360  0.50730  0.05480  Biso   1.000  H
  H123     1.0000 0.82640  0.75730  0.30480  Biso   1.000  H
  H124     1.0000 0.67360  0.74270  0.30480  Biso   1.000  H
  H125     1.0000 0.57640  0.99270  0.55480  Biso   1.000  H
  H126     1.0000 0.42360  0.00730  0.55480  Biso   1.000  H
  H127     1.0000 0.82640  0.25730  0.80480  Biso   1.000  H
  H128     1.0000 0.67360  0.24270  0.80480  Biso   1.000  H
