data_image0
_cell_length_a       12.838
_cell_length_b       13.421
_cell_length_c       14.889
_cell_angle_alpha    65.8
_cell_angle_beta     89.32
_cell_angle_gamma    88.09

_symmetry_space_group_name_H-M    "P 1"
_symmetry_int_tables_number       1

loop_
  _symmetry_equiv_pos_as_xyz
  'x, y, z'

loop_
  _atom_site_label
  _atom_site_occupancy
  _atom_site_fract_x
  _atom_site_fract_y
  _atom_site_fract_z
  _atom_site_thermal_displace_type
  _atom_site_B_iso_or_equiv
  _atom_site_type_symbol
  Cu1      1.0000 0.93488  0.56127  0.24334  Biso   1.000  Cu
  Cu2      1.0000 0.06512  0.43873  0.75666  Biso   1.000  Cu
  Cu3      1.0000 0.95284  0.07972  0.19809  Biso   1.000  Cu
  Cu4      1.0000 0.04716  0.92028  0.80191  Biso   1.000  Cu
  B1       1.0000 0.98430  0.25190  0.14290  Biso   1.000  B
  B2       1.0000 0.01570  0.74810  0.85710  Biso   1.000  B
  H1       1.0000 0.98310  0.20120  0.10440  Biso   1.000  H
  H2       1.0000 0.01690  0.79880  0.89560  Biso   1.000  H
  B3       1.0000 0.95500  0.38150  0.31760  Biso   1.000  B
  B4       1.0000 0.04500  0.61850  0.68240  Biso   1.000  B
  H3       1.0000 0.95790  0.41630  0.36400  Biso   1.000  H
  H4       1.0000 0.04210  0.58370  0.63600  Biso   1.000  H
  B5       1.0000 0.93100  0.43090  0.19540  Biso   1.000  B
  B6       1.0000 0.06900  0.56910  0.80460  Biso   1.000  B
  H5       1.0000 0.91720  0.50760  0.14630  Biso   1.000  H
  H6       1.0000 0.08280  0.49240  0.85370  Biso   1.000  H
  B7       1.0000 0.06110  0.37250  0.24920  Biso   1.000  B
  B8       1.0000 0.93890  0.62750  0.75080  Biso   1.000  B
  H7       1.0000 0.12510  0.41000  0.26060  Biso   1.000  H
  H8       1.0000 0.87490  0.59000  0.73940  Biso   1.000  H
  B9       1.0000 0.99740  0.25200  0.33680  Biso   1.000  B
  B10      1.0000 0.00260  0.74800  0.66320  Biso   1.000  B
  H9       1.0000 0.01290  0.20560  0.40850  Biso   1.000  H
  H10      1.0000 0.98710  0.79440  0.59150  Biso   1.000  H
  B11      1.0000 0.86740  0.31210  0.28230  Biso   1.000  B
  B12      1.0000 0.13260  0.68790  0.71770  Biso   1.000  B
  H11      1.0000 0.78070  0.31610  0.30570  Biso   1.000  H
  H12      1.0000 0.21930  0.68390  0.69430  Biso   1.000  H
  B13      1.0000 0.02100  0.37360  0.13340  Biso   1.000  B
  B14      1.0000 0.97900  0.62640  0.86660  Biso   1.000  B
  H13      1.0000 0.05620  0.43420  0.07290  Biso   1.000  H
  H14      1.0000 0.94380  0.56580  0.92710  Biso   1.000  H
  B15      1.0000 0.06500  0.24680  0.23390  Biso   1.000  B
  B16      1.0000 0.93500  0.75320  0.76610  Biso   1.000  B
  H15      1.0000 0.14130  0.20270  0.24000  Biso   1.000  H
  H16      1.0000 0.85870  0.79730  0.76000  Biso   1.000  H
  B17      1.0000 0.92980  0.20440  0.25730  Biso   1.000  B
  B18      1.0000 0.07020  0.79560  0.74270  Biso   1.000  B
  H17      1.0000 0.89800  0.11540  0.29110  Biso   1.000  H
  H18      1.0000 0.10200  0.88460  0.70890  Biso   1.000  H
  B19      1.0000 0.88210  0.32860  0.15680  Biso   1.000  B
  B20      1.0000 0.11790  0.67140  0.84320  Biso   1.000  B
  H19      1.0000 0.81570  0.34860  0.10030  Biso   1.000  H
  H20      1.0000 0.18430  0.65140  0.89970  Biso   1.000  H
  B21      1.0000 0.88230  0.69350  0.28190  Biso   1.000  B
  B22      1.0000 0.11770  0.30650  0.71810  Biso   1.000  B
  H21      1.0000 0.85100  0.61540  0.31120  Biso   1.000  H
  H22      1.0000 0.14900  0.38460  0.68880  Biso   1.000  H
  B23      1.0000 0.05170  0.93190  0.21010  Biso   1.000  B
  B24      1.0000 0.94830  0.06810  0.78990  Biso   1.000  B
  H23      1.0000 0.09500  0.00240  0.19250  Biso   1.000  H
  H24      1.0000 0.90500  0.99760  0.80750  Biso   1.000  H
  B25      1.0000 0.91930  0.92390  0.19910  Biso   1.000  B
  B26      1.0000 0.08070  0.07610  0.80090  Biso   1.000  B
  H25      1.0000 0.88130  0.99790  0.16910  Biso   1.000  H
  H26      1.0000 0.11870  0.00210  0.83090  Biso   1.000  H
  B27      1.0000 0.01380  0.86130  0.14500  Biso   1.000  B
  B28      1.0000 0.98620  0.13870  0.85500  Biso   1.000  B
  H27      1.0000 0.03040  0.87720  0.07090  Biso   1.000  H
  H28      1.0000 0.96960  0.12280  0.92910  Biso   1.000  H
  B29      1.0000 0.08390  0.79660  0.26360  Biso   1.000  B
  B30      1.0000 0.91610  0.20340  0.73640  Biso   1.000  B
  H29      1.0000 0.16410  0.76470  0.28340  Biso   1.000  H
  H30      1.0000 0.83590  0.23530  0.71660  Biso   1.000  H
  B31      1.0000 0.99060  0.86110  0.31820  Biso   1.000  B
  B32      1.0000 0.00940  0.13890  0.68180  Biso   1.000  B
  H31      1.0000 0.99830  0.87670  0.37800  Biso   1.000  H
  H32      1.0000 0.00170  0.12330  0.62200  Biso   1.000  H
  B33      1.0000 0.88460  0.80860  0.17810  Biso   1.000  B
  B34      1.0000 0.11540  0.19140  0.82190  Biso   1.000  B
  H33      1.0000 0.82920  0.81850  0.11880  Biso   1.000  H
  H34      1.0000 0.17080  0.18150  0.88120  Biso   1.000  H
  B35      1.0000 0.00020  0.71840  0.22340  Biso   1.000  B
  B36      1.0000 0.99980  0.28160  0.77660  Biso   1.000  B
  H35      1.0000 0.03760  0.66590  0.19090  Biso   1.000  H
  H36      1.0000 0.96240  0.33410  0.80910  Biso   1.000  H
  B37      1.0000 0.98250  0.71830  0.34460  Biso   1.000  B
  B38      1.0000 0.01750  0.28170  0.65540  Biso   1.000  B
  H37      1.0000 0.00750  0.66760  0.41420  Biso   1.000  H
  H38      1.0000 0.99250  0.33240  0.58580  Biso   1.000  H
  B39      1.0000 0.86770  0.80880  0.29990  Biso   1.000  B
  B40      1.0000 0.13230  0.19120  0.70010  Biso   1.000  B
  H39      1.0000 0.81610  0.81560  0.35890  Biso   1.000  H
  H40      1.0000 0.18390  0.18440  0.64110  Biso   1.000  H
  Cu5      1.0000 0.52621  0.28745  0.30407  Biso   1.000  Cu
  Cu6      1.0000 0.47379  0.71255  0.69593  Biso   1.000  Cu
  Cu7      1.0000 0.56223  0.80950  0.25440  Biso   1.000  Cu
  Cu8      1.0000 0.43777  0.19050  0.74560  Biso   1.000  Cu
  B41      1.0000 0.53460  0.69770  0.18180  Biso   1.000  B
  B42      1.0000 0.46540  0.30230  0.81820  Biso   1.000  B
  H41      1.0000 0.54830  0.78420  0.13500  Biso   1.000  H
  H42      1.0000 0.45170  0.21580  0.86500  Biso   1.000  H
  B43      1.0000 0.49440  0.41490  0.35740  Biso   1.000  B
  B44      1.0000 0.50560  0.58510  0.64260  Biso   1.000  B
  H43      1.0000 0.47650  0.33320  0.41320  Biso   1.000  H
  H44      1.0000 0.52350  0.66680  0.58680  Biso   1.000  H
  B45      1.0000 0.54600  0.46470  0.24360  Biso   1.000  B
  B46      1.0000 0.45400  0.53530  0.75640  Biso   1.000  B
  H45      1.0000 0.58020  0.42340  0.19930  Biso   1.000  H
  H46      1.0000 0.41980  0.57660  0.80070  Biso   1.000  H
  B47      1.0000 0.41380  0.50060  0.26700  Biso   1.000  B
  B48      1.0000 0.58620  0.49940  0.73300  Biso   1.000  B
  H47      1.0000 0.32540  0.48950  0.25470  Biso   1.000  H
  H48      1.0000 0.67460  0.51050  0.74530  Biso   1.000  H
  B49      1.0000 0.46280  0.53190  0.36780  Biso   1.000  B
  B50      1.0000 0.53720  0.46810  0.63220  Biso   1.000  B
  H49      1.0000 0.42660  0.53630  0.43340  Biso   1.000  H
  H50      1.0000 0.57340  0.46370  0.56660  Biso   1.000  H
  B51      1.0000 0.59720  0.49190  0.34480  Biso   1.000  B
  B52      1.0000 0.40280  0.50810  0.65520  Biso   1.000  B
  H51      1.0000 0.67290  0.46430  0.39380  Biso   1.000  H
  H52      1.0000 0.32710  0.53570  0.60620  Biso   1.000  H
  B53      1.0000 0.48770  0.59410  0.16110  Biso   1.000  B
  B54      1.0000 0.51230  0.40590  0.83890  Biso   1.000  B
  H53      1.0000 0.44560  0.61370  0.08540  Biso   1.000  H
  H54      1.0000 0.55440  0.38630  0.91460  Biso   1.000  H
  B55      1.0000 0.42740  0.63980  0.25030  Biso   1.000  B
  B56      1.0000 0.57260  0.36020  0.74970  Biso   1.000  B
  H55      1.0000 0.36200  0.70060  0.23960  Biso   1.000  H
  H56      1.0000 0.63800  0.29940  0.76040  Biso   1.000  H
  B57      1.0000 0.55770  0.63490  0.30520  Biso   1.000  B
  B58      1.0000 0.44230  0.36510  0.69480  Biso   1.000  B
  H57      1.0000 0.57590  0.67470  0.34830  Biso   1.000  H
  H58      1.0000 0.42410  0.32530  0.65170  Biso   1.000  H
  B59      1.0000 0.61600  0.58590  0.21580  Biso   1.000  B
  B60      1.0000 0.38400  0.41410  0.78420  Biso   1.000  B
  H59      1.0000 0.70190  0.59500  0.18950  Biso   1.000  H
  H60      1.0000 0.29810  0.40500  0.81050  Biso   1.000  H
  B61      1.0000 0.42910  0.15650  0.28720  Biso   1.000  B
  B62      1.0000 0.57090  0.84350  0.71280  Biso   1.000  B
  H61      1.0000 0.38510  0.22610  0.30290  Biso   1.000  H
  H62      1.0000 0.61490  0.77390  0.69710  Biso   1.000  H
  B63      1.0000 0.60400  0.97460  0.22010  Biso   1.000  B
  B64      1.0000 0.39600  0.02540  0.77990  Biso   1.000  B
  H63      1.0000 0.64810  0.92540  0.19720  Biso   1.000  H
  H64      1.0000 0.35190  0.07460  0.80280  Biso   1.000  H
  B65      1.0000 0.48540  0.95250  0.27630  Biso   1.000  B
  B66      1.0000 0.51460  0.04750  0.72370  Biso   1.000  B
  H65      1.0000 0.43480  0.87540  0.29150  Biso   1.000  H
  H66      1.0000 0.56520  0.12460  0.70850  Biso   1.000  H
  B67      1.0000 0.59770  0.99140  0.32830  Biso   1.000  B
  B68      1.0000 0.40230  0.00860  0.67170  Biso   1.000  B
  H67      1.0000 0.64640  0.95510  0.38770  Biso   1.000  H
  H68      1.0000 0.35360  0.04490  0.61230  Biso   1.000  H
  B69      1.0000 0.62080  0.10420  0.20570  Biso   1.000  B
  B70      1.0000 0.37920  0.89580  0.79430  Biso   1.000  B
  H69      1.0000 0.69050  0.14310  0.16820  Biso   1.000  H
  H70      1.0000 0.30950  0.85690  0.83180  Biso   1.000  H
  B71      1.0000 0.50840  0.06310  0.15380  Biso   1.000  B
  B72      1.0000 0.49160  0.93690  0.84620  Biso   1.000  B
  H71      1.0000 0.49740  0.07530  0.08260  Biso   1.000  H
  H72      1.0000 0.50260  0.92470  0.91740  Biso   1.000  H
  B73      1.0000 0.46560  0.02310  0.35370  Biso   1.000  B
  B74      1.0000 0.53440  0.97690  0.64630  Biso   1.000  B
  H73      1.0000 0.43670  0.98530  0.43060  Biso   1.000  H
  H74      1.0000 0.56330  0.01470  0.56940  Biso   1.000  H
  B75      1.0000 0.55950  0.13010  0.30580  Biso   1.000  B
  B76      1.0000 0.44050  0.86990  0.69420  Biso   1.000  B
  H75      1.0000 0.62030  0.17850  0.33150  Biso   1.000  H
  H76      1.0000 0.37970  0.82150  0.66850  Biso   1.000  H
  B77      1.0000 0.49770  0.18040  0.18130  Biso   1.000  B
  B78      1.0000 0.50230  0.81960  0.81870  Biso   1.000  B
  H77      1.0000 0.49400  0.26100  0.11200  Biso   1.000  H
  H78      1.0000 0.50600  0.73900  0.88800  Biso   1.000  H
  B79      1.0000 0.40370  0.07410  0.23230  Biso   1.000  B
  B80      1.0000 0.59630  0.92590  0.76770  Biso   1.000  B
  H79      1.0000 0.32950  0.07140  0.20860  Biso   1.000  H
  H80      1.0000 0.67050  0.92860  0.79140  Biso   1.000  H
  N1       1.0000 0.26920  0.32170  0.08730  Biso   1.000  N
  N2       1.0000 0.73080  0.67830  0.91270  Biso   1.000  N
  H81      1.0000 0.21560  0.32660  0.12720  Biso   1.000  H
  H82      1.0000 0.78440  0.67340  0.87280  Biso   1.000  H
  H83      1.0000 0.32330  0.27880  0.13010  Biso   1.000  H
  H84      1.0000 0.67670  0.72120  0.86990  Biso   1.000  H
  C1       1.0000 0.31080  0.42970  0.03480  Biso   1.000  C
  C2       1.0000 0.68920  0.57030  0.96520  Biso   1.000  C
  H85      1.0000 0.36570  0.42390  0.01150  Biso   1.000  H
  H86      1.0000 0.63430  0.57610  0.98850  Biso   1.000  H
  H87      1.0000 0.31270  0.47040  0.07480  Biso   1.000  H
  H88      1.0000 0.68730  0.52960  0.92520  Biso   1.000  H
  H89      1.0000 0.26100  0.47370  0.97920  Biso   1.000  H
  H90      1.0000 0.73900  0.52630  0.02080  Biso   1.000  H
  C3       1.0000 0.24440  0.26570  0.02280  Biso   1.000  C
  C4       1.0000 0.75560  0.73430  0.97720  Biso   1.000  C
  H91      1.0000 0.22290  0.19540  0.05520  Biso   1.000  H
  H92      1.0000 0.77710  0.80460  0.94480  Biso   1.000  H
  H93      1.0000 0.19330  0.31090  0.97330  Biso   1.000  H
  H94      1.0000 0.80670  0.68910  0.02670  Biso   1.000  H
  H95      1.0000 0.30840  0.26500  0.98270  Biso   1.000  H
  H96      1.0000 0.69160  0.73500  0.01730  Biso   1.000  H
  N3       1.0000 0.75910  0.61740  0.50780  Biso   1.000  N
  N4       1.0000 0.24090  0.38260  0.49220  Biso   1.000  N
  H97      1.0000 0.68460  0.60150  0.52110  Biso   1.000  H
  H98      1.0000 0.31540  0.39850  0.47890  Biso   1.000  H
  H99      1.0000 0.75760  0.63970  0.43920  Biso   1.000  H
  H100     1.0000 0.24240  0.36030  0.56080  Biso   1.000  H
  C5       1.0000 0.81460  0.51790  0.55580  Biso   1.000  C
  C6       1.0000 0.18540  0.48210  0.44420  Biso   1.000  C
  H101     1.0000 0.80820  0.48920  0.62070  Biso   1.000  H
  H102     1.0000 0.19180  0.51080  0.37930  Biso   1.000  H
  H103     1.0000 0.88730  0.53010  0.53640  Biso   1.000  H
  H104     1.0000 0.11270  0.46990  0.46360  Biso   1.000  H
  H105     1.0000 0.79410  0.46140  0.53150  Biso   1.000  H
  H106     1.0000 0.20590  0.53860  0.46850  Biso   1.000  H
  C7       1.0000 0.76310  0.70410  0.54180  Biso   1.000  C
  C8       1.0000 0.23690  0.29590  0.45820  Biso   1.000  C
  H107     1.0000 0.83190  0.70640  0.56540  Biso   1.000  H
  H108     1.0000 0.16810  0.29360  0.43460  Biso   1.000  H
  H109     1.0000 0.71700  0.68390  0.59730  Biso   1.000  H
  H110     1.0000 0.28300  0.31610  0.40270  Biso   1.000  H
  H111     1.0000 0.74630  0.76540  0.50330  Biso   1.000  H
  H112     1.0000 0.25370  0.23460  0.49670  Biso   1.000  H
  N5       1.0000 0.32200  0.82420  0.03320  Biso   1.000  N
  N6       1.0000 0.67800  0.17580  0.96680  Biso   1.000  N
  H113     1.0000 0.34390  0.84640  0.96880  Biso   1.000  H
  H114     1.0000 0.65610  0.15360  0.03120  Biso   1.000  H
  H115     1.0000 0.38070  0.78700  0.06920  Biso   1.000  H
  H116     1.0000 0.61930  0.21300  0.93080  Biso   1.000  H
  C9       1.0000 0.23890  0.75110  0.04590  Biso   1.000  C
  C10      1.0000 0.76110  0.24890  0.95410  Biso   1.000  C
  H117     1.0000 0.26390  0.68630  0.03500  Biso   1.000  H
  H118     1.0000 0.73610  0.31370  0.96500  Biso   1.000  H
  H119     1.0000 0.22120  0.71840  0.11890  Biso   1.000  H
  H120     1.0000 0.77880  0.28160  0.88110  Biso   1.000  H
  H121     1.0000 0.18140  0.78260  0.01050  Biso   1.000  H
  H122     1.0000 0.81860  0.21740  0.98950  Biso   1.000  H
  C11      1.0000 0.29600  0.92420  0.04900  Biso   1.000  C
  C12      1.0000 0.70400  0.07580  0.95100  Biso   1.000  C
  H123     1.0000 0.25030  0.96790  0.00430  Biso   1.000  H
  H124     1.0000 0.74970  0.03210  0.99570  Biso   1.000  H
  H125     1.0000 0.36120  0.96130  0.05090  Biso   1.000  H
  H126     1.0000 0.63880  0.03870  0.94910  Biso   1.000  H
  H127     1.0000 0.26930  0.90000  0.11790  Biso   1.000  H
  H128     1.0000 0.73070  0.10000  0.88210  Biso   1.000  H
  N7       1.0000 0.77540  0.09850  0.59450  Biso   1.000  N
  N8       1.0000 0.22460  0.90150  0.40550  Biso   1.000  N
  H129     1.0000 0.82560  0.10270  0.63700  Biso   1.000  H
  H130     1.0000 0.17440  0.89730  0.36300  Biso   1.000  H
  H131     1.0000 0.72210  0.06420  0.63370  Biso   1.000  H
  H132     1.0000 0.27790  0.93580  0.36630  Biso   1.000  H
  C13      1.0000 0.81350  0.04030  0.53430  Biso   1.000  C
  C14      1.0000 0.18650  0.95970  0.46570  Biso   1.000  C
  H133     1.0000 0.77060  0.05130  0.48450  Biso   1.000  H
  H134     1.0000 0.22940  0.94870  0.51550  Biso   1.000  H
  H135     1.0000 0.81850  0.95940  0.58100  Biso   1.000  H
  H136     1.0000 0.18150  0.04060  0.41900  Biso   1.000  H
  H137     1.0000 0.88580  0.05790  0.51660  Biso   1.000  H
  H138     1.0000 0.11420  0.94210  0.48340  Biso   1.000  H
  C15      1.0000 0.74310  0.20810  0.53550  Biso   1.000  C
  C16      1.0000 0.25690  0.79190  0.46450  Biso   1.000  C
  H139     1.0000 0.69230  0.20950  0.48820  Biso   1.000  H
  H140     1.0000 0.30770  0.79050  0.51180  Biso   1.000  H
  H141     1.0000 0.80290  0.24610  0.50040  Biso   1.000  H
  H142     1.0000 0.19710  0.75390  0.49960  Biso   1.000  H
  H143     1.0000 0.71130  0.24800  0.57910  Biso   1.000  H
  H144     1.0000 0.28870  0.75200  0.42090  Biso   1.000  H
