data_image0
_cell_length_a       21.212
_cell_length_b       9.216
_cell_length_c       9.657
_cell_angle_alpha    90
_cell_angle_beta     90
_cell_angle_gamma    90

_symmetry_space_group_name_H-M    "P 1"
_symmetry_int_tables_number       1

loop_
  _symmetry_equiv_pos_as_xyz
  'x, y, z'

loop_
  _atom_site_label
  _atom_site_occupancy
  _atom_site_fract_x
  _atom_site_fract_y
  _atom_site_fract_z
  _atom_site_thermal_displace_type
  _atom_site_B_iso_or_equiv
  _atom_site_type_symbol
  B1       1.0000 0.30680  0.12510  0.36930  Biso   1.000  B
  B2       1.0000 0.19320  0.37490  0.86930  Biso   1.000  B
  B3       1.0000 0.69320  0.12510  0.13070  Biso   1.000  B
  B4       1.0000 0.80680  0.37490  0.63070  Biso   1.000  B
  B5       1.0000 0.69320  0.87490  0.63070  Biso   1.000  B
  B6       1.0000 0.80680  0.62510  0.13070  Biso   1.000  B
  B7       1.0000 0.30680  0.87490  0.86930  Biso   1.000  B
  B8       1.0000 0.19320  0.62510  0.36930  Biso   1.000  B
  H1       1.0000 0.27790  0.06640  0.30620  Biso   1.000  H
  H2       1.0000 0.22210  0.43360  0.80620  Biso   1.000  H
  H3       1.0000 0.72210  0.06640  0.19380  Biso   1.000  H
  H4       1.0000 0.77790  0.43360  0.69380  Biso   1.000  H
  H5       1.0000 0.72210  0.93360  0.69380  Biso   1.000  H
  H6       1.0000 0.77790  0.56640  0.19380  Biso   1.000  H
  H7       1.0000 0.27790  0.93360  0.80620  Biso   1.000  H
  H8       1.0000 0.22210  0.56640  0.30620  Biso   1.000  H
  B9       1.0000 0.33440  0.29880  0.35240  Biso   1.000  B
  B10      1.0000 0.16560  0.20120  0.85240  Biso   1.000  B
  B11      1.0000 0.66560  0.29880  0.14760  Biso   1.000  B
  B12      1.0000 0.83440  0.20120  0.64760  Biso   1.000  B
  B13      1.0000 0.66560  0.70120  0.64760  Biso   1.000  B
  B14      1.0000 0.83440  0.79880  0.14760  Biso   1.000  B
  B15      1.0000 0.33440  0.70120  0.85240  Biso   1.000  B
  B16      1.0000 0.16560  0.79880  0.35240  Biso   1.000  B
  H9       1.0000 0.31900  0.37560  0.29190  Biso   1.000  H
  H10      1.0000 0.18100  0.12440  0.79190  Biso   1.000  H
  H11      1.0000 0.68100  0.37560  0.20810  Biso   1.000  H
  H12      1.0000 0.81900  0.12440  0.70810  Biso   1.000  H
  H13      1.0000 0.68100  0.62440  0.70810  Biso   1.000  H
  H14      1.0000 0.81900  0.87560  0.20810  Biso   1.000  H
  H15      1.0000 0.31900  0.62440  0.79190  Biso   1.000  H
  H16      1.0000 0.18100  0.87560  0.29190  Biso   1.000  H
  B17      1.0000 0.28880  0.23790  0.50140  Biso   1.000  B
  B18      1.0000 0.21120  0.26210  0.00140  Biso   1.000  B
  B19      1.0000 0.71120  0.23790  0.99860  Biso   1.000  B
  B20      1.0000 0.78880  0.26210  0.49860  Biso   1.000  B
  B21      1.0000 0.71120  0.76210  0.49860  Biso   1.000  B
  B22      1.0000 0.78880  0.73790  0.99860  Biso   1.000  B
  B23      1.0000 0.28880  0.76210  0.00140  Biso   1.000  B
  B24      1.0000 0.21120  0.73790  0.50140  Biso   1.000  B
  H17      1.0000 0.23590  0.26570  0.50210  Biso   1.000  H
  H18      1.0000 0.26410  0.23430  0.00210  Biso   1.000  H
  H19      1.0000 0.76410  0.26570  0.99790  Biso   1.000  H
  H20      1.0000 0.73590  0.23430  0.49790  Biso   1.000  H
  H21      1.0000 0.76410  0.73430  0.49790  Biso   1.000  H
  H22      1.0000 0.73590  0.76570  0.99790  Biso   1.000  H
  H23      1.0000 0.23590  0.73430  0.00210  Biso   1.000  H
  H24      1.0000 0.26410  0.76570  0.50210  Biso   1.000  H
  B25      1.0000 0.34060  0.08220  0.52380  Biso   1.000  B
  B26      1.0000 0.15940  0.41780  0.02380  Biso   1.000  B
  B27      1.0000 0.65940  0.08220  0.97620  Biso   1.000  B
  B28      1.0000 0.84060  0.41780  0.47620  Biso   1.000  B
  B29      1.0000 0.65940  0.91780  0.47620  Biso   1.000  B
  B30      1.0000 0.84060  0.58220  0.97620  Biso   1.000  B
  B31      1.0000 0.34060  0.91780  0.02380  Biso   1.000  B
  B32      1.0000 0.15940  0.58220  0.52380  Biso   1.000  B
  H25      1.0000 0.33870  0.97440  0.57600  Biso   1.000  H
  H26      1.0000 0.16130  0.52560  0.07600  Biso   1.000  H
  H27      1.0000 0.66130  0.97440  0.92400  Biso   1.000  H
  H28      1.0000 0.83870  0.52560  0.42400  Biso   1.000  H
  H29      1.0000 0.66130  0.02560  0.42400  Biso   1.000  H
  H30      1.0000 0.83870  0.47440  0.92400  Biso   1.000  H
  H31      1.0000 0.33870  0.02560  0.07600  Biso   1.000  H
  H32      1.0000 0.16130  0.47440  0.57600  Biso   1.000  H
  B33      1.0000 0.38670  0.13910  0.37270  Biso   1.000  B
  B34      1.0000 0.11330  0.36090  0.87270  Biso   1.000  B
  B35      1.0000 0.61330  0.13910  0.12730  Biso   1.000  B
  B36      1.0000 0.88670  0.36090  0.62730  Biso   1.000  B
  B37      1.0000 0.61330  0.86090  0.62730  Biso   1.000  B
  B38      1.0000 0.88670  0.63910  0.12730  Biso   1.000  B
  B39      1.0000 0.38670  0.86090  0.87270  Biso   1.000  B
  B40      1.0000 0.11330  0.63910  0.37270  Biso   1.000  B
  H33      1.0000 0.41820  0.07610  0.31020  Biso   1.000  H
  H34      1.0000 0.08180  0.42390  0.81020  Biso   1.000  H
  H35      1.0000 0.58180  0.07610  0.18980  Biso   1.000  H
  H36      1.0000 0.91820  0.42390  0.68980  Biso   1.000  H
  H37      1.0000 0.58180  0.92390  0.68980  Biso   1.000  H
  H38      1.0000 0.91820  0.57610  0.18980  Biso   1.000  H
  H39      1.0000 0.41820  0.92390  0.81020  Biso   1.000  H
  H40      1.0000 0.08180  0.57610  0.31020  Biso   1.000  H
  B41      1.0000 0.34230  0.39050  0.51630  Biso   1.000  B
  B42      1.0000 0.15770  0.10950  0.01630  Biso   1.000  B
  B43      1.0000 0.65770  0.39050  0.98370  Biso   1.000  B
  B44      1.0000 0.84230  0.10950  0.48370  Biso   1.000  B
  B45      1.0000 0.65770  0.60950  0.48370  Biso   1.000  B
  B46      1.0000 0.84230  0.89050  0.98370  Biso   1.000  B
  B47      1.0000 0.34230  0.60950  0.01630  Biso   1.000  B
  B48      1.0000 0.15770  0.89050  0.51630  Biso   1.000  B
  H41      1.0000 0.32570  0.49740  0.53850  Biso   1.000  H
  H42      1.0000 0.17430  0.00260  0.03850  Biso   1.000  H
  H43      1.0000 0.67430  0.49740  0.96150  Biso   1.000  H
  H44      1.0000 0.82570  0.00260  0.46150  Biso   1.000  H
  H45      1.0000 0.67430  0.50260  0.46150  Biso   1.000  H
  H46      1.0000 0.82570  0.99740  0.96150  Biso   1.000  H
  H47      1.0000 0.32570  0.50260  0.03850  Biso   1.000  H
  H48      1.0000 0.17430  0.99740  0.53850  Biso   1.000  H
  B49      1.0000 0.34680  0.23830  0.63790  Biso   1.000  B
  B50      1.0000 0.15320  0.26170  0.13790  Biso   1.000  B
  B51      1.0000 0.65320  0.23830  0.86210  Biso   1.000  B
  B52      1.0000 0.84680  0.26170  0.36210  Biso   1.000  B
  B53      1.0000 0.65320  0.76170  0.36210  Biso   1.000  B
  B54      1.0000 0.84680  0.73830  0.86210  Biso   1.000  B
  B55      1.0000 0.34680  0.76170  0.13790  Biso   1.000  B
  B56      1.0000 0.15320  0.73830  0.63790  Biso   1.000  B
  H49      1.0000 0.33900  0.20380  0.74150  Biso   1.000  H
  H50      1.0000 0.16100  0.29620  0.24150  Biso   1.000  H
  H51      1.0000 0.66100  0.20380  0.75850  Biso   1.000  H
  H52      1.0000 0.83900  0.29620  0.25850  Biso   1.000  H
  H53      1.0000 0.66100  0.79620  0.25850  Biso   1.000  H
  H54      1.0000 0.83900  0.70380  0.75850  Biso   1.000  H
  H55      1.0000 0.33900  0.79620  0.24150  Biso   1.000  H
  H56      1.0000 0.16100  0.70380  0.74150  Biso   1.000  H
  B57      1.0000 0.41580  0.16680  0.54530  Biso   1.000  B
  B58      1.0000 0.08420  0.33320  0.04530  Biso   1.000  B
  B59      1.0000 0.58420  0.16680  0.95470  Biso   1.000  B
  B60      1.0000 0.91580  0.33320  0.45470  Biso   1.000  B
  B61      1.0000 0.58420  0.83320  0.45470  Biso   1.000  B
  B62      1.0000 0.91580  0.66680  0.95470  Biso   1.000  B
  B63      1.0000 0.41580  0.83320  0.04530  Biso   1.000  B
  B64      1.0000 0.08420  0.66680  0.54530  Biso   1.000  B
  H57      1.0000 0.45560  0.08840  0.57330  Biso   1.000  H
  H58      1.0000 0.04440  0.41160  0.07330  Biso   1.000  H
  H59      1.0000 0.54440  0.08840  0.92670  Biso   1.000  H
  H60      1.0000 0.95560  0.41160  0.42670  Biso   1.000  H
  H61      1.0000 0.54440  0.91160  0.42670  Biso   1.000  H
  H62      1.0000 0.95560  0.58840  0.92670  Biso   1.000  H
  H63      1.0000 0.45560  0.91160  0.07330  Biso   1.000  H
  H64      1.0000 0.04440  0.58840  0.57330  Biso   1.000  H
  B65      1.0000 0.41260  0.31900  0.42520  Biso   1.000  B
  B66      1.0000 0.08740  0.18100  0.92520  Biso   1.000  B
  B67      1.0000 0.58740  0.31900  0.07480  Biso   1.000  B
  B68      1.0000 0.91260  0.18100  0.57480  Biso   1.000  B
  B69      1.0000 0.58740  0.68100  0.57480  Biso   1.000  B
  B70      1.0000 0.91260  0.81900  0.07480  Biso   1.000  B
  B71      1.0000 0.41260  0.68100  0.92520  Biso   1.000  B
  B72      1.0000 0.08740  0.81900  0.42520  Biso   1.000  B
  H65      1.0000 0.44800  0.37100  0.37470  Biso   1.000  H
  H66      1.0000 0.05200  0.12900  0.87470  Biso   1.000  H
  H67      1.0000 0.55200  0.37100  0.12530  Biso   1.000  H
  H68      1.0000 0.94800  0.12900  0.62530  Biso   1.000  H
  H69      1.0000 0.55200  0.62900  0.62530  Biso   1.000  H
  H70      1.0000 0.94800  0.87100  0.12530  Biso   1.000  H
  H71      1.0000 0.44800  0.62900  0.87470  Biso   1.000  H
  H72      1.0000 0.05200  0.87100  0.37470  Biso   1.000  H
  B73      1.0000 0.41010  0.34390  0.59830  Biso   1.000  B
  B74      1.0000 0.08990  0.15610  0.09830  Biso   1.000  B
  B75      1.0000 0.58990  0.34390  0.90170  Biso   1.000  B
  B76      1.0000 0.91010  0.15610  0.40170  Biso   1.000  B
  B77      1.0000 0.58990  0.65610  0.40170  Biso   1.000  B
  B78      1.0000 0.91010  0.84390  0.90170  Biso   1.000  B
  B79      1.0000 0.41010  0.65610  0.09830  Biso   1.000  B
  B80      1.0000 0.08990  0.84390  0.59830  Biso   1.000  B
  H73      1.0000 0.44170  0.40800  0.66470  Biso   1.000  H
  H74      1.0000 0.05830  0.09200  0.16470  Biso   1.000  H
  H75      1.0000 0.55830  0.40800  0.83530  Biso   1.000  H
  H76      1.0000 0.94170  0.09200  0.33530  Biso   1.000  H
  H77      1.0000 0.55830  0.59200  0.33530  Biso   1.000  H
  H78      1.0000 0.94170  0.90800  0.83530  Biso   1.000  H
  H79      1.0000 0.44170  0.59200  0.16470  Biso   1.000  H
  H80      1.0000 0.05830  0.90800  0.66470  Biso   1.000  H
  Cu1      1.0000 0.25546  0.23855  0.20942  Biso   1.000  Cu
  Cu2      1.0000 0.24454  0.26145  0.70942  Biso   1.000  Cu
  Cu3      1.0000 0.74454  0.23855  0.29058  Biso   1.000  Cu
  Cu4      1.0000 0.75546  0.26145  0.79058  Biso   1.000  Cu
  Cu5      1.0000 0.74454  0.76145  0.79058  Biso   1.000  Cu
  Cu6      1.0000 0.75546  0.73855  0.29058  Biso   1.000  Cu
  Cu7      1.0000 0.25546  0.76145  0.70942  Biso   1.000  Cu
  Cu8      1.0000 0.24454  0.73855  0.20942  Biso   1.000  Cu
  Cs1      1.0000 0.07506  0.23588  0.49879  Biso   1.000  Cs
  Cs2      1.0000 0.42494  0.26412  0.99879  Biso   1.000  Cs
  Cs3      1.0000 0.92494  0.23588  0.00121  Biso   1.000  Cs
  Cs4      1.0000 0.57506  0.26412  0.50121  Biso   1.000  Cs
  Cs5      1.0000 0.92494  0.76412  0.50121  Biso   1.000  Cs
  Cs6      1.0000 0.57506  0.73588  0.00121  Biso   1.000  Cs
  Cs7      1.0000 0.07506  0.76412  0.99879  Biso   1.000  Cs
  Cs8      1.0000 0.42494  0.73588  0.49879  Biso   1.000  Cs
