data_image0
_cell_length_a       10.871
_cell_length_b       16.511
_cell_length_c       11.097
_cell_angle_alpha    90
_cell_angle_beta     114.311
_cell_angle_gamma    90

_symmetry_space_group_name_H-M    "P 1"
_symmetry_int_tables_number       1

loop_
  _symmetry_equiv_pos_as_xyz
  'x, y, z'

loop_
  _atom_site_label
  _atom_site_occupancy
  _atom_site_fract_x
  _atom_site_fract_y
  _atom_site_fract_z
  _atom_site_thermal_displace_type
  _atom_site_B_iso_or_equiv
  _atom_site_type_symbol
  Zn1      1.0000 0.49717  0.16478  0.46783  Biso   1.000  Zn
  Zn2      1.0000 0.50283  0.66478  0.03217  Biso   1.000  Zn
  Zn3      1.0000 0.50283  0.83522  0.53217  Biso   1.000  Zn
  Zn4      1.0000 0.49717  0.33522  0.96783  Biso   1.000  Zn
  Cu1      1.0000 0.41275  0.92524  0.14241  Biso   1.000  Cu
  Cu2      1.0000 0.58725  0.42524  0.35759  Biso   1.000  Cu
  Cu3      1.0000 0.58725  0.07476  0.85759  Biso   1.000  Cu
  Cu4      1.0000 0.41275  0.57476  0.64241  Biso   1.000  Cu
  O1       1.0000 0.91040  0.40890  0.01610  Biso   1.000  O
  O2       1.0000 0.08960  0.90890  0.48390  Biso   1.000  O
  O3       1.0000 0.08960  0.59110  0.98390  Biso   1.000  O
  O4       1.0000 0.91040  0.09110  0.51610  Biso   1.000  O
  H1       1.0000 0.84170  0.39590  0.02470  Biso   1.000  H
  H2       1.0000 0.15830  0.89590  0.47530  Biso   1.000  H
  H3       1.0000 0.15830  0.60410  0.97530  Biso   1.000  H
  H4       1.0000 0.84170  0.10410  0.52470  Biso   1.000  H
  O5       1.0000 0.21570  0.26790  0.72760  Biso   1.000  O
  O6       1.0000 0.78430  0.76790  0.77240  Biso   1.000  O
  O7       1.0000 0.78430  0.73210  0.27240  Biso   1.000  O
  O8       1.0000 0.21570  0.23210  0.22760  Biso   1.000  O
  O9       1.0000 0.48250  0.24120  0.31700  Biso   1.000  O
  O10      1.0000 0.51750  0.74120  0.18300  Biso   1.000  O
  O11      1.0000 0.51750  0.75880  0.68300  Biso   1.000  O
  O12      1.0000 0.48250  0.25880  0.81700  Biso   1.000  O
  H5       1.0000 0.50700  0.25100  0.25900  Biso   1.000  H
  H6       1.0000 0.49300  0.75100  0.24100  Biso   1.000  H
  H7       1.0000 0.49300  0.74900  0.74100  Biso   1.000  H
  H8       1.0000 0.50700  0.24900  0.75900  Biso   1.000  H
  H9       1.0000 0.40130  0.24500  0.28400  Biso   1.000  H
  H10      1.0000 0.59870  0.74500  0.21600  Biso   1.000  H
  H11      1.0000 0.59870  0.75500  0.71600  Biso   1.000  H
  H12      1.0000 0.40130  0.25500  0.78400  Biso   1.000  H
  O13      1.0000 0.50640  0.05910  0.37020  Biso   1.000  O
  O14      1.0000 0.49360  0.55910  0.12980  Biso   1.000  O
  O15      1.0000 0.49360  0.94090  0.62980  Biso   1.000  O
  O16      1.0000 0.50640  0.44090  0.87020  Biso   1.000  O
  O17      1.0000 0.72200  0.18250  0.55870  Biso   1.000  O
  O18      1.0000 0.27800  0.68250  0.94130  Biso   1.000  O
  O19      1.0000 0.27800  0.81750  0.44130  Biso   1.000  O
  O20      1.0000 0.72200  0.31750  0.05870  Biso   1.000  O
  O21      1.0000 0.59600  0.24780  0.63050  Biso   1.000  O
  O22      1.0000 0.40400  0.74780  0.86950  Biso   1.000  O
  O23      1.0000 0.40400  0.75220  0.36950  Biso   1.000  O
  O24      1.0000 0.59600  0.25220  0.13050  Biso   1.000  O
  O25      1.0000 0.49280  0.92460  0.38820  Biso   1.000  O
  O26      1.0000 0.50720  0.42460  0.11180  Biso   1.000  O
  O27      1.0000 0.50720  0.07540  0.61180  Biso   1.000  O
  O28      1.0000 0.49280  0.57540  0.88820  Biso   1.000  O
  O29      1.0000 0.30220  0.32550  0.92570  Biso   1.000  O
  O30      1.0000 0.69780  0.82550  0.57430  Biso   1.000  O
  O31      1.0000 0.69780  0.67450  0.07430  Biso   1.000  O
  O32      1.0000 0.30220  0.17450  0.42570  Biso   1.000  O
  N1       1.0000 0.23100  0.92660  0.12600  Biso   1.000  N
  N2       1.0000 0.76900  0.42660  0.37400  Biso   1.000  N
  N3       1.0000 0.76900  0.07340  0.87400  Biso   1.000  N
  N4       1.0000 0.23100  0.57340  0.62600  Biso   1.000  N
  N5       1.0000 0.57960  0.92750  0.12590  Biso   1.000  N
  N6       1.0000 0.42040  0.42750  0.37410  Biso   1.000  N
  N7       1.0000 0.42040  0.07250  0.87410  Biso   1.000  N
  N8       1.0000 0.57960  0.57250  0.62590  Biso   1.000  N
  C1       1.0000 0.71240  0.23200  0.63740  Biso   1.000  C
  C2       1.0000 0.28760  0.73200  0.86260  Biso   1.000  C
  C3       1.0000 0.28760  0.76800  0.36260  Biso   1.000  C
  C4       1.0000 0.71240  0.26800  0.13740  Biso   1.000  C
  C5       1.0000 0.83330  0.92720  0.12070  Biso   1.000  C
  C6       1.0000 0.16670  0.42720  0.37930  Biso   1.000  C
  C7       1.0000 0.16670  0.07280  0.87930  Biso   1.000  C
  C8       1.0000 0.83330  0.57280  0.62070  Biso   1.000  C
  C9       1.0000 0.72320  0.89100  0.02150  Biso   1.000  C
  C10      1.0000 0.27680  0.39100  0.47850  Biso   1.000  C
  C11      1.0000 0.27680  0.10900  0.97850  Biso   1.000  C
  C12      1.0000 0.72320  0.60900  0.52150  Biso   1.000  C
  H13      1.0000 0.73180  0.86570  0.95050  Biso   1.000  H
  H14      1.0000 0.26820  0.36570  0.54950  Biso   1.000  H
  H15      1.0000 0.26820  0.13430  0.04950  Biso   1.000  H
  H16      1.0000 0.73180  0.63430  0.45050  Biso   1.000  H
  C13      1.0000 0.81550  0.95920  0.22620  Biso   1.000  C
  C14      1.0000 0.18450  0.45920  0.27380  Biso   1.000  C
  C15      1.0000 0.18450  0.04080  0.77380  Biso   1.000  C
  C16      1.0000 0.81550  0.54080  0.72620  Biso   1.000  C
  H17      1.0000 0.88810  0.98110  0.29750  Biso   1.000  H
  H18      1.0000 0.11190  0.48110  0.20250  Biso   1.000  H
  H19      1.0000 0.11190  0.01890  0.70250  Biso   1.000  H
  H20      1.0000 0.88810  0.51890  0.79750  Biso   1.000  H
  C17      1.0000 0.95890  0.26780  0.73440  Biso   1.000  C
  C18      1.0000 0.04110  0.76780  0.76560  Biso   1.000  C
  C19      1.0000 0.04110  0.73220  0.26560  Biso   1.000  C
  C20      1.0000 0.95890  0.23220  0.23440  Biso   1.000  C
  H21      1.0000 0.97080  0.23740  0.66940  Biso   1.000  H
  H22      1.0000 0.02920  0.73740  0.83060  Biso   1.000  H
  H23      1.0000 0.02920  0.76260  0.33060  Biso   1.000  H
  H24      1.0000 0.97080  0.26260  0.16940  Biso   1.000  H
  C21      1.0000 0.82900  0.27520  0.73010  Biso   1.000  C
  C22      1.0000 0.17100  0.77520  0.76990  Biso   1.000  C
  C23      1.0000 0.17100  0.72480  0.26990  Biso   1.000  C
  C24      1.0000 0.82900  0.22480  0.23010  Biso   1.000  C
  C25      1.0000 0.07040  0.30400  0.83160  Biso   1.000  C
  C26      1.0000 0.92960  0.80400  0.66840  Biso   1.000  C
  C27      1.0000 0.92960  0.69600  0.16840  Biso   1.000  C
  C28      1.0000 0.07040  0.19600  0.33160  Biso   1.000  C
  C29      1.0000 0.59740  0.89330  0.03070  Biso   1.000  C
  C30      1.0000 0.40260  0.39330  0.46930  Biso   1.000  C
  C31      1.0000 0.40260  0.10670  0.96930  Biso   1.000  C
  C32      1.0000 0.59740  0.60670  0.53070  Biso   1.000  C
  H25      1.0000 0.52370  0.86880  0.96420  Biso   1.000  H
  H26      1.0000 0.47630  0.36880  0.53580  Biso   1.000  H
  H27      1.0000 0.47630  0.13120  0.03580  Biso   1.000  H
  H28      1.0000 0.52370  0.63120  0.46420  Biso   1.000  H
  C33      1.0000 0.05300  0.34920  0.92400  Biso   1.000  C
  C34      1.0000 0.94700  0.84920  0.57600  Biso   1.000  C
  C35      1.0000 0.94700  0.65080  0.07600  Biso   1.000  C
  C36      1.0000 0.05300  0.15080  0.42400  Biso   1.000  C
  H29      1.0000 0.12760  0.37180  0.99230  Biso   1.000  H
  H30      1.0000 0.87240  0.87180  0.50770  Biso   1.000  H
  H31      1.0000 0.87240  0.62820  0.00770  Biso   1.000  H
  H32      1.0000 0.12760  0.12820  0.49230  Biso   1.000  H
  C37      1.0000 0.97380  0.92870  0.12180  Biso   1.000  C
  C38      1.0000 0.02620  0.42870  0.37820  Biso   1.000  C
  C39      1.0000 0.02620  0.07130  0.87820  Biso   1.000  C
  C40      1.0000 0.97380  0.57130  0.62180  Biso   1.000  C
  C41      1.0000 0.19510  0.98090  0.19420  Biso   1.000  C
  C42      1.0000 0.80490  0.48090  0.30580  Biso   1.000  C
  C43      1.0000 0.80490  0.01910  0.80580  Biso   1.000  C
  C44      1.0000 0.19510  0.51910  0.69420  Biso   1.000  C
  H33      1.0000 0.25940  0.01880  0.24340  Biso   1.000  H
  H34      1.0000 0.74060  0.51880  0.25660  Biso   1.000  H
  H35      1.0000 0.74060  0.98120  0.75660  Biso   1.000  H
  H36      1.0000 0.25940  0.48120  0.74340  Biso   1.000  H
  C45      1.0000 0.13890  0.87400  0.05320  Biso   1.000  C
  C46      1.0000 0.86110  0.37400  0.44680  Biso   1.000  C
  C47      1.0000 0.86110  0.12600  0.94680  Biso   1.000  C
  C48      1.0000 0.13890  0.62600  0.55320  Biso   1.000  C
  H37      1.0000 0.16160  0.83690  0.00260  Biso   1.000  H
  H38      1.0000 0.83840  0.33690  0.49740  Biso   1.000  H
  H39      1.0000 0.83840  0.16310  0.99740  Biso   1.000  H
  H40      1.0000 0.16160  0.66310  0.50260  Biso   1.000  H
  C49      1.0000 0.50060  0.99450  0.42720  Biso   1.000  C
  C50      1.0000 0.49940  0.49450  0.07280  Biso   1.000  C
  C51      1.0000 0.49940  0.00550  0.57280  Biso   1.000  C
  C52      1.0000 0.50060  0.50550  0.92720  Biso   1.000  C
  C53      1.0000 0.81650  0.32220  0.82760  Biso   1.000  C
  C54      1.0000 0.18350  0.82220  0.67240  Biso   1.000  C
  C55      1.0000 0.18350  0.67780  0.17240  Biso   1.000  C
  C56      1.0000 0.81650  0.17780  0.32760  Biso   1.000  C
  H41      1.0000 0.73260  0.32610  0.83100  Biso   1.000  H
  H42      1.0000 0.26740  0.82610  0.66900  Biso   1.000  H
  H43      1.0000 0.26740  0.67390  0.16900  Biso   1.000  H
  H44      1.0000 0.73260  0.17390  0.33100  Biso   1.000  H
  C57      1.0000 0.92240  0.36270  0.91830  Biso   1.000  C
  C58      1.0000 0.07760  0.86270  0.58170  Biso   1.000  C
  C59      1.0000 0.07760  0.63730  0.08170  Biso   1.000  C
  C60      1.0000 0.92240  0.13730  0.41830  Biso   1.000  C
  C61      1.0000 0.20240  0.29790  0.82300  Biso   1.000  C
  C62      1.0000 0.79760  0.79790  0.67700  Biso   1.000  C
  C63      1.0000 0.79760  0.70210  0.17700  Biso   1.000  C
  C64      1.0000 0.20240  0.20210  0.32300  Biso   1.000  C
  C65      1.0000 0.01120  0.87170  0.04920  Biso   1.000  C
  C66      1.0000 0.98880  0.37170  0.45080  Biso   1.000  C
  C67      1.0000 0.98880  0.12830  0.95080  Biso   1.000  C
  C68      1.0000 0.01120  0.62830  0.54920  Biso   1.000  C
  H45      1.0000 0.94990  0.83270  0.99870  Biso   1.000  H
  H46      1.0000 0.05010  0.33270  0.50130  Biso   1.000  H
  H47      1.0000 0.05010  0.16730  0.00130  Biso   1.000  H
  H48      1.0000 0.94990  0.66730  0.49870  Biso   1.000  H
  C69      1.0000 0.68600  0.95840  0.22530  Biso   1.000  C
  C70      1.0000 0.31400  0.45840  0.27470  Biso   1.000  C
  C71      1.0000 0.31400  0.04160  0.77470  Biso   1.000  C
  C72      1.0000 0.68600  0.54160  0.72530  Biso   1.000  C
  H49      1.0000 0.67430  0.98030  0.29700  Biso   1.000  H
  H50      1.0000 0.32570  0.48030  0.20300  Biso   1.000  H
  H51      1.0000 0.32570  0.01970  0.70300  Biso   1.000  H
  H52      1.0000 0.67430  0.51970  0.79700  Biso   1.000  H
  C73      1.0000 0.06870  0.98520  0.19720  Biso   1.000  C
  C74      1.0000 0.93130  0.48520  0.30280  Biso   1.000  C
  C75      1.0000 0.93130  0.01480  0.80280  Biso   1.000  C
  C76      1.0000 0.06870  0.51480  0.69720  Biso   1.000  C
  H53      1.0000 0.04890  0.02390  0.24730  Biso   1.000  H
  H54      1.0000 0.95110  0.52390  0.25270  Biso   1.000  H
  H55      1.0000 0.95110  0.97610  0.75270  Biso   1.000  H
  H56      1.0000 0.04890  0.47610  0.74730  Biso   1.000  H
