data_image0
_cell_length_a       14.7793
_cell_length_b       12.1709
_cell_length_c       17.6764
_cell_angle_alpha    90
_cell_angle_beta     97.351
_cell_angle_gamma    90

_symmetry_space_group_name_H-M    "P 1"
_symmetry_int_tables_number       1

loop_
  _symmetry_equiv_pos_as_xyz
  'x, y, z'

loop_
  _atom_site_label
  _atom_site_occupancy
  _atom_site_fract_x
  _atom_site_fract_y
  _atom_site_fract_z
  _atom_site_thermal_displace_type
  _atom_site_B_iso_or_equiv
  _atom_site_type_symbol
  Cu1      1.0000 0.97358  0.94482  0.65303  Biso   1.000  Cu
  Cu2      1.0000 0.02642  0.44482  0.84697  Biso   1.000  Cu
  Cu3      1.0000 0.02642  0.05518  0.34697  Biso   1.000  Cu
  Cu4      1.0000 0.97358  0.55518  0.15303  Biso   1.000  Cu
  Cu5      1.0000 0.45883  0.91258  0.16003  Biso   1.000  Cu
  Cu6      1.0000 0.54117  0.41258  0.33997  Biso   1.000  Cu
  Cu7      1.0000 0.54117  0.08742  0.83997  Biso   1.000  Cu
  Cu8      1.0000 0.45883  0.58742  0.66003  Biso   1.000  Cu
  Zn1      1.0000 0.74278  0.98733  0.75623  Biso   1.000  Zn
  Zn2      1.0000 0.25722  0.48733  0.74377  Biso   1.000  Zn
  Zn3      1.0000 0.25722  0.01267  0.24377  Biso   1.000  Zn
  Zn4      1.0000 0.74278  0.51267  0.25623  Biso   1.000  Zn
  O1       1.0000 0.71194  0.80260  0.63611  Biso   1.000  O
  O2       1.0000 0.28806  0.30260  0.86389  Biso   1.000  O
  O3       1.0000 0.28806  0.19740  0.36389  Biso   1.000  O
  O4       1.0000 0.71194  0.69740  0.13611  Biso   1.000  O
  O5       1.0000 0.81739  0.86240  0.72744  Biso   1.000  O
  O6       1.0000 0.18261  0.36240  0.77256  Biso   1.000  O
  O7       1.0000 0.18261  0.13760  0.27256  Biso   1.000  O
  O8       1.0000 0.81739  0.63760  0.22744  Biso   1.000  O
  O9       1.0000 0.08780  0.59740  0.78735  Biso   1.000  O
  O10      1.0000 0.91220  0.09740  0.71265  Biso   1.000  O
  O11      1.0000 0.91220  0.40260  0.21265  Biso   1.000  O
  O12      1.0000 0.08780  0.90260  0.28735  Biso   1.000  O
  O13      1.0000 0.15924  0.57210  0.68446  Biso   1.000  O
  O14      1.0000 0.84076  0.07210  0.81554  Biso   1.000  O
  O15      1.0000 0.84076  0.42790  0.31554  Biso   1.000  O
  O16      1.0000 0.15924  0.92790  0.18446  Biso   1.000  O
  O17      1.0000 0.91600  0.61390  0.46460  Biso   1.000  O
  O18      1.0000 0.08400  0.11390  0.03540  Biso   1.000  O
  O19      1.0000 0.08400  0.38610  0.53540  Biso   1.000  O
  O20      1.0000 0.91600  0.88610  0.96460  Biso   1.000  O
  H1       1.0000 0.86290  0.61800  0.44450  Biso   1.000  H
  H2       1.0000 0.13710  0.11800  0.05550  Biso   1.000  H
  H3       1.0000 0.13710  0.38200  0.55550  Biso   1.000  H
  H4       1.0000 0.86290  0.88200  0.94450  Biso   1.000  H
  O21      1.0000 0.25950  0.13700  0.09520  Biso   1.000  O
  O22      1.0000 0.74050  0.63700  0.40480  Biso   1.000  O
  O23      1.0000 0.74050  0.86300  0.90480  Biso   1.000  O
  O24      1.0000 0.25950  0.36300  0.59520  Biso   1.000  O
  O25      1.0000 0.35663  0.07690  0.19168  Biso   1.000  O
  O26      1.0000 0.64337  0.57690  0.30832  Biso   1.000  O
  O27      1.0000 0.64337  0.92310  0.80832  Biso   1.000  O
  O28      1.0000 0.35663  0.42310  0.69168  Biso   1.000  O
  O29      1.0000 0.62568  0.32680  0.25919  Biso   1.000  O
  O30      1.0000 0.37432  0.82680  0.24081  Biso   1.000  O
  O31      1.0000 0.37432  0.67320  0.74081  Biso   1.000  O
  O32      1.0000 0.62568  0.17320  0.75919  Biso   1.000  O
  O33      1.0000 0.67015  0.43570  0.17022  Biso   1.000  O
  O34      1.0000 0.32985  0.93570  0.32978  Biso   1.000  O
  O35      1.0000 0.32985  0.56430  0.82978  Biso   1.000  O
  O36      1.0000 0.67015  0.06430  0.67022  Biso   1.000  O
  O37      1.0000 0.45310  0.36250  0.93642  Biso   1.000  O
  O38      1.0000 0.54690  0.86250  0.56358  Biso   1.000  O
  O39      1.0000 0.54690  0.63750  0.06358  Biso   1.000  O
  O40      1.0000 0.45310  0.13750  0.43642  Biso   1.000  O
  H5       1.0000 0.40650  0.33910  0.91160  Biso   1.000  H
  H6       1.0000 0.59350  0.83910  0.58840  Biso   1.000  H
  H7       1.0000 0.59350  0.66090  0.08840  Biso   1.000  H
  H8       1.0000 0.40650  0.16090  0.41160  Biso   1.000  H
  N1       1.0000 0.90040  0.96420  0.55635  Biso   1.000  N
  N2       1.0000 0.09960  0.46420  0.94365  Biso   1.000  N
  N3       1.0000 0.09960  0.03580  0.44365  Biso   1.000  N
  N4       1.0000 0.90040  0.53580  0.05635  Biso   1.000  N
  N5       1.0000 0.56300  0.95030  0.23155  Biso   1.000  N
  N6       1.0000 0.43700  0.45030  0.26845  Biso   1.000  N
  N7       1.0000 0.43700  0.04970  0.76845  Biso   1.000  N
  N8       1.0000 0.56300  0.54970  0.73155  Biso   1.000  N
  N9       1.0000 0.38160  0.87580  0.06784  Biso   1.000  N
  N10      1.0000 0.61840  0.37580  0.43216  Biso   1.000  N
  N11      1.0000 0.61840  0.12420  0.93216  Biso   1.000  N
  N12      1.0000 0.38160  0.62420  0.56784  Biso   1.000  N
  N13      1.0000 0.06020  0.89760  0.73622  Biso   1.000  N
  N14      1.0000 0.93980  0.39760  0.76378  Biso   1.000  N
  N15      1.0000 0.93980  0.10240  0.26378  Biso   1.000  N
  N16      1.0000 0.06020  0.60240  0.23622  Biso   1.000  N
  C1       1.0000 0.78930  0.80100  0.67150  Biso   1.000  C
  C2       1.0000 0.21070  0.30100  0.82850  Biso   1.000  C
  C3       1.0000 0.21070  0.19900  0.32850  Biso   1.000  C
  C4       1.0000 0.78930  0.69900  0.17150  Biso   1.000  C
  C5       1.0000 0.86010  0.72370  0.64610  Biso   1.000  C
  C6       1.0000 0.13990  0.22370  0.85390  Biso   1.000  C
  C7       1.0000 0.13990  0.27630  0.35390  Biso   1.000  C
  C8       1.0000 0.86010  0.77630  0.14610  Biso   1.000  C
  C9       1.0000 0.93750  0.69300  0.69420  Biso   1.000  C
  C10      1.0000 0.06250  0.19300  0.80580  Biso   1.000  C
  C11      1.0000 0.06250  0.30700  0.30580  Biso   1.000  C
  C12      1.0000 0.93750  0.80700  0.19420  Biso   1.000  C
  H9       1.0000 0.94210  0.70870  0.74600  Biso   1.000  H
  H10      1.0000 0.05790  0.20870  0.75400  Biso   1.000  H
  H11      1.0000 0.05790  0.29130  0.25400  Biso   1.000  H
  H12      1.0000 0.94210  0.79130  0.24600  Biso   1.000  H
  C13      1.0000 0.00800  0.63910  0.66500  Biso   1.000  C
  C14      1.0000 0.99200  0.13910  0.83500  Biso   1.000  C
  C15      1.0000 0.99200  0.36090  0.33500  Biso   1.000  C
  C16      1.0000 0.00800  0.86090  0.16500  Biso   1.000  C
  C17      1.0000 0.09180  0.60170  0.71690  Biso   1.000  C
  C18      1.0000 0.90820  0.10170  0.78310  Biso   1.000  C
  C19      1.0000 0.90820  0.39830  0.28310  Biso   1.000  C
  C20      1.0000 0.09180  0.89830  0.21690  Biso   1.000  C
  C21      1.0000 0.00080  0.61540  0.58710  Biso   1.000  C
  C22      1.0000 0.99920  0.11540  0.91290  Biso   1.000  C
  C23      1.0000 0.99920  0.38460  0.41290  Biso   1.000  C
  C24      1.0000 0.00080  0.88460  0.08710  Biso   1.000  C
  H13      1.0000 0.04920  0.58290  0.56660  Biso   1.000  H
  H14      1.0000 0.95080  0.08290  0.93340  Biso   1.000  H
  H15      1.0000 0.95080  0.41710  0.43340  Biso   1.000  H
  H16      1.0000 0.04920  0.91710  0.06660  Biso   1.000  H
  C25      1.0000 0.92050  0.64090  0.54070  Biso   1.000  C
  C26      1.0000 0.07950  0.14090  0.95930  Biso   1.000  C
  C27      1.0000 0.07950  0.35910  0.45930  Biso   1.000  C
  C28      1.0000 0.92050  0.85910  0.04070  Biso   1.000  C
  C29      1.0000 0.85060  0.69380  0.56960  Biso   1.000  C
  C30      1.0000 0.14940  0.19380  0.93040  Biso   1.000  C
  C31      1.0000 0.14940  0.30620  0.43040  Biso   1.000  C
  C32      1.0000 0.85060  0.80620  0.06960  Biso   1.000  C
  H17      1.0000 0.79690  0.70970  0.53810  Biso   1.000  H
  H18      1.0000 0.20310  0.20970  0.96190  Biso   1.000  H
  H19      1.0000 0.20310  0.29030  0.46190  Biso   1.000  H
  H20      1.0000 0.79690  0.79030  0.03810  Biso   1.000  H
  C33      1.0000 0.61930  0.36130  0.19260  Biso   1.000  C
  C34      1.0000 0.38070  0.86130  0.30740  Biso   1.000  C
  C35      1.0000 0.38070  0.63870  0.80740  Biso   1.000  C
  C36      1.0000 0.61930  0.13870  0.69260  Biso   1.000  C
  C37      1.0000 0.54440  0.31630  0.13440  Biso   1.000  C
  C38      1.0000 0.45560  0.81630  0.36560  Biso   1.000  C
  C39      1.0000 0.45560  0.68370  0.86560  Biso   1.000  C
  C40      1.0000 0.54440  0.18370  0.63440  Biso   1.000  C
  C41      1.0000 0.48330  0.23930  0.15680  Biso   1.000  C
  C42      1.0000 0.51670  0.73930  0.34320  Biso   1.000  C
  C43      1.0000 0.51670  0.76070  0.84320  Biso   1.000  C
  C44      1.0000 0.48330  0.26070  0.65680  Biso   1.000  C
  H21      1.0000 0.49190  0.21060  0.20600  Biso   1.000  H
  H22      1.0000 0.50810  0.71060  0.29400  Biso   1.000  H
  H23      1.0000 0.50810  0.78940  0.79400  Biso   1.000  H
  H24      1.0000 0.49190  0.28940  0.70600  Biso   1.000  H
  C45      1.0000 0.40940  0.20550  0.10550  Biso   1.000  C
  C46      1.0000 0.59060  0.70550  0.39450  Biso   1.000  C
  C47      1.0000 0.59060  0.79450  0.89450  Biso   1.000  C
  C48      1.0000 0.40940  0.29450  0.60550  Biso   1.000  C
  C49      1.0000 0.33580  0.13520  0.13180  Biso   1.000  C
  C50      1.0000 0.66420  0.63520  0.36820  Biso   1.000  C
  C51      1.0000 0.66420  0.86480  0.86820  Biso   1.000  C
  C52      1.0000 0.33580  0.36480  0.63180  Biso   1.000  C
  C53      1.0000 0.39900  0.24580  0.03130  Biso   1.000  C
  C54      1.0000 0.60100  0.74580  0.46870  Biso   1.000  C
  C55      1.0000 0.60100  0.75420  0.96870  Biso   1.000  C
  C56      1.0000 0.39900  0.25420  0.53130  Biso   1.000  C
  H25      1.0000 0.35020  0.22230  0.99660  Biso   1.000  H
  H26      1.0000 0.64980  0.72230  0.50340  Biso   1.000  H
  H27      1.0000 0.64980  0.77770  0.00340  Biso   1.000  H
  H28      1.0000 0.35020  0.27770  0.49660  Biso   1.000  H
  C57      1.0000 0.46070  0.32070  0.00870  Biso   1.000  C
  C58      1.0000 0.53930  0.82070  0.49130  Biso   1.000  C
  C59      1.0000 0.53930  0.67930  0.99130  Biso   1.000  C
  C60      1.0000 0.46070  0.17930  0.50870  Biso   1.000  C
  C61      1.0000 0.53270  0.35760  0.06080  Biso   1.000  C
  C62      1.0000 0.46730  0.85760  0.43920  Biso   1.000  C
  C63      1.0000 0.46730  0.64240  0.93920  Biso   1.000  C
  C64      1.0000 0.53270  0.14240  0.56080  Biso   1.000  C
  H29      1.0000 0.57290  0.40990  0.04630  Biso   1.000  H
  H30      1.0000 0.42710  0.90990  0.45370  Biso   1.000  H
  H31      1.0000 0.42710  0.59010  0.95370  Biso   1.000  H
  H32      1.0000 0.57290  0.09010  0.54630  Biso   1.000  H
  C65      1.0000 0.82230  0.02130  0.55330  Biso   1.000  C
  C66      1.0000 0.17770  0.52130  0.94670  Biso   1.000  C
  C67      1.0000 0.17770  0.97870  0.44670  Biso   1.000  C
  C68      1.0000 0.82230  0.47870  0.05330  Biso   1.000  C
  H33      1.0000 0.81150  0.06180  0.59590  Biso   1.000  H
  H34      1.0000 0.18850  0.56180  0.90410  Biso   1.000  H
  H35      1.0000 0.18850  0.93820  0.40410  Biso   1.000  H
  H36      1.0000 0.81150  0.43820  0.09590  Biso   1.000  H
  C69      1.0000 0.75770  0.02240  0.49030  Biso   1.000  C
  C70      1.0000 0.24230  0.52240  0.00970  Biso   1.000  C
  C71      1.0000 0.24230  0.97760  0.50970  Biso   1.000  C
  C72      1.0000 0.75770  0.47760  0.99030  Biso   1.000  C
  H37      1.0000 0.70430  0.06230  0.49140  Biso   1.000  H
  H38      1.0000 0.29570  0.56230  0.00860  Biso   1.000  H
  H39      1.0000 0.29570  0.93770  0.50860  Biso   1.000  H
  H40      1.0000 0.70430  0.43770  0.99140  Biso   1.000  H
  C73      1.0000 0.77080  0.96460  0.42460  Biso   1.000  C
  C74      1.0000 0.22920  0.46460  0.07540  Biso   1.000  C
  C75      1.0000 0.22920  0.03540  0.57540  Biso   1.000  C
  C76      1.0000 0.77080  0.53540  0.92460  Biso   1.000  C
  C77      1.0000 0.85240  0.90720  0.42800  Biso   1.000  C
  C78      1.0000 0.14760  0.40720  0.07200  Biso   1.000  C
  C79      1.0000 0.14760  0.09280  0.57200  Biso   1.000  C
  C80      1.0000 0.85240  0.59280  0.92800  Biso   1.000  C
  H41      1.0000 0.86530  0.86720  0.38590  Biso   1.000  H
  H42      1.0000 0.13470  0.36720  0.11410  Biso   1.000  H
  H43      1.0000 0.13470  0.13280  0.61410  Biso   1.000  H
  H44      1.0000 0.86530  0.63280  0.88590  Biso   1.000  H
  C81      1.0000 0.91420  0.90900  0.49310  Biso   1.000  C
  C82      1.0000 0.08580  0.40900  0.00690  Biso   1.000  C
  C83      1.0000 0.08580  0.09100  0.50690  Biso   1.000  C
  C84      1.0000 0.91420  0.59100  0.99310  Biso   1.000  C
  H45      1.0000 0.96830  0.87000  0.49330  Biso   1.000  H
  H46      1.0000 0.03170  0.37000  0.00670  Biso   1.000  H
  H47      1.0000 0.03170  0.13000  0.50670  Biso   1.000  H
  H48      1.0000 0.96830  0.63000  0.99330  Biso   1.000  H
  C85      1.0000 0.55620  0.01750  0.29020  Biso   1.000  C
  C86      1.0000 0.44380  0.51750  0.20980  Biso   1.000  C
  C87      1.0000 0.44380  0.98250  0.70980  Biso   1.000  C
  C88      1.0000 0.55620  0.48250  0.79020  Biso   1.000  C
  H49      1.0000 0.50420  0.06080  0.28930  Biso   1.000  H
  H50      1.0000 0.49580  0.56080  0.21070  Biso   1.000  H
  H51      1.0000 0.49580  0.93920  0.71070  Biso   1.000  H
  H52      1.0000 0.50420  0.43920  0.78930  Biso   1.000  H
  C89      1.0000 0.62270  0.02580  0.35210  Biso   1.000  C
  C90      1.0000 0.37730  0.52580  0.14790  Biso   1.000  C
  C91      1.0000 0.37730  0.97420  0.64790  Biso   1.000  C
  C92      1.0000 0.62270  0.47420  0.85210  Biso   1.000  C
  H53      1.0000 0.61520  0.07490  0.39100  Biso   1.000  H
  H54      1.0000 0.38480  0.57490  0.10900  Biso   1.000  H
  H55      1.0000 0.38480  0.92510  0.60900  Biso   1.000  H
  H56      1.0000 0.61520  0.42510  0.89100  Biso   1.000  H
  C93      1.0000 0.70050  0.96180  0.35690  Biso   1.000  C
  C94      1.0000 0.29950  0.46180  0.14310  Biso   1.000  C
  C95      1.0000 0.29950  0.03820  0.64310  Biso   1.000  C
  C96      1.0000 0.70050  0.53820  0.85690  Biso   1.000  C
  C97      1.0000 0.70810  0.89260  0.29530  Biso   1.000  C
  C98      1.0000 0.29190  0.39260  0.20470  Biso   1.000  C
  C99      1.0000 0.29190  0.10740  0.70470  Biso   1.000  C
  C100     1.0000 0.70810  0.60740  0.79530  Biso   1.000  C
  H57      1.0000 0.75900  0.84770  0.29520  Biso   1.000  H
  H58      1.0000 0.24100  0.34770  0.20480  Biso   1.000  H
  H59      1.0000 0.24100  0.15230  0.70480  Biso   1.000  H
  H60      1.0000 0.75900  0.65230  0.79520  Biso   1.000  H
  C101     1.0000 0.63940  0.89090  0.23410  Biso   1.000  C
  C102     1.0000 0.36060  0.39090  0.26590  Biso   1.000  C
  C103     1.0000 0.36060  0.10910  0.76590  Biso   1.000  C
  C104     1.0000 0.63940  0.60910  0.73410  Biso   1.000  C
  H61      1.0000 0.64680  0.84620  0.19270  Biso   1.000  H
  H62      1.0000 0.35320  0.34620  0.30730  Biso   1.000  H
  H63      1.0000 0.35320  0.15380  0.80730  Biso   1.000  H
  H64      1.0000 0.64680  0.65380  0.69270  Biso   1.000  H
  C105     1.0000 0.29720  0.83920  0.06990  Biso   1.000  C
  C106     1.0000 0.70280  0.33920  0.43010  Biso   1.000  C
  C107     1.0000 0.70280  0.16080  0.93010  Biso   1.000  C
  C108     1.0000 0.29720  0.66080  0.56990  Biso   1.000  C
  H65      1.0000 0.28030  0.81820  0.11670  Biso   1.000  H
  H66      1.0000 0.71970  0.31820  0.38330  Biso   1.000  H
  H67      1.0000 0.71970  0.18180  0.88330  Biso   1.000  H
  H68      1.0000 0.28030  0.68180  0.61670  Biso   1.000  H
  C109     1.0000 0.23320  0.83080  0.00560  Biso   1.000  C
  C110     1.0000 0.76680  0.33080  0.49440  Biso   1.000  C
  C111     1.0000 0.76680  0.16920  0.99440  Biso   1.000  C
  C112     1.0000 0.23320  0.66920  0.50560  Biso   1.000  C
  H69      1.0000 0.17510  0.80380  0.00970  Biso   1.000  H
  H70      1.0000 0.82490  0.30380  0.49030  Biso   1.000  H
  H71      1.0000 0.82490  0.19620  0.99030  Biso   1.000  H
  H72      1.0000 0.17510  0.69620  0.50970  Biso   1.000  H
  C113     1.0000 0.25600  0.86290  0.93510  Biso   1.000  C
  C114     1.0000 0.74400  0.36290  0.56490  Biso   1.000  C
  C115     1.0000 0.74400  0.13710  0.06490  Biso   1.000  C
  C116     1.0000 0.25600  0.63710  0.43510  Biso   1.000  C
  C117     1.0000 0.34500  0.89750  0.93290  Biso   1.000  C
  C118     1.0000 0.65500  0.39750  0.56710  Biso   1.000  C
  C119     1.0000 0.65500  0.10250  0.06710  Biso   1.000  C
  C120     1.0000 0.34500  0.60250  0.43290  Biso   1.000  C
  H73      1.0000 0.36410  0.91780  0.88680  Biso   1.000  H
  H74      1.0000 0.63590  0.41780  0.61320  Biso   1.000  H
  H75      1.0000 0.63590  0.08220  0.11320  Biso   1.000  H
  H76      1.0000 0.36410  0.58220  0.38680  Biso   1.000  H
  C121     1.0000 0.40470  0.90170  0.99890  Biso   1.000  C
  C122     1.0000 0.59530  0.40170  0.50110  Biso   1.000  C
  C123     1.0000 0.59530  0.09830  0.00110  Biso   1.000  C
  C124     1.0000 0.40470  0.59830  0.49890  Biso   1.000  C
  H77      1.0000 0.46440  0.92370  0.99580  Biso   1.000  H
  H78      1.0000 0.53560  0.42370  0.50420  Biso   1.000  H
  H79      1.0000 0.53560  0.07630  0.00420  Biso   1.000  H
  H80      1.0000 0.46440  0.57630  0.49580  Biso   1.000  H
  C125     1.0000 0.14930  0.87870  0.73040  Biso   1.000  C
  C126     1.0000 0.85070  0.37870  0.76960  Biso   1.000  C
  C127     1.0000 0.85070  0.12130  0.26960  Biso   1.000  C
  C128     1.0000 0.14930  0.62130  0.23040  Biso   1.000  C
  H81      1.0000 0.16750  0.87630  0.68200  Biso   1.000  H
  H82      1.0000 0.83250  0.37630  0.81800  Biso   1.000  H
  H83      1.0000 0.83250  0.12370  0.31800  Biso   1.000  H
  H84      1.0000 0.16750  0.62370  0.18200  Biso   1.000  H
  C129     1.0000 0.21410  0.86300  0.79230  Biso   1.000  C
  C130     1.0000 0.78590  0.36300  0.70770  Biso   1.000  C
  C131     1.0000 0.78590  0.13700  0.20770  Biso   1.000  C
  C132     1.0000 0.21410  0.63700  0.29230  Biso   1.000  C
  H85      1.0000 0.27470  0.85100  0.78550  Biso   1.000  H
  H86      1.0000 0.72530  0.35100  0.71450  Biso   1.000  H
  H87      1.0000 0.72530  0.14900  0.21450  Biso   1.000  H
  H88      1.0000 0.27470  0.64900  0.28550  Biso   1.000  H
  C133     1.0000 0.18840  0.86500  0.86550  Biso   1.000  C
  C134     1.0000 0.81160  0.36500  0.63450  Biso   1.000  C
  C135     1.0000 0.81160  0.13500  0.13450  Biso   1.000  C
  C136     1.0000 0.18840  0.63500  0.36550  Biso   1.000  C
  C137     1.0000 0.09600  0.87650  0.87080  Biso   1.000  C
  C138     1.0000 0.90400  0.37650  0.62920  Biso   1.000  C
  C139     1.0000 0.90400  0.12350  0.12920  Biso   1.000  C
  C140     1.0000 0.09600  0.62350  0.37080  Biso   1.000  C
  H89      1.0000 0.07520  0.87410  0.91820  Biso   1.000  H
  H90      1.0000 0.92480  0.37410  0.58180  Biso   1.000  H
  H91      1.0000 0.92480  0.12590  0.08180  Biso   1.000  H
  H92      1.0000 0.07520  0.62590  0.41820  Biso   1.000  H
  C141     1.0000 0.03540  0.89150  0.80590  Biso   1.000  C
  C142     1.0000 0.96460  0.39150  0.69410  Biso   1.000  C
  C143     1.0000 0.96460  0.10850  0.19410  Biso   1.000  C
  C144     1.0000 0.03540  0.60850  0.30590  Biso   1.000  C
  H93      1.0000 0.97370  0.89780  0.81090  Biso   1.000  H
  H94      1.0000 0.02630  0.39780  0.68910  Biso   1.000  H
  H95      1.0000 0.02630  0.10220  0.18910  Biso   1.000  H
  H96      1.0000 0.97370  0.60220  0.31090  Biso   1.000  H
