data_image0
_cell_length_a       4.535
_cell_length_b       10.913
_cell_length_c       17.142
_cell_angle_alpha    90
_cell_angle_beta     90
_cell_angle_gamma    90

_symmetry_space_group_name_H-M    "P 1"
_symmetry_int_tables_number       1

loop_
  _symmetry_equiv_pos_as_xyz
  'x, y, z'

loop_
  _atom_site_label
  _atom_site_occupancy
  _atom_site_fract_x
  _atom_site_fract_y
  _atom_site_fract_z
  _atom_site_thermal_displace_type
  _atom_site_B_iso_or_equiv
  _atom_site_type_symbol
  Cu1      1.0000 0.99074  0.63055  0.53754  Biso   1.000  Cu
  Cu2      1.0000 0.50926  0.36945  0.03754  Biso   1.000  Cu
  Cu3      1.0000 0.00926  0.13055  0.96246  Biso   1.000  Cu
  Cu4      1.0000 0.49074  0.86945  0.46246  Biso   1.000  Cu
  Cu5      1.0000 0.03970  0.69578  0.17621  Biso   1.000  Cu
  Cu6      1.0000 0.46030  0.30422  0.67621  Biso   1.000  Cu
  Cu7      1.0000 0.96030  0.19578  0.32379  Biso   1.000  Cu
  Cu8      1.0000 0.53970  0.80422  0.82379  Biso   1.000  Cu
  N1       1.0000 0.99030  0.69870  0.29850  Biso   1.000  N
  N2       1.0000 0.50970  0.30130  0.79850  Biso   1.000  N
  N3       1.0000 0.00970  0.19870  0.20150  Biso   1.000  N
  N4       1.0000 0.49030  0.80130  0.70150  Biso   1.000  N
  N5       1.0000 0.95730  0.67740  0.42600  Biso   1.000  N
  N6       1.0000 0.54270  0.32260  0.92600  Biso   1.000  N
  N7       1.0000 0.04270  0.17740  0.07400  Biso   1.000  N
  N8       1.0000 0.45730  0.82260  0.57400  Biso   1.000  N
  N9       1.0000 0.79320  0.77880  0.32590  Biso   1.000  N
  N10      1.0000 0.70680  0.22120  0.82590  Biso   1.000  N
  N11      1.0000 0.20680  0.27880  0.17410  Biso   1.000  N
  N12      1.0000 0.29320  0.72120  0.67410  Biso   1.000  N
  N13      1.0000 0.77260  0.76720  0.40120  Biso   1.000  N
  N14      1.0000 0.72740  0.23280  0.90120  Biso   1.000  N
  N15      1.0000 0.22740  0.26720  0.09880  Biso   1.000  N
  N16      1.0000 0.27260  0.73280  0.59880  Biso   1.000  N
  N17      1.0000 0.78350  0.49870  0.58670  Biso   1.000  N
  N18      1.0000 0.71650  0.50130  0.08670  Biso   1.000  N
  N19      1.0000 0.21650  0.99870  0.91330  Biso   1.000  N
  N20      1.0000 0.28350  0.00130  0.41330  Biso   1.000  N
  N21      1.0000 0.69110  0.33760  0.34090  Biso   1.000  N
  N22      1.0000 0.80890  0.66240  0.84090  Biso   1.000  N
  N23      1.0000 0.30890  0.83760  0.15910  Biso   1.000  N
  N24      1.0000 0.19110  0.16240  0.65910  Biso   1.000  N
  C1       1.0000 0.44820  0.51350  0.28640  Biso   1.000  C
  C2       1.0000 0.05180  0.48650  0.78640  Biso   1.000  C
  C3       1.0000 0.55180  0.01350  0.21360  Biso   1.000  C
  C4       1.0000 0.94820  0.98650  0.71360  Biso   1.000  C
  H1       1.0000 0.42000  0.56300  0.22900  Biso   1.000  H
  H2       1.0000 0.08000  0.43700  0.72900  Biso   1.000  H
  H3       1.0000 0.58000  0.06300  0.27100  Biso   1.000  H
  H4       1.0000 0.92000  0.93700  0.77100  Biso   1.000  H
  C5       1.0000 0.55340  0.36060  0.40830  Biso   1.000  C
  C6       1.0000 0.94660  0.63940  0.90830  Biso   1.000  C
  C7       1.0000 0.44660  0.86060  0.09170  Biso   1.000  C
  C8       1.0000 0.05340  0.13940  0.59170  Biso   1.000  C
  H5       1.0000 0.59150  0.30940  0.45050  Biso   1.000  H
  H6       1.0000 0.90850  0.69060  0.95050  Biso   1.000  H
  H7       1.0000 0.40850  0.80940  0.04950  Biso   1.000  H
  H8       1.0000 0.09150  0.19060  0.54950  Biso   1.000  H
  C9       1.0000 0.35930  0.45530  0.41860  Biso   1.000  C
  C10      1.0000 0.14070  0.54470  0.91860  Biso   1.000  C
  C11      1.0000 0.64070  0.95530  0.08140  Biso   1.000  C
  C12      1.0000 0.85930  0.04470  0.58140  Biso   1.000  C
  H9       1.0000 0.23000  0.43800  0.47100  Biso   1.000  H
  H10      1.0000 0.27000  0.56200  0.97100  Biso   1.000  H
  H11      1.0000 0.77000  0.93800  0.02900  Biso   1.000  H
  H12      1.0000 0.73000  0.06200  0.52900  Biso   1.000  H
  C13      1.0000 0.29970  0.53480  0.35560  Biso   1.000  C
  C14      1.0000 0.20030  0.46520  0.85560  Biso   1.000  C
  C15      1.0000 0.70030  0.03480  0.14440  Biso   1.000  C
  C16      1.0000 0.79970  0.96520  0.64440  Biso   1.000  C
  C17      1.0000 0.63990  0.41620  0.28070  Biso   1.000  C
  C18      1.0000 0.86010  0.58380  0.78070  Biso   1.000  C
  C19      1.0000 0.36010  0.91620  0.21930  Biso   1.000  C
  C20      1.0000 0.13990  0.08380  0.71930  Biso   1.000  C
  H13      1.0000 0.76000  0.39600  0.24100  Biso   1.000  H
  H14      1.0000 0.74000  0.60400  0.74100  Biso   1.000  H
  H15      1.0000 0.24000  0.89600  0.25900  Biso   1.000  H
  H16      1.0000 0.26000  0.10400  0.75900  Biso   1.000  H
  C21      1.0000 0.08890  0.63500  0.36100  Biso   1.000  C
  C22      1.0000 0.41110  0.36500  0.86100  Biso   1.000  C
  C23      1.0000 0.91110  0.13500  0.13900  Biso   1.000  C
  C24      1.0000 0.58890  0.86500  0.63900  Biso   1.000  C
  C25      1.0000 0.65920  0.42170  0.61700  Biso   1.000  C
  C26      1.0000 0.84080  0.57830  0.11700  Biso   1.000  C
  C27      1.0000 0.34080  0.92170  0.88300  Biso   1.000  C
  C28      1.0000 0.15920  0.07830  0.38300  Biso   1.000  C
