data_image0
_cell_length_a       5.792
_cell_length_b       13.877
_cell_length_c       6.548
_cell_angle_alpha    90
_cell_angle_beta     113.95
_cell_angle_gamma    90

_symmetry_space_group_name_H-M    "P 1"
_symmetry_int_tables_number       1

loop_
  _symmetry_equiv_pos_as_xyz
  'x, y, z'

loop_
  _atom_site_label
  _atom_site_occupancy
  _atom_site_fract_x
  _atom_site_fract_y
  _atom_site_fract_z
  _atom_site_thermal_displace_type
  _atom_site_B_iso_or_equiv
  _atom_site_type_symbol
  Cu1      1.0000 0.68559  0.68252  0.13753  Biso   1.000  Cu
  Cu2      1.0000 0.68559  0.81748  0.63753  Biso   1.000  Cu
  Cu3      1.0000 0.31441  0.31748  0.86247  Biso   1.000  Cu
  Cu4      1.0000 0.31441  0.18252  0.36247  Biso   1.000  Cu
  S1       1.0000 0.79110  0.67058  0.82790  Biso   1.000  S
  S2       1.0000 0.79110  0.82942  0.32790  Biso   1.000  S
  S3       1.0000 0.20890  0.32942  0.17210  Biso   1.000  S
  S4       1.0000 0.20890  0.17058  0.67210  Biso   1.000  S
  C1       1.0000 0.10200  0.67010  0.94980  Biso   1.000  C
  C2       1.0000 0.10200  0.82990  0.44980  Biso   1.000  C
  C3       1.0000 0.89800  0.32990  0.05020  Biso   1.000  C
  C4       1.0000 0.89800  0.17010  0.55020  Biso   1.000  C
  N1       1.0000 0.32200  0.66880  0.03130  Biso   1.000  N
  N2       1.0000 0.32200  0.83120  0.53130  Biso   1.000  N
  N3       1.0000 0.67800  0.33120  0.96870  Biso   1.000  N
  N4       1.0000 0.67800  0.16880  0.46870  Biso   1.000  N
  N5       1.0000 0.87720  0.57350  0.34920  Biso   1.000  N
  N6       1.0000 0.87720  0.92650  0.84920  Biso   1.000  N
  N7       1.0000 0.12280  0.42650  0.65080  Biso   1.000  N
  N8       1.0000 0.12280  0.07350  0.15080  Biso   1.000  N
  C5       1.0000 0.75220  0.49850  0.38090  Biso   1.000  C
  C6       1.0000 0.75220  0.00150  0.88090  Biso   1.000  C
  C7       1.0000 0.24780  0.50150  0.61910  Biso   1.000  C
  C8       1.0000 0.24780  0.99850  0.11910  Biso   1.000  C
  H1       1.0000 0.57640  0.49500  0.29890  Biso   1.000  H
  H2       1.0000 0.57640  0.00500  0.79890  Biso   1.000  H
  H3       1.0000 0.42360  0.50500  0.70110  Biso   1.000  H
  H4       1.0000 0.42360  0.99500  0.20110  Biso   1.000  H
  C9       1.0000 0.12850  0.57430  0.47040  Biso   1.000  C
  C10      1.0000 0.12850  0.92570  0.97040  Biso   1.000  C
  C11      1.0000 0.87150  0.42570  0.52960  Biso   1.000  C
  C12      1.0000 0.87150  0.07430  0.02960  Biso   1.000  C
  H5       1.0000 0.22490  0.62570  0.45320  Biso   1.000  H
  H6       1.0000 0.22490  0.87430  0.95320  Biso   1.000  H
  H7       1.0000 0.77510  0.37430  0.54680  Biso   1.000  H
  H8       1.0000 0.77510  0.12570  0.04680  Biso   1.000  H
