data_image0
_cell_length_a       19.5109
_cell_length_b       12.3503
_cell_length_c       19.7712
_cell_angle_alpha    90
_cell_angle_beta     93.122
_cell_angle_gamma    90

_symmetry_space_group_name_H-M    "P 1"
_symmetry_int_tables_number       1

loop_
  _symmetry_equiv_pos_as_xyz
  'x, y, z'

loop_
  _atom_site_label
  _atom_site_occupancy
  _atom_site_fract_x
  _atom_site_fract_y
  _atom_site_fract_z
  _atom_site_thermal_displace_type
  _atom_site_B_iso_or_equiv
  _atom_site_type_symbol
  I1       1.0000 0.66929  0.62598  0.64453  Biso   1.000  I
  I2       1.0000 0.33071  0.62598  0.35547  Biso   1.000  I
  I3       1.0000 0.16929  0.12598  0.64453  Biso   1.000  I
  I4       1.0000 0.83071  0.12598  0.35547  Biso   1.000  I
  Cu1      1.0000 0.72920  0.67752  0.76487  Biso   1.000  Cu
  Cu2      1.0000 0.27080  0.67752  0.23513  Biso   1.000  Cu
  Cu3      1.0000 0.22920  0.17752  0.76487  Biso   1.000  Cu
  Cu4      1.0000 0.77080  0.17752  0.23513  Biso   1.000  Cu
  Cu5      1.0000 0.62951  0.51050  0.74725  Biso   1.000  Cu
  Cu6      1.0000 0.37049  0.51050  0.25275  Biso   1.000  Cu
  Cu7      1.0000 0.12951  0.01050  0.74725  Biso   1.000  Cu
  Cu8      1.0000 0.87049  0.01050  0.25275  Biso   1.000  Cu
  Cu9      1.0000 0.75568  0.46086  0.67785  Biso   1.000  Cu
  Cu10     1.0000 0.24432  0.46086  0.32215  Biso   1.000  Cu
  Cu11     1.0000 0.25568  0.96086  0.67785  Biso   1.000  Cu
  Cu12     1.0000 0.74432  0.96086  0.32215  Biso   1.000  Cu
  N1       1.0000 0.75690  0.83020  0.79310  Biso   1.000  N
  N2       1.0000 0.24310  0.83020  0.20690  Biso   1.000  N
  N3       1.0000 0.25690  0.33020  0.79310  Biso   1.000  N
  N4       1.0000 0.74310  0.33020  0.20690  Biso   1.000  N
  Cu13     1.0000 0.75760  0.49143  0.82813  Biso   1.000  Cu
  Cu14     1.0000 0.24240  0.49143  0.17187  Biso   1.000  Cu
  Cu15     1.0000 0.25760  0.99143  0.82813  Biso   1.000  Cu
  Cu16     1.0000 0.74240  0.99143  0.17187  Biso   1.000  Cu
  I5       1.0000 0.64865  0.61188  0.86543  Biso   1.000  I
  I6       1.0000 0.35135  0.61188  0.13457  Biso   1.000  I
  I7       1.0000 0.14865  0.11188  0.86543  Biso   1.000  I
  I8       1.0000 0.85135  0.11188  0.13457  Biso   1.000  I
  I9       1.0000 0.85198  0.57018  0.74191  Biso   1.000  I
  I10      1.0000 0.14802  0.57018  0.25809  Biso   1.000  I
  I11      1.0000 0.35198  0.07018  0.74191  Biso   1.000  I
  I12      1.0000 0.64802  0.07018  0.25809  Biso   1.000  I
  N5       1.0000 0.52840  0.46400  0.73780  Biso   1.000  N
  N6       1.0000 0.47160  0.46400  0.26220  Biso   1.000  N
  N7       1.0000 0.02840  0.96400  0.73780  Biso   1.000  N
  N8       1.0000 0.97160  0.96400  0.26220  Biso   1.000  N
  I13      1.0000 0.70303  0.31941  0.76834  Biso   1.000  I
  I14      1.0000 0.29697  0.31941  0.23166  Biso   1.000  I
  I15      1.0000 0.20303  0.81941  0.76834  Biso   1.000  I
  I16      1.0000 0.79697  0.81941  0.23166  Biso   1.000  I
  N9       1.0000 0.26970  0.84580  0.60530  Biso   1.000  N
  N10      1.0000 0.73030  0.84580  0.39470  Biso   1.000  N
  N11      1.0000 0.76970  0.34580  0.60530  Biso   1.000  N
  N12      1.0000 0.23030  0.34580  0.39470  Biso   1.000  N
  C1       1.0000 0.73710  0.92300  0.74790  Biso   1.000  C
  C2       1.0000 0.26290  0.92300  0.25210  Biso   1.000  C
  C3       1.0000 0.23710  0.42300  0.74790  Biso   1.000  C
  C4       1.0000 0.76290  0.42300  0.25210  Biso   1.000  C
  C5       1.0000 0.78350  0.87090  0.84820  Biso   1.000  C
  C6       1.0000 0.21650  0.87090  0.15180  Biso   1.000  C
  C7       1.0000 0.28350  0.37090  0.84820  Biso   1.000  C
  C8       1.0000 0.71650  0.37090  0.15180  Biso   1.000  C
  N13      1.0000 0.81550  0.46390  0.91430  Biso   1.000  N
  N14      1.0000 0.18450  0.46390  0.08570  Biso   1.000  N
  N15      1.0000 0.31550  0.96390  0.91430  Biso   1.000  N
  N16      1.0000 0.68450  0.96390  0.08570  Biso   1.000  N
  C9       1.0000 0.51390  0.34980  0.75910  Biso   1.000  C
  C10      1.0000 0.48610  0.34980  0.24090  Biso   1.000  C
  C11      1.0000 0.01390  0.84980  0.75910  Biso   1.000  C
  C12      1.0000 0.98610  0.84980  0.24090  Biso   1.000  C
  C13      1.0000 0.47190  0.50660  0.71680  Biso   1.000  C
  C14      1.0000 0.52810  0.50660  0.28320  Biso   1.000  C
  C15      1.0000 0.97190  0.00660  0.71680  Biso   1.000  C
  C16      1.0000 0.02810  0.00660  0.28320  Biso   1.000  C
  C17      1.0000 0.65920  0.93230  0.73900  Biso   1.000  C
  C18      1.0000 0.34080  0.93230  0.26100  Biso   1.000  C
  C19      1.0000 0.15920  0.43230  0.73900  Biso   1.000  C
  C20      1.0000 0.84080  0.43230  0.26100  Biso   1.000  C
  H1       1.0000 0.75610  0.91190  0.70360  Biso   1.000  H
  H2       1.0000 0.24390  0.91190  0.29640  Biso   1.000  H
  H3       1.0000 0.25610  0.41190  0.70360  Biso   1.000  H
  H4       1.0000 0.74390  0.41190  0.29640  Biso   1.000  H
  C21      1.0000 0.77290  0.01910  0.78310  Biso   1.000  C
  C22      1.0000 0.22710  0.01910  0.21690  Biso   1.000  C
  C23      1.0000 0.27290  0.51910  0.78310  Biso   1.000  C
  C24      1.0000 0.72710  0.51910  0.21690  Biso   1.000  C
  C25      1.0000 0.80550  0.81340  0.91170  Biso   1.000  C
  C26      1.0000 0.19450  0.81340  0.08830  Biso   1.000  C
  C27      1.0000 0.30550  0.31340  0.91170  Biso   1.000  C
  C28      1.0000 0.69450  0.31340  0.08830  Biso   1.000  C
  O1       1.0000 0.79100  0.97990  0.85130  Biso   1.000  O
  O2       1.0000 0.20900  0.97990  0.14870  Biso   1.000  O
  O3       1.0000 0.29100  0.47990  0.85130  Biso   1.000  O
  O4       1.0000 0.70900  0.47990  0.14870  Biso   1.000  O
  C29      1.0000 0.83640  0.52600  0.96460  Biso   1.000  C
  C30      1.0000 0.16360  0.52600  0.03540  Biso   1.000  C
  C31      1.0000 0.33640  0.02600  0.96460  Biso   1.000  C
  C32      1.0000 0.66360  0.02600  0.03540  Biso   1.000  C
  C33      1.0000 0.83980  0.35270  0.93020  Biso   1.000  C
  C34      1.0000 0.16020  0.35270  0.06980  Biso   1.000  C
  C35      1.0000 0.33980  0.85270  0.93020  Biso   1.000  C
  C36      1.0000 0.66020  0.85270  0.06980  Biso   1.000  C
  C37      1.0000 0.52250  0.33820  0.83640  Biso   1.000  C
  C38      1.0000 0.47750  0.33820  0.16360  Biso   1.000  C
  C39      1.0000 0.02250  0.83820  0.83640  Biso   1.000  C
  C40      1.0000 0.97750  0.83820  0.16360  Biso   1.000  C
  H5       1.0000 0.54530  0.30010  0.73760  Biso   1.000  H
  H6       1.0000 0.45470  0.30010  0.26240  Biso   1.000  H
  H7       1.0000 0.04530  0.80010  0.73760  Biso   1.000  H
  H8       1.0000 0.95470  0.80010  0.26240  Biso   1.000  H
  C41      1.0000 0.43970  0.33190  0.72870  Biso   1.000  C
  C42      1.0000 0.56030  0.33190  0.27130  Biso   1.000  C
  C43      1.0000 0.93970  0.83190  0.72870  Biso   1.000  C
  C44      1.0000 0.06030  0.83190  0.27130  Biso   1.000  C
  C45      1.0000 0.45470  0.61890  0.69690  Biso   1.000  C
  C46      1.0000 0.54530  0.61890  0.30310  Biso   1.000  C
  C47      1.0000 0.95470  0.11890  0.69690  Biso   1.000  C
  C48      1.0000 0.04530  0.11890  0.30310  Biso   1.000  C
  O5       1.0000 0.41570  0.44130  0.71320  Biso   1.000  O
  O6       1.0000 0.58430  0.44130  0.28680  Biso   1.000  O
  O7       1.0000 0.91570  0.94130  0.71320  Biso   1.000  O
  O8       1.0000 0.08430  0.94130  0.28680  Biso   1.000  O
  C49      1.0000 0.63760  0.01940  0.68640  Biso   1.000  C
  C50      1.0000 0.36240  0.01940  0.31360  Biso   1.000  C
  C51      1.0000 0.13760  0.51940  0.68640  Biso   1.000  C
  C52      1.0000 0.86240  0.51940  0.31360  Biso   1.000  C
  C53      1.0000 0.62600  0.95470  0.80570  Biso   1.000  C
  C54      1.0000 0.37400  0.95470  0.19430  Biso   1.000  C
  C55      1.0000 0.12600  0.45470  0.80570  Biso   1.000  C
  C56      1.0000 0.87400  0.45470  0.19430  Biso   1.000  C
  H9       1.0000 0.64160  0.86260  0.72180  Biso   1.000  H
  H10      1.0000 0.35840  0.86260  0.27820  Biso   1.000  H
  H11      1.0000 0.14160  0.36260  0.72180  Biso   1.000  H
  H12      1.0000 0.85840  0.36260  0.27820  Biso   1.000  H
  H13      1.0000 0.81360  0.03970  0.76010  Biso   1.000  H
  H14      1.0000 0.18640  0.03970  0.23990  Biso   1.000  H
  H15      1.0000 0.31360  0.53970  0.76010  Biso   1.000  H
  H16      1.0000 0.68640  0.53970  0.23990  Biso   1.000  H
  H17      1.0000 0.74240  0.08090  0.78430  Biso   1.000  H
  H18      1.0000 0.25760  0.08090  0.21570  Biso   1.000  H
  H19      1.0000 0.24240  0.58090  0.78430  Biso   1.000  H
  H20      1.0000 0.75760  0.58090  0.21570  Biso   1.000  H
  C57      1.0000 0.81430  0.86850  0.97270  Biso   1.000  C
  C58      1.0000 0.18570  0.86850  0.02730  Biso   1.000  C
  C59      1.0000 0.31430  0.36850  0.97270  Biso   1.000  C
  C60      1.0000 0.68570  0.36850  0.02730  Biso   1.000  C
  C61      1.0000 0.81450  0.70240  0.90940  Biso   1.000  C
  C62      1.0000 0.18550  0.70240  0.09060  Biso   1.000  C
  C63      1.0000 0.31450  0.20240  0.90940  Biso   1.000  C
  C64      1.0000 0.68550  0.20240  0.09060  Biso   1.000  C
  C65      1.0000 0.83030  0.64370  0.96890  Biso   1.000  C
  C66      1.0000 0.16970  0.64370  0.03110  Biso   1.000  C
  C67      1.0000 0.33030  0.14370  0.96890  Biso   1.000  C
  C68      1.0000 0.66970  0.14370  0.03110  Biso   1.000  C
  O9       1.0000 0.86740  0.47750  0.01890  Biso   1.000  O
  O10      1.0000 0.13260  0.47750  0.98110  Biso   1.000  O
  O11      1.0000 0.36740  0.97750  0.01890  Biso   1.000  O
  O12      1.0000 0.63260  0.97750  0.98110  Biso   1.000  O
  C69      1.0000 0.86390  0.36050  0.00690  Biso   1.000  C
  C70      1.0000 0.13610  0.36050  0.99310  Biso   1.000  C
  C71      1.0000 0.36390  0.86050  0.00690  Biso   1.000  C
  C72      1.0000 0.63610  0.86050  0.99310  Biso   1.000  C
  H21      1.0000 0.80120  0.30220  0.92490  Biso   1.000  H
  H22      1.0000 0.19880  0.30220  0.07510  Biso   1.000  H
  H23      1.0000 0.30120  0.80220  0.92490  Biso   1.000  H
  H24      1.0000 0.69880  0.80220  0.07510  Biso   1.000  H
  C73      1.0000 0.89570  0.31900  0.88340  Biso   1.000  C
  C74      1.0000 0.10430  0.31900  0.11660  Biso   1.000  C
  C75      1.0000 0.39570  0.81900  0.88340  Biso   1.000  C
  C76      1.0000 0.60430  0.81900  0.11660  Biso   1.000  C
  C77      1.0000 0.47730  0.41730  0.87450  Biso   1.000  C
  C78      1.0000 0.52270  0.41730  0.12550  Biso   1.000  C
  C79      1.0000 0.97730  0.91730  0.87450  Biso   1.000  C
  C80      1.0000 0.02270  0.91730  0.12550  Biso   1.000  C
  C81      1.0000 0.50980  0.22060  0.85690  Biso   1.000  C
  C82      1.0000 0.49020  0.22060  0.14310  Biso   1.000  C
  C83      1.0000 0.00980  0.72060  0.85690  Biso   1.000  C
  C84      1.0000 0.99020  0.72060  0.14310  Biso   1.000  C
  H25      1.0000 0.57050  0.35510  0.84970  Biso   1.000  H
  H26      1.0000 0.42950  0.35510  0.15030  Biso   1.000  H
  H27      1.0000 0.07050  0.85510  0.84970  Biso   1.000  H
  H28      1.0000 0.92950  0.85510  0.15030  Biso   1.000  H
  H29      1.0000 0.43960  0.28790  0.68810  Biso   1.000  H
  H30      1.0000 0.56040  0.28790  0.31190  Biso   1.000  H
  H31      1.0000 0.93960  0.78790  0.68810  Biso   1.000  H
  H32      1.0000 0.06040  0.78790  0.31190  Biso   1.000  H
  H33      1.0000 0.41130  0.29730  0.76120  Biso   1.000  H
  H34      1.0000 0.58870  0.29730  0.23880  Biso   1.000  H
  H35      1.0000 0.91130  0.79730  0.76120  Biso   1.000  H
  H36      1.0000 0.08870  0.79730  0.23880  Biso   1.000  H
  C85      1.0000 0.49950  0.70600  0.71590  Biso   1.000  C
  C86      1.0000 0.50050  0.70600  0.28410  Biso   1.000  C
  C87      1.0000 0.99950  0.20600  0.71590  Biso   1.000  C
  C88      1.0000 0.00050  0.20600  0.28410  Biso   1.000  C
  C89      1.0000 0.39340  0.63930  0.66130  Biso   1.000  C
  C90      1.0000 0.60660  0.63930  0.33870  Biso   1.000  C
  C91      1.0000 0.89340  0.13930  0.66130  Biso   1.000  C
  C92      1.0000 0.10660  0.13930  0.33870  Biso   1.000  C
  H37      1.0000 0.65840  0.00420  0.64460  Biso   1.000  H
  H38      1.0000 0.34160  0.00420  0.35540  Biso   1.000  H
  H39      1.0000 0.15840  0.50420  0.64460  Biso   1.000  H
  H40      1.0000 0.84160  0.50420  0.35540  Biso   1.000  H
  H41      1.0000 0.65230  0.08920  0.70290  Biso   1.000  H
  H42      1.0000 0.34770  0.08920  0.29710  Biso   1.000  H
  H43      1.0000 0.15230  0.58920  0.70290  Biso   1.000  H
  H44      1.0000 0.84770  0.58920  0.29710  Biso   1.000  H
  H45      1.0000 0.58860  0.01900  0.67900  Biso   1.000  H
  H46      1.0000 0.41140  0.01900  0.32100  Biso   1.000  H
  H47      1.0000 0.08860  0.51900  0.67900  Biso   1.000  H
  H48      1.0000 0.91140  0.51900  0.32100  Biso   1.000  H
  H49      1.0000 0.63950  0.89960  0.83800  Biso   1.000  H
  H50      1.0000 0.36050  0.89960  0.16200  Biso   1.000  H
  H51      1.0000 0.13950  0.39960  0.83800  Biso   1.000  H
  H52      1.0000 0.86050  0.39960  0.16200  Biso   1.000  H
  H53      1.0000 0.57700  0.95450  0.79830  Biso   1.000  H
  H54      1.0000 0.42300  0.95450  0.20170  Biso   1.000  H
  H55      1.0000 0.07700  0.45450  0.79830  Biso   1.000  H
  H56      1.0000 0.92300  0.45450  0.20170  Biso   1.000  H
  H57      1.0000 0.64080  0.02410  0.82280  Biso   1.000  H
  H58      1.0000 0.35920  0.02410  0.17720  Biso   1.000  H
  H59      1.0000 0.14080  0.52410  0.82280  Biso   1.000  H
  H60      1.0000 0.85920  0.52410  0.17720  Biso   1.000  H
  H61      1.0000 0.80990  0.94350  0.97370  Biso   1.000  H
  H62      1.0000 0.19010  0.94350  0.02630  Biso   1.000  H
  H63      1.0000 0.30990  0.44350  0.97370  Biso   1.000  H
  H64      1.0000 0.69010  0.44350  0.02630  Biso   1.000  H
  C93      1.0000 0.82950  0.81170  0.03200  Biso   1.000  C
  C94      1.0000 0.17050  0.81170  0.96800  Biso   1.000  C
  C95      1.0000 0.32950  0.31170  0.03200  Biso   1.000  C
  C96      1.0000 0.67050  0.31170  0.96800  Biso   1.000  C
  H65      1.0000 0.81010  0.66640  0.86810  Biso   1.000  H
  H66      1.0000 0.18990  0.66640  0.13190  Biso   1.000  H
  H67      1.0000 0.31010  0.16640  0.86810  Biso   1.000  H
  H68      1.0000 0.68990  0.16640  0.13190  Biso   1.000  H
  C97      1.0000 0.83800  0.69920  0.03060  Biso   1.000  C
  C98      1.0000 0.16200  0.69920  0.96940  Biso   1.000  C
  C99      1.0000 0.33800  0.19920  0.03060  Biso   1.000  C
  C100     1.0000 0.66200  0.19920  0.96940  Biso   1.000  C
  H69      1.0000 0.83110  0.32650  0.03530  Biso   1.000  H
  H70      1.0000 0.16890  0.32650  0.96470  Biso   1.000  H
  H71      1.0000 0.33110  0.82650  0.03530  Biso   1.000  H
  H72      1.0000 0.66890  0.82650  0.96470  Biso   1.000  H
  H73      1.0000 0.90850  0.32690  0.01540  Biso   1.000  H
  H74      1.0000 0.09150  0.32690  0.98460  Biso   1.000  H
  H75      1.0000 0.40850  0.82690  0.01540  Biso   1.000  H
  H76      1.0000 0.59150  0.82690  0.98460  Biso   1.000  H
  H77      1.0000 0.87600  0.32430  0.83690  Biso   1.000  H
  H78      1.0000 0.12400  0.32430  0.16310  Biso   1.000  H
  H79      1.0000 0.37600  0.82430  0.83690  Biso   1.000  H
  H80      1.0000 0.62400  0.82430  0.16310  Biso   1.000  H
  C101     1.0000 0.91590  0.19980  0.89570  Biso   1.000  C
  C102     1.0000 0.08410  0.19980  0.10430  Biso   1.000  C
  C103     1.0000 0.41590  0.69980  0.89570  Biso   1.000  C
  C104     1.0000 0.58410  0.69980  0.10430  Biso   1.000  C
  C105     1.0000 0.95890  0.39180  0.88840  Biso   1.000  C
  C106     1.0000 0.04110  0.39180  0.11160  Biso   1.000  C
  C107     1.0000 0.45890  0.89180  0.88840  Biso   1.000  C
  C108     1.0000 0.54110  0.89180  0.11160  Biso   1.000  C
  H81      1.0000 0.48460  0.40630  0.92240  Biso   1.000  H
  H82      1.0000 0.51540  0.40630  0.07760  Biso   1.000  H
  H83      1.0000 0.98460  0.90630  0.92240  Biso   1.000  H
  H84      1.0000 0.01540  0.90630  0.07760  Biso   1.000  H
  H85      1.0000 0.42990  0.40460  0.86130  Biso   1.000  H
  H86      1.0000 0.57010  0.40460  0.13870  Biso   1.000  H
  H87      1.0000 0.92990  0.90460  0.86130  Biso   1.000  H
  H88      1.0000 0.07010  0.90460  0.13870  Biso   1.000  H
  H89      1.0000 0.48920  0.49040  0.86340  Biso   1.000  H
  H90      1.0000 0.51080  0.49040  0.13660  Biso   1.000  H
  H91      1.0000 0.98920  0.99040  0.86340  Biso   1.000  H
  H92      1.0000 0.01080  0.99040  0.13660  Biso   1.000  H
  H93      1.0000 0.51510  0.21410  0.90530  Biso   1.000  H
  H94      1.0000 0.48490  0.21410  0.09470  Biso   1.000  H
  H95      1.0000 0.01510  0.71410  0.90530  Biso   1.000  H
  H96      1.0000 0.98490  0.71410  0.09470  Biso   1.000  H
  H97      1.0000 0.54240  0.17430  0.83640  Biso   1.000  H
  H98      1.0000 0.45760  0.17430  0.16360  Biso   1.000  H
  H99      1.0000 0.04240  0.67430  0.83640  Biso   1.000  H
  H100     1.0000 0.95760  0.67430  0.16360  Biso   1.000  H
  H101     1.0000 0.46410  0.19970  0.84180  Biso   1.000  H
  H102     1.0000 0.53590  0.19970  0.15820  Biso   1.000  H
  H103     1.0000 0.96410  0.69970  0.84180  Biso   1.000  H
  H104     1.0000 0.03590  0.69970  0.15820  Biso   1.000  H
  H105     1.0000 0.54110  0.69360  0.73980  Biso   1.000  H
  H106     1.0000 0.45890  0.69360  0.26020  Biso   1.000  H
  H107     1.0000 0.04110  0.19360  0.73980  Biso   1.000  H
  H108     1.0000 0.95890  0.19360  0.26020  Biso   1.000  H
  C109     1.0000 0.47910  0.81070  0.69740  Biso   1.000  C
  C110     1.0000 0.52090  0.81070  0.30260  Biso   1.000  C
  C111     1.0000 0.97910  0.31070  0.69740  Biso   1.000  C
  C112     1.0000 0.02090  0.31070  0.30260  Biso   1.000  C
  C113     1.0000 0.37400  0.74380  0.64310  Biso   1.000  C
  C114     1.0000 0.62600  0.74380  0.35690  Biso   1.000  C
  C115     1.0000 0.87400  0.24380  0.64310  Biso   1.000  C
  C116     1.0000 0.12600  0.24380  0.35690  Biso   1.000  C
  H109     1.0000 0.36440  0.58190  0.64930  Biso   1.000  H
  H110     1.0000 0.63560  0.58190  0.35070  Biso   1.000  H
  H111     1.0000 0.86440  0.08190  0.64930  Biso   1.000  H
  H112     1.0000 0.13560  0.08190  0.35070  Biso   1.000  H
  H113     1.0000 0.83410  0.84850  0.07310  Biso   1.000  H
  H114     1.0000 0.16590  0.84850  0.92690  Biso   1.000  H
  H115     1.0000 0.33410  0.34850  0.07310  Biso   1.000  H
  H116     1.0000 0.66590  0.34850  0.92690  Biso   1.000  H
  H117     1.0000 0.84870  0.66150  0.07050  Biso   1.000  H
  H118     1.0000 0.15130  0.66150  0.92950  Biso   1.000  H
  H119     1.0000 0.34870  0.16150  0.07050  Biso   1.000  H
  H120     1.0000 0.65130  0.16150  0.92950  Biso   1.000  H
  H121     1.0000 0.87550  0.15540  0.89220  Biso   1.000  H
  H122     1.0000 0.12450  0.15540  0.10780  Biso   1.000  H
  H123     1.0000 0.37550  0.65540  0.89220  Biso   1.000  H
  H124     1.0000 0.62450  0.65540  0.10780  Biso   1.000  H
  H125     1.0000 0.93770  0.19240  0.94020  Biso   1.000  H
  H126     1.0000 0.06230  0.19240  0.05980  Biso   1.000  H
  H127     1.0000 0.43770  0.69240  0.94020  Biso   1.000  H
  H128     1.0000 0.56230  0.69240  0.05980  Biso   1.000  H
  H129     1.0000 0.94700  0.17750  0.86250  Biso   1.000  H
  H130     1.0000 0.05300  0.17750  0.13750  Biso   1.000  H
  H131     1.0000 0.44700  0.67750  0.86250  Biso   1.000  H
  H132     1.0000 0.55300  0.67750  0.13750  Biso   1.000  H
  H133     1.0000 0.99170  0.36660  0.85760  Biso   1.000  H
  H134     1.0000 0.00830  0.36660  0.14240  Biso   1.000  H
  H135     1.0000 0.49170  0.86660  0.85760  Biso   1.000  H
  H136     1.0000 0.50830  0.86660  0.14240  Biso   1.000  H
  H137     1.0000 0.97900  0.38980  0.93380  Biso   1.000  H
  H138     1.0000 0.02100  0.38980  0.06620  Biso   1.000  H
  H139     1.0000 0.47900  0.88980  0.93380  Biso   1.000  H
  H140     1.0000 0.52100  0.88980  0.06620  Biso   1.000  H
  H141     1.0000 0.94580  0.46470  0.87700  Biso   1.000  H
  H142     1.0000 0.05420  0.46470  0.12300  Biso   1.000  H
  H143     1.0000 0.44580  0.96470  0.87700  Biso   1.000  H
  H144     1.0000 0.55420  0.96470  0.12300  Biso   1.000  H
  H145     1.0000 0.50770  0.86870  0.70920  Biso   1.000  H
  H146     1.0000 0.49230  0.86870  0.29080  Biso   1.000  H
  H147     1.0000 0.00770  0.36870  0.70920  Biso   1.000  H
  H148     1.0000 0.99230  0.36870  0.29080  Biso   1.000  H
  C117     1.0000 0.41760  0.83000  0.66210  Biso   1.000  C
  C118     1.0000 0.58240  0.83000  0.33790  Biso   1.000  C
  C119     1.0000 0.91760  0.33000  0.66210  Biso   1.000  C
  C120     1.0000 0.08240  0.33000  0.33790  Biso   1.000  C
  C121     1.0000 0.30750  0.76330  0.60620  Biso   1.000  C
  C122     1.0000 0.69250  0.76330  0.39380  Biso   1.000  C
  C123     1.0000 0.80750  0.26330  0.60620  Biso   1.000  C
  C124     1.0000 0.19250  0.26330  0.39380  Biso   1.000  C
  H149     1.0000 0.40500  0.90060  0.65070  Biso   1.000  H
  H150     1.0000 0.59500  0.90060  0.34930  Biso   1.000  H
  H151     1.0000 0.90500  0.40060  0.65070  Biso   1.000  H
  H152     1.0000 0.09500  0.40060  0.34930  Biso   1.000  H
  O13      1.0000 0.28610  0.67600  0.56900  Biso   1.000  O
  O14      1.0000 0.71390  0.67600  0.43100  Biso   1.000  O
  O15      1.0000 0.78610  0.17600  0.56900  Biso   1.000  O
  O16      1.0000 0.21390  0.17600  0.43100  Biso   1.000  O
  C125     1.0000 0.20740  0.82320  0.56050  Biso   1.000  C
  C126     1.0000 0.79260  0.82320  0.43950  Biso   1.000  C
  C127     1.0000 0.70740  0.32320  0.56050  Biso   1.000  C
  C128     1.0000 0.29260  0.32320  0.43950  Biso   1.000  C
  C129     1.0000 0.21830  0.70330  0.53890  Biso   1.000  C
  C130     1.0000 0.78170  0.70330  0.46110  Biso   1.000  C
  C131     1.0000 0.71830  0.20330  0.53890  Biso   1.000  C
  C132     1.0000 0.28170  0.20330  0.46110  Biso   1.000  C
  H153     1.0000 0.16720  0.82630  0.58800  Biso   1.000  H
  H154     1.0000 0.83280  0.82630  0.41200  Biso   1.000  H
  H155     1.0000 0.66720  0.32630  0.58800  Biso   1.000  H
  H156     1.0000 0.33280  0.32630  0.41200  Biso   1.000  H
  C133     1.0000 0.19640  0.90250  0.50200  Biso   1.000  C
  C134     1.0000 0.80360  0.90250  0.49800  Biso   1.000  C
  C135     1.0000 0.69640  0.40250  0.50200  Biso   1.000  C
  C136     1.0000 0.30360  0.40250  0.49800  Biso   1.000  C
  H157     1.0000 0.18330  0.65680  0.55630  Biso   1.000  H
  H158     1.0000 0.81670  0.65680  0.44370  Biso   1.000  H
  H159     1.0000 0.68330  0.15680  0.55630  Biso   1.000  H
  H160     1.0000 0.31670  0.15680  0.44370  Biso   1.000  H
  H161     1.0000 0.21720  0.69670  0.49000  Biso   1.000  H
  H162     1.0000 0.78280  0.69670  0.51000  Biso   1.000  H
  H163     1.0000 0.71720  0.19670  0.49000  Biso   1.000  H
  H164     1.0000 0.28280  0.19670  0.51000  Biso   1.000  H
  H165     1.0000 0.19100  0.97460  0.52160  Biso   1.000  H
  H166     1.0000 0.80900  0.97460  0.47840  Biso   1.000  H
  H167     1.0000 0.69100  0.47460  0.52160  Biso   1.000  H
  H168     1.0000 0.30900  0.47460  0.47840  Biso   1.000  H
  C137     1.0000 0.12760  0.87480  0.46100  Biso   1.000  C
  C138     1.0000 0.87240  0.87480  0.53900  Biso   1.000  C
  C139     1.0000 0.62760  0.37480  0.46100  Biso   1.000  C
  C140     1.0000 0.37240  0.37480  0.53900  Biso   1.000  C
  C141     1.0000 0.25780  0.90680  0.45890  Biso   1.000  C
  C142     1.0000 0.74220  0.90680  0.54110  Biso   1.000  C
  C143     1.0000 0.75780  0.40680  0.45890  Biso   1.000  C
  C144     1.0000 0.24220  0.40680  0.54110  Biso   1.000  C
  H169     1.0000 0.09060  0.87440  0.49110  Biso   1.000  H
  H170     1.0000 0.90940  0.87440  0.50890  Biso   1.000  H
  H171     1.0000 0.59060  0.37440  0.49110  Biso   1.000  H
  H172     1.0000 0.40940  0.37440  0.50890  Biso   1.000  H
  H173     1.0000 0.13130  0.80480  0.44050  Biso   1.000  H
  H174     1.0000 0.86870  0.80480  0.55950  Biso   1.000  H
  H175     1.0000 0.63130  0.30480  0.44050  Biso   1.000  H
  H176     1.0000 0.36870  0.30480  0.55950  Biso   1.000  H
  H177     1.0000 0.11880  0.92830  0.42640  Biso   1.000  H
  H178     1.0000 0.88120  0.92830  0.57360  Biso   1.000  H
  H179     1.0000 0.61880  0.42830  0.42640  Biso   1.000  H
  H180     1.0000 0.38120  0.42830  0.57360  Biso   1.000  H
  H181     1.0000 0.24960  0.95870  0.42330  Biso   1.000  H
  H182     1.0000 0.75040  0.95870  0.57670  Biso   1.000  H
  H183     1.0000 0.74960  0.45870  0.42330  Biso   1.000  H
  H184     1.0000 0.25040  0.45870  0.57670  Biso   1.000  H
  H185     1.0000 0.26520  0.83670  0.43970  Biso   1.000  H
  H186     1.0000 0.73480  0.83670  0.56030  Biso   1.000  H
  H187     1.0000 0.76520  0.33670  0.43970  Biso   1.000  H
  H188     1.0000 0.23480  0.33670  0.56030  Biso   1.000  H
  H189     1.0000 0.29760  0.92780  0.48650  Biso   1.000  H
  H190     1.0000 0.70240  0.92780  0.51350  Biso   1.000  H
  H191     1.0000 0.79760  0.42780  0.48650  Biso   1.000  H
  H192     1.0000 0.20240  0.42780  0.51350  Biso   1.000  H
  C145     1.0000 0.47800  0.11900  0.49700  Biso   1.000  C
  C146     1.0000 0.52200  0.11900  0.50300  Biso   1.000  C
  C147     1.0000 0.97800  0.61900  0.49700  Biso   1.000  C
  C148     1.0000 0.02200  0.61900  0.50300  Biso   1.000  C
  H193     1.0000 0.51450  0.17040  0.49420  Biso   1.000  H
  H194     1.0000 0.48550  0.17040  0.50580  Biso   1.000  H
  H195     1.0000 0.01450  0.67040  0.49420  Biso   1.000  H
  H196     1.0000 0.98550  0.67040  0.50580  Biso   1.000  H
  H197     1.0000 0.46750  0.10850  0.54310  Biso   1.000  H
  H198     1.0000 0.53250  0.10850  0.45690  Biso   1.000  H
  H199     1.0000 0.96750  0.60850  0.54310  Biso   1.000  H
  H200     1.0000 0.03250  0.60850  0.45690  Biso   1.000  H
  H201     1.0000 0.43810  0.14490  0.47130  Biso   1.000  H
  H202     1.0000 0.56190  0.14490  0.52870  Biso   1.000  H
  H203     1.0000 0.93810  0.64490  0.47130  Biso   1.000  H
  H204     1.0000 0.06190  0.64490  0.52870  Biso   1.000  H
  C149     1.0000 0.50000  0.01000  0.46700  Biso   1.000  C
  C150     1.0000 0.50000  0.01000  0.53300  Biso   1.000  C
  C151     1.0000 0.00000  0.51000  0.46700  Biso   1.000  C
  C152     1.0000 0.00000  0.51000  0.53300  Biso   1.000  C
  H205     1.0000 0.49180  0.01320  0.41800  Biso   1.000  H
  H206     1.0000 0.50820  0.01320  0.58200  Biso   1.000  H
  H207     1.0000 0.99180  0.51320  0.41800  Biso   1.000  H
  H208     1.0000 0.00820  0.51320  0.58200  Biso   1.000  H
  H209     1.0000 0.54960  0.00310  0.47550  Biso   1.000  H
  H210     1.0000 0.45040  0.00310  0.52450  Biso   1.000  H
  H211     1.0000 0.04960  0.50310  0.47550  Biso   1.000  H
  H212     1.0000 0.95040  0.50310  0.52450  Biso   1.000  H
  C153     1.0000 0.46600  0.90800  0.49300  Biso   1.000  C
  C154     1.0000 0.53400  0.90800  0.50700  Biso   1.000  C
  C155     1.0000 0.96600  0.40800  0.49300  Biso   1.000  C
  C156     1.0000 0.03400  0.40800  0.50700  Biso   1.000  C
  H213     1.0000 0.43140  0.88430  0.45930  Biso   1.000  H
  H214     1.0000 0.56860  0.88430  0.54070  Biso   1.000  H
  H215     1.0000 0.93140  0.38430  0.45930  Biso   1.000  H
  H216     1.0000 0.06860  0.38430  0.54070  Biso   1.000  H
  H217     1.0000 0.44400  0.92530  0.53400  Biso   1.000  H
  H218     1.0000 0.55600  0.92530  0.46600  Biso   1.000  H
  H219     1.0000 0.94400  0.42530  0.53400  Biso   1.000  H
  H220     1.0000 0.05600  0.42530  0.46600  Biso   1.000  H
  C157     1.0000 0.51800  0.81300  0.50750  Biso   1.000  C
  C158     1.0000 0.48200  0.81300  0.49250  Biso   1.000  C
  C159     1.0000 0.01800  0.31300  0.50750  Biso   1.000  C
  C160     1.0000 0.98200  0.31300  0.49250  Biso   1.000  C
  H221     1.0000 0.55840  0.82170  0.48140  Biso   1.000  H
  H222     1.0000 0.44160  0.82170  0.51860  Biso   1.000  H
  H223     1.0000 0.05840  0.32170  0.48140  Biso   1.000  H
  H224     1.0000 0.94160  0.32170  0.51860  Biso   1.000  H
  H225     1.0000 0.53230  0.81060  0.55520  Biso   1.000  H
  H226     1.0000 0.46770  0.81060  0.44480  Biso   1.000  H
  H227     1.0000 0.03230  0.31060  0.55520  Biso   1.000  H
  H228     1.0000 0.96770  0.31060  0.44480  Biso   1.000  H
  C161     1.0000 0.47800  0.71000  0.48600  Biso   1.000  C
  C162     1.0000 0.52200  0.71000  0.51400  Biso   1.000  C
  C163     1.0000 0.97800  0.21000  0.48600  Biso   1.000  C
  C164     1.0000 0.02200  0.21000  0.51400  Biso   1.000  C
  H229     1.0000 0.43390  0.71140  0.50630  Biso   1.000  H
  H230     1.0000 0.56610  0.71140  0.49370  Biso   1.000  H
  H231     1.0000 0.93390  0.21140  0.50630  Biso   1.000  H
  H232     1.0000 0.06610  0.21140  0.49370  Biso   1.000  H
  H233     1.0000 0.46950  0.71140  0.43720  Biso   1.000  H
  H234     1.0000 0.53050  0.71140  0.56280  Biso   1.000  H
  H235     1.0000 0.96950  0.21140  0.43720  Biso   1.000  H
  H236     1.0000 0.03050  0.21140  0.56280  Biso   1.000  H
  C165     1.0000 0.51500  0.60500  0.50600  Biso   1.000  C
  C166     1.0000 0.48500  0.60500  0.49400  Biso   1.000  C
  C167     1.0000 0.01500  0.10500  0.50600  Biso   1.000  C
  C168     1.0000 0.98500  0.10500  0.49400  Biso   1.000  C
  H237     1.0000 0.48670  0.54470  0.49160  Biso   1.000  H
  H238     1.0000 0.51330  0.54470  0.50840  Biso   1.000  H
  H239     1.0000 0.98670  0.04470  0.49160  Biso   1.000  H
  H240     1.0000 0.01330  0.04470  0.50840  Biso   1.000  H
  H241     1.0000 0.52330  0.60300  0.55410  Biso   1.000  H
  H242     1.0000 0.47670  0.60300  0.44590  Biso   1.000  H
  H243     1.0000 0.02330  0.10300  0.55410  Biso   1.000  H
  H244     1.0000 0.97670  0.10300  0.44590  Biso   1.000  H
  H245     1.0000 0.55770  0.60170  0.48430  Biso   1.000  H
  H246     1.0000 0.44230  0.60170  0.51570  Biso   1.000  H
  H247     1.0000 0.05770  0.10170  0.48430  Biso   1.000  H
  H248     1.0000 0.94230  0.10170  0.51570  Biso   1.000  H
