data_image0
_cell_length_a       8.852
_cell_length_b       17.697
_cell_length_c       12.999
_cell_angle_alpha    90
_cell_angle_beta     93.68
_cell_angle_gamma    90

_symmetry_space_group_name_H-M    "P 1"
_symmetry_int_tables_number       1

loop_
  _symmetry_equiv_pos_as_xyz
  'x, y, z'

loop_
  _atom_site_label
  _atom_site_occupancy
  _atom_site_fract_x
  _atom_site_fract_y
  _atom_site_fract_z
  _atom_site_thermal_displace_type
  _atom_site_B_iso_or_equiv
  _atom_site_type_symbol
  C1       1.0000 0.83760  0.81640  0.33870  Biso   1.000  C
  C2       1.0000 0.66240  0.31640  0.16130  Biso   1.000  C
  C3       1.0000 0.16240  0.18360  0.66130  Biso   1.000  C
  C4       1.0000 0.33760  0.68360  0.83870  Biso   1.000  C
  H1       1.0000 0.84500  0.84870  0.27990  Biso   1.000  H
  H2       1.0000 0.65500  0.34870  0.22010  Biso   1.000  H
  H3       1.0000 0.15500  0.15130  0.72010  Biso   1.000  H
  H4       1.0000 0.34500  0.65130  0.77990  Biso   1.000  H
  H5       1.0000 0.83420  0.76460  0.31670  Biso   1.000  H
  H6       1.0000 0.66580  0.26460  0.18330  Biso   1.000  H
  H7       1.0000 0.16580  0.23540  0.68330  Biso   1.000  H
  H8       1.0000 0.33420  0.73540  0.81670  Biso   1.000  H
  H9       1.0000 0.92400  0.82410  0.38590  Biso   1.000  H
  H10      1.0000 0.57600  0.32410  0.11410  Biso   1.000  H
  H11      1.0000 0.07600  0.17590  0.61410  Biso   1.000  H
  H12      1.0000 0.42400  0.67590  0.88590  Biso   1.000  H
  C5       1.0000 0.69390  0.83530  0.39190  Biso   1.000  C
  C6       1.0000 0.80610  0.33530  0.10810  Biso   1.000  C
  C7       1.0000 0.30610  0.16470  0.60810  Biso   1.000  C
  C8       1.0000 0.19390  0.66470  0.89190  Biso   1.000  C
  H13      1.0000 0.60740  0.81680  0.34960  Biso   1.000  H
  H14      1.0000 0.89260  0.31680  0.15040  Biso   1.000  H
  H15      1.0000 0.39260  0.18320  0.65040  Biso   1.000  H
  H16      1.0000 0.10740  0.68320  0.84960  Biso   1.000  H
  H17      1.0000 0.69610  0.80860  0.45720  Biso   1.000  H
  H18      1.0000 0.80390  0.30860  0.04280  Biso   1.000  H
  H19      1.0000 0.30390  0.19140  0.54280  Biso   1.000  H
  H20      1.0000 0.19610  0.69140  0.95720  Biso   1.000  H
  C9       1.0000 0.67180  0.91820  0.41170  Biso   1.000  C
  C10      1.0000 0.82820  0.41820  0.08830  Biso   1.000  C
  C11      1.0000 0.32820  0.08180  0.58830  Biso   1.000  C
  C12      1.0000 0.17180  0.58180  0.91170  Biso   1.000  C
  H21      1.0000 0.57910  0.92560  0.44650  Biso   1.000  H
  H22      1.0000 0.92090  0.42560  0.05350  Biso   1.000  H
  H23      1.0000 0.42090  0.07440  0.55350  Biso   1.000  H
  H24      1.0000 0.07910  0.57440  0.94650  Biso   1.000  H
  H25      1.0000 0.66220  0.94510  0.34660  Biso   1.000  H
  H26      1.0000 0.83780  0.44510  0.15340  Biso   1.000  H
  H27      1.0000 0.33780  0.05490  0.65340  Biso   1.000  H
  H28      1.0000 0.16220  0.55490  0.84660  Biso   1.000  H
  C13      1.0000 0.77270  0.05290  0.49630  Biso   1.000  C
  C14      1.0000 0.72730  0.55290  0.00370  Biso   1.000  C
  C15      1.0000 0.22730  0.94710  0.50370  Biso   1.000  C
  C16      1.0000 0.27270  0.44710  0.99630  Biso   1.000  C
  H29      1.0000 0.83710  0.08250  0.45410  Biso   1.000  H
  H30      1.0000 0.66290  0.58250  0.04590  Biso   1.000  H
  H31      1.0000 0.16290  0.91750  0.54590  Biso   1.000  H
  H32      1.0000 0.33710  0.41750  0.95410  Biso   1.000  H
  H33      1.0000 0.67000  0.05700  0.46600  Biso   1.000  H
  H34      1.0000 0.83000  0.55700  0.03400  Biso   1.000  H
  H35      1.0000 0.33000  0.94300  0.53400  Biso   1.000  H
  H36      1.0000 0.17000  0.44300  0.96600  Biso   1.000  H
  C17      1.0000 0.77800  0.08660  0.60060  Biso   1.000  C
  C18      1.0000 0.72200  0.58660  0.89940  Biso   1.000  C
  C19      1.0000 0.22200  0.91340  0.39940  Biso   1.000  C
  C20      1.0000 0.27800  0.41340  0.10060  Biso   1.000  C
  C21      1.0000 0.81480  0.08040  0.77650  Biso   1.000  C
  C22      1.0000 0.68520  0.58040  0.72350  Biso   1.000  C
  C23      1.0000 0.18520  0.91960  0.22350  Biso   1.000  C
  C24      1.0000 0.31480  0.41960  0.27650  Biso   1.000  C
  C25      1.0000 0.85360  0.03780  0.86640  Biso   1.000  C
  C26      1.0000 0.64640  0.53780  0.63360  Biso   1.000  C
  C27      1.0000 0.14640  0.96220  0.13360  Biso   1.000  C
  C28      1.0000 0.35360  0.46220  0.36640  Biso   1.000  C
  H37      1.0000 0.87710  0.98670  0.86170  Biso   1.000  H
  H38      1.0000 0.62290  0.48670  0.63830  Biso   1.000  H
  H39      1.0000 0.12290  0.01330  0.13830  Biso   1.000  H
  H40      1.0000 0.37710  0.51330  0.36170  Biso   1.000  H
  C29      1.0000 0.85610  0.07250  0.95970  Biso   1.000  C
  C30      1.0000 0.64390  0.57250  0.54030  Biso   1.000  C
  C31      1.0000 0.14390  0.92750  0.04030  Biso   1.000  C
  C32      1.0000 0.35610  0.42750  0.45970  Biso   1.000  C
  H41      1.0000 0.88180  0.04500  0.01930  Biso   1.000  H
  H42      1.0000 0.61820  0.54500  0.48070  Biso   1.000  H
  H43      1.0000 0.11820  0.95500  0.98070  Biso   1.000  H
  H44      1.0000 0.38180  0.45500  0.51930  Biso   1.000  H
  C33      1.0000 0.82030  0.14900  0.96700  Biso   1.000  C
  C34      1.0000 0.67970  0.64900  0.53300  Biso   1.000  C
  C35      1.0000 0.17970  0.85100  0.03300  Biso   1.000  C
  C36      1.0000 0.32030  0.35100  0.46700  Biso   1.000  C
  H45      1.0000 0.82090  0.17150  0.03170  Biso   1.000  H
  H46      1.0000 0.67910  0.67150  0.46830  Biso   1.000  H
  H47      1.0000 0.17910  0.82850  0.96830  Biso   1.000  H
  H48      1.0000 0.32090  0.32850  0.53170  Biso   1.000  H
  C37      1.0000 0.78530  0.19070  0.88300  Biso   1.000  C
  C38      1.0000 0.71470  0.69070  0.61700  Biso   1.000  C
  C39      1.0000 0.21470  0.80930  0.11700  Biso   1.000  C
  C40      1.0000 0.28530  0.30930  0.38300  Biso   1.000  C
  H49      1.0000 0.76360  0.24180  0.88930  Biso   1.000  H
  H50      1.0000 0.73640  0.74180  0.61070  Biso   1.000  H
  H51      1.0000 0.23640  0.75820  0.11070  Biso   1.000  H
  H52      1.0000 0.26360  0.25820  0.38930  Biso   1.000  H
  C41      1.0000 0.78150  0.15710  0.78600  Biso   1.000  C
  C42      1.0000 0.71850  0.65710  0.71400  Biso   1.000  C
  C43      1.0000 0.21850  0.84290  0.21400  Biso   1.000  C
  C44      1.0000 0.28150  0.34290  0.28600  Biso   1.000  C
  C45      1.0000 0.74310  0.16590  0.60980  Biso   1.000  C
  C46      1.0000 0.75690  0.66590  0.89020  Biso   1.000  C
  C47      1.0000 0.25690  0.83410  0.39020  Biso   1.000  C
  C48      1.0000 0.24310  0.33410  0.10980  Biso   1.000  C
  C49      1.0000 0.70270  0.21040  0.51360  Biso   1.000  C
  C50      1.0000 0.79730  0.71040  0.98640  Biso   1.000  C
  C51      1.0000 0.29730  0.78960  0.48640  Biso   1.000  C
  C52      1.0000 0.20270  0.28960  0.01360  Biso   1.000  C
  H53      1.0000 0.60030  0.19700  0.48920  Biso   1.000  H
  H54      1.0000 0.89970  0.69700  0.01080  Biso   1.000  H
  H55      1.0000 0.39970  0.80300  0.51080  Biso   1.000  H
  H56      1.0000 0.10030  0.30300  0.98920  Biso   1.000  H
  H57      1.0000 0.76930  0.19470  0.46110  Biso   1.000  H
  H58      1.0000 0.73070  0.69470  0.03890  Biso   1.000  H
  H59      1.0000 0.23070  0.80530  0.53890  Biso   1.000  H
  H60      1.0000 0.26930  0.30530  0.96110  Biso   1.000  H
  C53      1.0000 0.90840  0.32680  0.49860  Biso   1.000  C
  C54      1.0000 0.59160  0.82680  0.00140  Biso   1.000  C
  C55      1.0000 0.09160  0.67320  0.50140  Biso   1.000  C
  C56      1.0000 0.40840  0.17320  0.99860  Biso   1.000  C
  H61      1.0000 0.97430  0.31110  0.55710  Biso   1.000  H
  H62      1.0000 0.52570  0.81110  0.94290  Biso   1.000  H
  H63      1.0000 0.02570  0.68890  0.44290  Biso   1.000  H
  H64      1.0000 0.47430  0.18890  0.05710  Biso   1.000  H
  H65      1.0000 0.93360  0.29760  0.43890  Biso   1.000  H
  H66      1.0000 0.56640  0.79760  0.06110  Biso   1.000  H
  H67      1.0000 0.06640  0.70240  0.56110  Biso   1.000  H
  H68      1.0000 0.43360  0.20240  0.93890  Biso   1.000  H
  C57      1.0000 0.92990  0.41100  0.47790  Biso   1.000  C
  C58      1.0000 0.57010  0.91100  0.02210  Biso   1.000  C
  C59      1.0000 0.07010  0.58900  0.52210  Biso   1.000  C
  C60      1.0000 0.42990  0.08900  0.97790  Biso   1.000  C
  H69      1.0000 0.88440  0.43970  0.53140  Biso   1.000  H
  H70      1.0000 0.61560  0.93970  0.96860  Biso   1.000  H
  H71      1.0000 0.11560  0.56030  0.46860  Biso   1.000  H
  H72      1.0000 0.38440  0.06030  0.03140  Biso   1.000  H
  H73      1.0000 0.03730  0.42220  0.48190  Biso   1.000  H
  H74      1.0000 0.46270  0.92220  0.01810  Biso   1.000  H
  H75      1.0000 0.96270  0.57780  0.51810  Biso   1.000  H
  H76      1.0000 0.53730  0.07780  0.98190  Biso   1.000  H
  C61      1.0000 0.86240  0.43590  0.37580  Biso   1.000  C
  C62      1.0000 0.63760  0.93590  0.12420  Biso   1.000  C
  C63      1.0000 0.13760  0.56410  0.62420  Biso   1.000  C
  C64      1.0000 0.36240  0.06410  0.87580  Biso   1.000  C
  H77      1.0000 0.90080  0.40500  0.32270  Biso   1.000  H
  H78      1.0000 0.59920  0.90500  0.17730  Biso   1.000  H
  H79      1.0000 0.09920  0.59500  0.67730  Biso   1.000  H
  H80      1.0000 0.40080  0.09500  0.82270  Biso   1.000  H
  H81      1.0000 0.88860  0.48770  0.36440  Biso   1.000  H
  H82      1.0000 0.61140  0.98770  0.13560  Biso   1.000  H
  H83      1.0000 0.11140  0.51230  0.63560  Biso   1.000  H
  H84      1.0000 0.38860  0.01230  0.86440  Biso   1.000  H
  H85      1.0000 0.75430  0.43100  0.37440  Biso   1.000  H
  H86      1.0000 0.74570  0.93100  0.12560  Biso   1.000  H
  H87      1.0000 0.24570  0.56900  0.62560  Biso   1.000  H
  H88      1.0000 0.25430  0.06900  0.87440  Biso   1.000  H
  Cu1      1.0000 0.81563  0.92816  0.66321  Biso   1.000  Cu
  Cu2      1.0000 0.68437  0.42816  0.83679  Biso   1.000  Cu
  Cu3      1.0000 0.18437  0.07184  0.33679  Biso   1.000  Cu
  Cu4      1.0000 0.31563  0.57184  0.16321  Biso   1.000  Cu
  Cu5      1.0000 0.78923  0.81598  0.79684  Biso   1.000  Cu
  Cu6      1.0000 0.71077  0.31598  0.70316  Biso   1.000  Cu
  Cu7      1.0000 0.21077  0.18402  0.20316  Biso   1.000  Cu
  Cu8      1.0000 0.28923  0.68402  0.29684  Biso   1.000  Cu
  I1       1.0000 0.05053  0.85300  0.73423  Biso   1.000  I
  I2       1.0000 0.44947  0.35300  0.76577  Biso   1.000  I
  I3       1.0000 0.94947  0.14700  0.26577  Biso   1.000  I
  I4       1.0000 0.55053  0.64700  0.23423  Biso   1.000  I
  I5       1.0000 0.55054  0.88282  0.71279  Biso   1.000  I
  I6       1.0000 0.94946  0.38282  0.78721  Biso   1.000  I
  I7       1.0000 0.44946  0.11718  0.28721  Biso   1.000  I
  I8       1.0000 0.05054  0.61718  0.21279  Biso   1.000  I
  N1       1.0000 0.81100  0.04530  0.68180  Biso   1.000  N
  N2       1.0000 0.68900  0.54530  0.81820  Biso   1.000  N
  N3       1.0000 0.18900  0.95470  0.31820  Biso   1.000  N
  N4       1.0000 0.31100  0.45470  0.18180  Biso   1.000  N
  N5       1.0000 0.74750  0.20000  0.69870  Biso   1.000  N
  N6       1.0000 0.75250  0.70000  0.80130  Biso   1.000  N
  N7       1.0000 0.25250  0.80000  0.30130  Biso   1.000  N
  N8       1.0000 0.24750  0.30000  0.19870  Biso   1.000  N
  S1       1.0000 0.83020  0.95574  0.49048  Biso   1.000  S
  S2       1.0000 0.66980  0.45574  0.00952  Biso   1.000  S
  S3       1.0000 0.16980  0.04426  0.50952  Biso   1.000  S
  S4       1.0000 0.33020  0.54426  0.99048  Biso   1.000  S
  S5       1.0000 0.71320  0.31132  0.52480  Biso   1.000  S
  S6       1.0000 0.78680  0.81132  0.97520  Biso   1.000  S
  S7       1.0000 0.28680  0.68868  0.47520  Biso   1.000  S
  S8       1.0000 0.21320  0.18868  0.02480  Biso   1.000  S
