data_image0
_cell_length_a       9.006
_cell_length_b       17.813
_cell_length_c       15.396
_cell_angle_alpha    90
_cell_angle_beta     122.25
_cell_angle_gamma    90

_symmetry_space_group_name_H-M    "P 1"
_symmetry_int_tables_number       1

loop_
  _symmetry_equiv_pos_as_xyz
  'x, y, z'

loop_
  _atom_site_label
  _atom_site_occupancy
  _atom_site_fract_x
  _atom_site_fract_y
  _atom_site_fract_z
  _atom_site_thermal_displace_type
  _atom_site_B_iso_or_equiv
  _atom_site_type_symbol
  I1       1.0000 0.80722  0.85227  0.76660  Biso   1.000  I
  I2       1.0000 0.19278  0.35227  0.73340  Biso   1.000  I
  I3       1.0000 0.19278  0.14773  0.23340  Biso   1.000  I
  I4       1.0000 0.80722  0.64773  0.26660  Biso   1.000  I
  I5       1.0000 0.33832  0.88429  0.78716  Biso   1.000  I
  I6       1.0000 0.66168  0.38429  0.71284  Biso   1.000  I
  I7       1.0000 0.66168  0.11571  0.21284  Biso   1.000  I
  I8       1.0000 0.33832  0.61571  0.28716  Biso   1.000  I
  Cu1      1.0000 0.65020  0.92877  0.83770  Biso   1.000  Cu
  Cu2      1.0000 0.34980  0.42877  0.66230  Biso   1.000  Cu
  Cu3      1.0000 0.34980  0.07123  0.16230  Biso   1.000  Cu
  Cu4      1.0000 0.65020  0.57123  0.33770  Biso   1.000  Cu
  Cu5      1.0000 0.48630  0.81619  0.70286  Biso   1.000  Cu
  Cu6      1.0000 0.51370  0.31619  0.79714  Biso   1.000  Cu
  Cu7      1.0000 0.51370  0.18381  0.29714  Biso   1.000  Cu
  Cu8      1.0000 0.48630  0.68381  0.20286  Biso   1.000  Cu
  S1       1.0000 0.83940  0.95676  0.01050  Biso   1.000  S
  S2       1.0000 0.16060  0.45676  0.48950  Biso   1.000  S
  S3       1.0000 0.16060  0.04324  0.98950  Biso   1.000  S
  S4       1.0000 0.83940  0.54324  0.51050  Biso   1.000  S
  S5       1.0000 0.69320  0.31094  0.97530  Biso   1.000  S
  S6       1.0000 0.30680  0.81094  0.52470  Biso   1.000  S
  S7       1.0000 0.30680  0.68906  0.02470  Biso   1.000  S
  S8       1.0000 0.69320  0.18906  0.47530  Biso   1.000  S
  N1       1.0000 0.62790  0.04630  0.81810  Biso   1.000  N
  N2       1.0000 0.37210  0.54630  0.68190  Biso   1.000  N
  N3       1.0000 0.37210  0.95370  0.18190  Biso   1.000  N
  N4       1.0000 0.62790  0.45370  0.31810  Biso   1.000  N
  N5       1.0000 0.55040  0.20000  0.80010  Biso   1.000  N
  N6       1.0000 0.44960  0.70000  0.69990  Biso   1.000  N
  N7       1.0000 0.44960  0.80000  0.19990  Biso   1.000  N
  N8       1.0000 0.55040  0.30000  0.30010  Biso   1.000  N
  C1       1.0000 0.99600  0.81700  0.15830  Biso   1.000  C
  C2       1.0000 0.00400  0.31700  0.34170  Biso   1.000  C
  C3       1.0000 0.00400  0.18300  0.84170  Biso   1.000  C
  C4       1.0000 0.99600  0.68300  0.65830  Biso   1.000  C
  H1       1.0000 0.01740  0.76940  0.19220  Biso   1.000  H
  H2       1.0000 0.98260  0.26940  0.30780  Biso   1.000  H
  H3       1.0000 0.98260  0.23060  0.80780  Biso   1.000  H
  H4       1.0000 0.01740  0.73060  0.69220  Biso   1.000  H
  H5       1.0000 0.06590  0.85500  0.20780  Biso   1.000  H
  H6       1.0000 0.93410  0.35500  0.29220  Biso   1.000  H
  H7       1.0000 0.93410  0.14500  0.79220  Biso   1.000  H
  H8       1.0000 0.06590  0.64500  0.70780  Biso   1.000  H
  H9       1.0000 0.02720  0.81400  0.10760  Biso   1.000  H
  H10      1.0000 0.97280  0.31400  0.39240  Biso   1.000  H
  H11      1.0000 0.97280  0.18600  0.89240  Biso   1.000  H
  H12      1.0000 0.02720  0.68600  0.60760  Biso   1.000  H
  C5       1.0000 0.80900  0.83640  0.10800  Biso   1.000  C
  C6       1.0000 0.19100  0.33640  0.39200  Biso   1.000  C
  C7       1.0000 0.19100  0.16360  0.89200  Biso   1.000  C
  C8       1.0000 0.80900  0.66360  0.60800  Biso   1.000  C
  H13      1.0000 0.76780  0.81780  0.15050  Biso   1.000  H
  H14      1.0000 0.23220  0.31780  0.34950  Biso   1.000  H
  H15      1.0000 0.23220  0.18220  0.84950  Biso   1.000  H
  H16      1.0000 0.76780  0.68220  0.65050  Biso   1.000  H
  H17      1.0000 0.74550  0.80970  0.04310  Biso   1.000  H
  H18      1.0000 0.25450  0.30970  0.45690  Biso   1.000  H
  H19      1.0000 0.25450  0.19030  0.95690  Biso   1.000  H
  H20      1.0000 0.74550  0.69030  0.54310  Biso   1.000  H
  C9       1.0000 0.76300  0.91910  0.08710  Biso   1.000  C
  C10      1.0000 0.23700  0.41910  0.41290  Biso   1.000  C
  C11      1.0000 0.23700  0.08090  0.91290  Biso   1.000  C
  C12      1.0000 0.76300  0.58090  0.58710  Biso   1.000  C
  H21      1.0000 0.81630  0.94620  0.15160  Biso   1.000  H
  H22      1.0000 0.18370  0.44620  0.34840  Biso   1.000  H
  H23      1.0000 0.18370  0.05380  0.84840  Biso   1.000  H
  H24      1.0000 0.81630  0.55380  0.65160  Biso   1.000  H
  H25      1.0000 0.63670  0.92520  0.05160  Biso   1.000  H
  H26      1.0000 0.36330  0.42520  0.44840  Biso   1.000  H
  H27      1.0000 0.36330  0.07480  0.94840  Biso   1.000  H
  H28      1.0000 0.63670  0.57480  0.55160  Biso   1.000  H
  C13      1.0000 0.77300  0.05300  0.00410  Biso   1.000  C
  C14      1.0000 0.22700  0.55300  0.49590  Biso   1.000  C
  C15      1.0000 0.22700  0.94700  0.99590  Biso   1.000  C
  C16      1.0000 0.77300  0.44700  0.50410  Biso   1.000  C
  H29      1.0000 0.69710  0.05600  0.03080  Biso   1.000  H
  H30      1.0000 0.30290  0.55600  0.46920  Biso   1.000  H
  H31      1.0000 0.30290  0.94400  0.96920  Biso   1.000  H
  H32      1.0000 0.69710  0.44400  0.53080  Biso   1.000  H
  H33      1.0000 0.87660  0.08290  0.04840  Biso   1.000  H
  H34      1.0000 0.12340  0.58290  0.45160  Biso   1.000  H
  H35      1.0000 0.12340  0.91710  0.95160  Biso   1.000  H
  H36      1.0000 0.87660  0.41710  0.54840  Biso   1.000  H
  C17      1.0000 0.68090  0.08600  0.90090  Biso   1.000  C
  C18      1.0000 0.31910  0.58600  0.59910  Biso   1.000  C
  C19      1.0000 0.31910  0.91400  0.09910  Biso   1.000  C
  C20      1.0000 0.68090  0.41400  0.40090  Biso   1.000  C
  C21      1.0000 0.54140  0.08130  0.72430  Biso   1.000  C
  C22      1.0000 0.45860  0.58130  0.77570  Biso   1.000  C
  C23      1.0000 0.45860  0.91870  0.27570  Biso   1.000  C
  C24      1.0000 0.54140  0.41870  0.22430  Biso   1.000  C
  C25      1.0000 0.49000  0.03880  0.63600  Biso   1.000  C
  C26      1.0000 0.51000  0.53880  0.86400  Biso   1.000  C
  C27      1.0000 0.51000  0.96120  0.36400  Biso   1.000  C
  C28      1.0000 0.49000  0.46120  0.13600  Biso   1.000  C
  H37      1.0000 0.51500  0.98780  0.64150  Biso   1.000  H
  H38      1.0000 0.48500  0.48780  0.85850  Biso   1.000  H
  H39      1.0000 0.48500  0.01220  0.35850  Biso   1.000  H
  H40      1.0000 0.51500  0.51220  0.14150  Biso   1.000  H
  C29      1.0000 0.40100  0.07300  0.54090  Biso   1.000  C
  C30      1.0000 0.59900  0.57300  0.95910  Biso   1.000  C
  C31      1.0000 0.59900  0.92700  0.45910  Biso   1.000  C
  C32      1.0000 0.40100  0.42700  0.04090  Biso   1.000  C
  H41      1.0000 0.36660  0.04570  0.48160  Biso   1.000  H
  H42      1.0000 0.63340  0.54570  0.01840  Biso   1.000  H
  H43      1.0000 0.63340  0.95430  0.51840  Biso   1.000  H
  H44      1.0000 0.36660  0.45430  0.98160  Biso   1.000  H
  C33      1.0000 0.36300  0.14910  0.53570  Biso   1.000  C
  C34      1.0000 0.63700  0.64910  0.96430  Biso   1.000  C
  C35      1.0000 0.63700  0.85090  0.46430  Biso   1.000  C
  C36      1.0000 0.36300  0.35090  0.03570  Biso   1.000  C
  H45      1.0000 0.30170  0.17250  0.47190  Biso   1.000  H
  H46      1.0000 0.69830  0.67250  0.02810  Biso   1.000  H
  H47      1.0000 0.69830  0.82750  0.52810  Biso   1.000  H
  H48      1.0000 0.30170  0.32750  0.97190  Biso   1.000  H
  C37      1.0000 0.41300  0.19030  0.62150  Biso   1.000  C
  C38      1.0000 0.58700  0.69030  0.87850  Biso   1.000  C
  C39      1.0000 0.58700  0.80970  0.37850  Biso   1.000  C
  C40      1.0000 0.41300  0.30970  0.12150  Biso   1.000  C
  H49      1.0000 0.38720  0.24120  0.61590  Biso   1.000  H
  H50      1.0000 0.61280  0.74120  0.88410  Biso   1.000  H
  H51      1.0000 0.61280  0.75880  0.38410  Biso   1.000  H
  H52      1.0000 0.38720  0.25880  0.11590  Biso   1.000  H
  C41      1.0000 0.50300  0.15660  0.71630  Biso   1.000  C
  C42      1.0000 0.49700  0.65660  0.78370  Biso   1.000  C
  C43      1.0000 0.49700  0.84340  0.28370  Biso   1.000  C
  C44      1.0000 0.50300  0.34340  0.21630  Biso   1.000  C
  C45      1.0000 0.63550  0.16720  0.88880  Biso   1.000  C
  C46      1.0000 0.36450  0.66720  0.61120  Biso   1.000  C
  C47      1.0000 0.36450  0.83280  0.11120  Biso   1.000  C
  C48      1.0000 0.63550  0.33280  0.38880  Biso   1.000  C
  C49      1.0000 0.69390  0.21030  0.98990  Biso   1.000  C
  C50      1.0000 0.30610  0.71030  0.51010  Biso   1.000  C
  C51      1.0000 0.30610  0.78970  0.01010  Biso   1.000  C
  C52      1.0000 0.69390  0.28970  0.48990  Biso   1.000  C
  H53      1.0000 0.81130  0.19420  0.04250  Biso   1.000  H
  H54      1.0000 0.18870  0.69420  0.45750  Biso   1.000  H
  H55      1.0000 0.18870  0.80580  0.95750  Biso   1.000  H
  H56      1.0000 0.81130  0.30580  0.54250  Biso   1.000  H
  H57      1.0000 0.61580  0.19730  0.01300  Biso   1.000  H
  H58      1.0000 0.38420  0.69730  0.48700  Biso   1.000  H
  H59      1.0000 0.38420  0.80270  0.98700  Biso   1.000  H
  H60      1.0000 0.61580  0.30270  0.51300  Biso   1.000  H
  C53      1.0000 0.91280  0.32780  0.00270  Biso   1.000  C
  C54      1.0000 0.08720  0.82780  0.49730  Biso   1.000  C
  C55      1.0000 0.08720  0.67220  0.99730  Biso   1.000  C
  C56      1.0000 0.91280  0.17220  0.50270  Biso   1.000  C
  H61      1.0000 0.99690  0.29850  0.06200  Biso   1.000  H
  H62      1.0000 0.00310  0.79850  0.43800  Biso   1.000  H
  H63      1.0000 0.00310  0.70150  0.93800  Biso   1.000  H
  H64      1.0000 0.99690  0.20150  0.56200  Biso   1.000  H
  H65      1.0000 0.91970  0.31210  0.94460  Biso   1.000  H
  H66      1.0000 0.08030  0.81210  0.55540  Biso   1.000  H
  H67      1.0000 0.08030  0.68790  0.05540  Biso   1.000  H
  H68      1.0000 0.91970  0.18790  0.44460  Biso   1.000  H
  C57      1.0000 0.95700  0.40950  0.02340  Biso   1.000  C
  C58      1.0000 0.04300  0.90950  0.47660  Biso   1.000  C
  C59      1.0000 0.04300  0.59050  0.97660  Biso   1.000  C
  C60      1.0000 0.95700  0.09050  0.52340  Biso   1.000  C
  H69      1.0000 0.05910  0.41990  0.01960  Biso   1.000  H
  H70      1.0000 0.94090  0.91990  0.48040  Biso   1.000  H
  H71      1.0000 0.94090  0.58010  0.98040  Biso   1.000  H
  H72      1.0000 0.05910  0.08010  0.51960  Biso   1.000  H
  H73      1.0000 0.85980  0.43880  0.97050  Biso   1.000  H
  H74      1.0000 0.14020  0.93880  0.52950  Biso   1.000  H
  H75      1.0000 0.14020  0.56120  0.02950  Biso   1.000  H
  H76      1.0000 0.85980  0.06120  0.47050  Biso   1.000  H
  C61      1.0000 0.99400  0.43360  0.12500  Biso   1.000  C
  C62      1.0000 0.00600  0.93360  0.37500  Biso   1.000  C
  C63      1.0000 0.00600  0.56640  0.87500  Biso   1.000  C
  C64      1.0000 0.99400  0.06640  0.62500  Biso   1.000  C
  H77      1.0000 0.03030  0.48520  0.13650  Biso   1.000  H
  H78      1.0000 0.96970  0.98520  0.36350  Biso   1.000  H
  H79      1.0000 0.96970  0.51480  0.86350  Biso   1.000  H
  H80      1.0000 0.03030  0.01480  0.63650  Biso   1.000  H
  H81      1.0000 0.08520  0.40290  0.17760  Biso   1.000  H
  H82      1.0000 0.91480  0.90290  0.32240  Biso   1.000  H
  H83      1.0000 0.91480  0.59710  0.82240  Biso   1.000  H
  H84      1.0000 0.08520  0.09710  0.67760  Biso   1.000  H
  H85      1.0000 0.88930  0.42830  0.12680  Biso   1.000  H
  H86      1.0000 0.11070  0.92830  0.37320  Biso   1.000  H
  H87      1.0000 0.11070  0.57170  0.87320  Biso   1.000  H
  H88      1.0000 0.88930  0.07170  0.62680  Biso   1.000  H
