data_image0
_cell_length_a       12.698
_cell_length_b       11.314
_cell_length_c       18.732
_cell_angle_alpha    90
_cell_angle_beta     105.55
_cell_angle_gamma    90

_symmetry_space_group_name_H-M    "P 1"
_symmetry_int_tables_number       1

loop_
  _symmetry_equiv_pos_as_xyz
  'x, y, z'

loop_
  _atom_site_label
  _atom_site_occupancy
  _atom_site_fract_x
  _atom_site_fract_y
  _atom_site_fract_z
  _atom_site_thermal_displace_type
  _atom_site_B_iso_or_equiv
  _atom_site_type_symbol
  C1       1.0000 0.20430  0.80430  0.29940  Biso   1.000  C
  C2       1.0000 0.79570  0.30430  0.20060  Biso   1.000  C
  C3       1.0000 0.79570  0.19570  0.70060  Biso   1.000  C
  C4       1.0000 0.20430  0.69570  0.79940  Biso   1.000  C
  C5       1.0000 0.18150  0.70840  0.34010  Biso   1.000  C
  C6       1.0000 0.81850  0.20840  0.15990  Biso   1.000  C
  C7       1.0000 0.81850  0.29160  0.65990  Biso   1.000  C
  C8       1.0000 0.18150  0.79160  0.84010  Biso   1.000  C
  H1       1.0000 0.23510  0.68180  0.38110  Biso   1.000  H
  H2       1.0000 0.76490  0.18180  0.11890  Biso   1.000  H
  H3       1.0000 0.76490  0.31820  0.61890  Biso   1.000  H
  H4       1.0000 0.23510  0.81820  0.88110  Biso   1.000  H
  C9       1.0000 0.08070  0.65230  0.32040  Biso   1.000  C
  C10      1.0000 0.91930  0.15230  0.17960  Biso   1.000  C
  C11      1.0000 0.91930  0.34770  0.67960  Biso   1.000  C
  C12      1.0000 0.08070  0.84770  0.82040  Biso   1.000  C
  H5       1.0000 0.06610  0.59020  0.34890  Biso   1.000  H
  H6       1.0000 0.93390  0.09020  0.15110  Biso   1.000  H
  H7       1.0000 0.93390  0.40980  0.65110  Biso   1.000  H
  H8       1.0000 0.06610  0.90980  0.84890  Biso   1.000  H
  C13      1.0000 0.00080  0.69000  0.25720  Biso   1.000  C
  C14      1.0000 0.99920  0.19000  0.24280  Biso   1.000  C
  C15      1.0000 0.99920  0.31000  0.74280  Biso   1.000  C
  C16      1.0000 0.00080  0.81000  0.75720  Biso   1.000  C
  H9       1.0000 0.93200  0.65540  0.24400  Biso   1.000  H
  H10      1.0000 0.06800  0.15540  0.25600  Biso   1.000  H
  H11      1.0000 0.06800  0.34460  0.75600  Biso   1.000  H
  H12      1.0000 0.93200  0.84460  0.74400  Biso   1.000  H
  C17      1.0000 0.02630  0.78050  0.21490  Biso   1.000  C
  C18      1.0000 0.97370  0.28050  0.28510  Biso   1.000  C
  C19      1.0000 0.97370  0.21950  0.78510  Biso   1.000  C
  C20      1.0000 0.02630  0.71950  0.71490  Biso   1.000  C
  H13      1.0000 0.97480  0.80400  0.17190  Biso   1.000  H
  H14      1.0000 0.02520  0.30400  0.32810  Biso   1.000  H
  H15      1.0000 0.02520  0.19600  0.82810  Biso   1.000  H
  H16      1.0000 0.97480  0.69600  0.67190  Biso   1.000  H
  C21      1.0000 0.12510  0.83570  0.23490  Biso   1.000  C
  C22      1.0000 0.87490  0.33570  0.26510  Biso   1.000  C
  C23      1.0000 0.87490  0.16430  0.76510  Biso   1.000  C
  C24      1.0000 0.12510  0.66430  0.73490  Biso   1.000  C
  C25      1.0000 0.26990  0.88660  0.15150  Biso   1.000  C
  C26      1.0000 0.73010  0.38660  0.34850  Biso   1.000  C
  C27      1.0000 0.73010  0.11340  0.84850  Biso   1.000  C
  C28      1.0000 0.26990  0.61340  0.65150  Biso   1.000  C
  H17      1.0000 0.30010  0.94550  0.12490  Biso   1.000  H
  H18      1.0000 0.69990  0.44550  0.37510  Biso   1.000  H
  H19      1.0000 0.69990  0.05450  0.87510  Biso   1.000  H
  H20      1.0000 0.30010  0.55450  0.62490  Biso   1.000  H
  H21      1.0000 0.32640  0.86590  0.19590  Biso   1.000  H
  H22      1.0000 0.67360  0.36590  0.30410  Biso   1.000  H
  H23      1.0000 0.67360  0.13410  0.80410  Biso   1.000  H
  H24      1.0000 0.32640  0.63410  0.69590  Biso   1.000  H
  C29      1.0000 0.24120  0.77830  0.10360  Biso   1.000  C
  C30      1.0000 0.75880  0.27830  0.39640  Biso   1.000  C
  C31      1.0000 0.75880  0.22170  0.89640  Biso   1.000  C
  C32      1.0000 0.24120  0.72170  0.60360  Biso   1.000  C
  C33      1.0000 0.12130  0.67920  0.00630  Biso   1.000  C
  C34      1.0000 0.87870  0.17920  0.49370  Biso   1.000  C
  C35      1.0000 0.87870  0.32080  0.99370  Biso   1.000  C
  C36      1.0000 0.12130  0.82080  0.50630  Biso   1.000  C
  C37      1.0000 0.02030  0.66910  0.95440  Biso   1.000  C
  C38      1.0000 0.97970  0.16910  0.54560  Biso   1.000  C
  C39      1.0000 0.97970  0.33090  0.04560  Biso   1.000  C
  C40      1.0000 0.02030  0.83090  0.45440  Biso   1.000  C
  H25      1.0000 0.96660  0.72610  0.95170  Biso   1.000  H
  H26      1.0000 0.03340  0.22610  0.54830  Biso   1.000  H
  H27      1.0000 0.03340  0.27390  0.04830  Biso   1.000  H
  H28      1.0000 0.96660  0.77390  0.45170  Biso   1.000  H
  C41      1.0000 0.00100  0.57300  0.90690  Biso   1.000  C
  C42      1.0000 0.99900  0.07300  0.59310  Biso   1.000  C
  C43      1.0000 0.99900  0.42700  0.09310  Biso   1.000  C
  C44      1.0000 0.00100  0.92700  0.40690  Biso   1.000  C
  H29      1.0000 0.93510  0.56770  0.87040  Biso   1.000  H
  H30      1.0000 0.06490  0.06770  0.62960  Biso   1.000  H
  H31      1.0000 0.06490  0.43230  0.12960  Biso   1.000  H
  H32      1.0000 0.93510  0.93230  0.37040  Biso   1.000  H
  C45      1.0000 0.07760  0.48600  0.91310  Biso   1.000  C
  C46      1.0000 0.92240  0.98600  0.58690  Biso   1.000  C
  C47      1.0000 0.92240  0.51400  0.08690  Biso   1.000  C
  C48      1.0000 0.07760  0.01400  0.41310  Biso   1.000  C
  H33      1.0000 0.06010  0.41870  0.88370  Biso   1.000  H
  H34      1.0000 0.93990  0.91870  0.61630  Biso   1.000  H
  H35      1.0000 0.93990  0.58130  0.11630  Biso   1.000  H
  H36      1.0000 0.06010  0.08130  0.38370  Biso   1.000  H
  C49      1.0000 0.17840  0.49470  0.96110  Biso   1.000  C
  C50      1.0000 0.82160  0.99470  0.53890  Biso   1.000  C
  C51      1.0000 0.82160  0.50530  0.03890  Biso   1.000  C
  C52      1.0000 0.17840  0.00530  0.46110  Biso   1.000  C
  H37      1.0000 0.23100  0.43750  0.96120  Biso   1.000  H
  H38      1.0000 0.76900  0.93750  0.53880  Biso   1.000  H
  H39      1.0000 0.76900  0.56250  0.03880  Biso   1.000  H
  H40      1.0000 0.23100  0.06250  0.46120  Biso   1.000  H
  C53      1.0000 0.20330  0.59010  0.01050  Biso   1.000  C
  C54      1.0000 0.79670  0.09010  0.48950  Biso   1.000  C
  C55      1.0000 0.79670  0.40990  0.98950  Biso   1.000  C
  C56      1.0000 0.20330  0.90990  0.51050  Biso   1.000  C
  C57      1.0000 0.31820  0.68540  0.10920  Biso   1.000  C
  C58      1.0000 0.68180  0.18540  0.39080  Biso   1.000  C
  C59      1.0000 0.68180  0.31460  0.89080  Biso   1.000  C
  C60      1.0000 0.31820  0.81460  0.60920  Biso   1.000  C
  C61      1.0000 0.42740  0.69010  0.16860  Biso   1.000  C
  C62      1.0000 0.57260  0.19010  0.33140  Biso   1.000  C
  C63      1.0000 0.57260  0.30990  0.83140  Biso   1.000  C
  C64      1.0000 0.42740  0.80990  0.66860  Biso   1.000  C
  H41      1.0000 0.41360  0.71310  0.21520  Biso   1.000  H
  H42      1.0000 0.58640  0.21310  0.28480  Biso   1.000  H
  H43      1.0000 0.58640  0.28690  0.78480  Biso   1.000  H
  H44      1.0000 0.41360  0.78690  0.71520  Biso   1.000  H
  H45      1.0000 0.47230  0.75120  0.15530  Biso   1.000  H
  H46      1.0000 0.52770  0.25120  0.34470  Biso   1.000  H
  H47      1.0000 0.52770  0.24880  0.84470  Biso   1.000  H
  H48      1.0000 0.47230  0.74880  0.65530  Biso   1.000  H
  C65      1.0000 0.42530  0.46710  0.23080  Biso   1.000  C
  C66      1.0000 0.57470  0.96710  0.26920  Biso   1.000  C
  C67      1.0000 0.57470  0.53290  0.76920  Biso   1.000  C
  C68      1.0000 0.42530  0.03290  0.73080  Biso   1.000  C
  C69      1.0000 0.43060  0.49970  0.30440  Biso   1.000  C
  C70      1.0000 0.56940  0.99970  0.19560  Biso   1.000  C
  C71      1.0000 0.56940  0.50030  0.69560  Biso   1.000  C
  C72      1.0000 0.43060  0.00030  0.80440  Biso   1.000  C
  C73      1.0000 0.36000  0.42900  0.33610  Biso   1.000  C
  C74      1.0000 0.64000  0.92900  0.16390  Biso   1.000  C
  C75      1.0000 0.64000  0.57100  0.66390  Biso   1.000  C
  C76      1.0000 0.36000  0.07100  0.83610  Biso   1.000  C
  H49      1.0000 0.35940  0.44530  0.38460  Biso   1.000  H
  H50      1.0000 0.64060  0.94530  0.11540  Biso   1.000  H
  H51      1.0000 0.64060  0.55470  0.61540  Biso   1.000  H
  H52      1.0000 0.35940  0.05470  0.88460  Biso   1.000  H
  C77      1.0000 0.29660  0.34300  0.30270  Biso   1.000  C
  C78      1.0000 0.70340  0.84300  0.19730  Biso   1.000  C
  C79      1.0000 0.70340  0.65700  0.69730  Biso   1.000  C
  C80      1.0000 0.29660  0.15700  0.80270  Biso   1.000  C
  H53      1.0000 0.25430  0.30100  0.32760  Biso   1.000  H
  H54      1.0000 0.74570  0.80100  0.17240  Biso   1.000  H
  H55      1.0000 0.74570  0.69900  0.67240  Biso   1.000  H
  H56      1.0000 0.25430  0.19900  0.82760  Biso   1.000  H
  C81      1.0000 0.29270  0.31400  0.22870  Biso   1.000  C
  C82      1.0000 0.70730  0.81400  0.27130  Biso   1.000  C
  C83      1.0000 0.70730  0.68600  0.77130  Biso   1.000  C
  C84      1.0000 0.29270  0.18600  0.72870  Biso   1.000  C
  H57      1.0000 0.24780  0.25330  0.20450  Biso   1.000  H
  H58      1.0000 0.75220  0.75330  0.29550  Biso   1.000  H
  H59      1.0000 0.75220  0.74670  0.79550  Biso   1.000  H
  H60      1.0000 0.24780  0.24670  0.70450  Biso   1.000  H
  C85      1.0000 0.35610  0.37690  0.19280  Biso   1.000  C
  C86      1.0000 0.64390  0.87690  0.30720  Biso   1.000  C
  C87      1.0000 0.64390  0.62310  0.80720  Biso   1.000  C
  C88      1.0000 0.35610  0.12310  0.69280  Biso   1.000  C
  H61      1.0000 0.35330  0.35990  0.14370  Biso   1.000  H
  H62      1.0000 0.64670  0.85990  0.35630  Biso   1.000  H
  H63      1.0000 0.64670  0.64010  0.85630  Biso   1.000  H
  H64      1.0000 0.35330  0.14010  0.64370  Biso   1.000  H
  Cu1      1.0000 0.04964  0.92325  0.04773  Biso   1.000  Cu
  Cu2      1.0000 0.95036  0.42325  0.45227  Biso   1.000  Cu
  Cu3      1.0000 0.95036  0.07675  0.95227  Biso   1.000  Cu
  Cu4      1.0000 0.04964  0.57675  0.54773  Biso   1.000  Cu
  Cu5      1.0000 0.44654  0.50939  0.05326  Biso   1.000  Cu
  Cu6      1.0000 0.55346  0.00939  0.44674  Biso   1.000  Cu
  Cu7      1.0000 0.55346  0.49061  0.94674  Biso   1.000  Cu
  Cu8      1.0000 0.44654  0.99061  0.55326  Biso   1.000  Cu
  I1       1.0000 0.84063  0.91543  0.01137  Biso   1.000  I
  I2       1.0000 0.15937  0.41543  0.48863  Biso   1.000  I
  I3       1.0000 0.15937  0.08457  0.98863  Biso   1.000  I
  I4       1.0000 0.84063  0.58457  0.51137  Biso   1.000  I
  I5       1.0000 0.46279  0.30569  0.00057  Biso   1.000  I
  I6       1.0000 0.53721  0.80569  0.49943  Biso   1.000  I
  I7       1.0000 0.53721  0.69431  0.99943  Biso   1.000  I
  I8       1.0000 0.46279  0.19431  0.50057  Biso   1.000  I
  N1       1.0000 0.14780  0.77470  0.05500  Biso   1.000  N
  N2       1.0000 0.85220  0.27470  0.44500  Biso   1.000  N
  N3       1.0000 0.85220  0.22530  0.94500  Biso   1.000  N
  N4       1.0000 0.14780  0.72530  0.55500  Biso   1.000  N
  N5       1.0000 0.30320  0.59680  0.06250  Biso   1.000  N
  N6       1.0000 0.69680  0.09680  0.43750  Biso   1.000  N
  N7       1.0000 0.69680  0.40320  0.93750  Biso   1.000  N
  N8       1.0000 0.30320  0.90320  0.56250  Biso   1.000  N
  N9       1.0000 0.30510  0.86210  0.32340  Biso   1.000  N
  N10      1.0000 0.69490  0.36210  0.17660  Biso   1.000  N
  N11      1.0000 0.69490  0.13790  0.67660  Biso   1.000  N
  N12      1.0000 0.30510  0.63790  0.82340  Biso   1.000  N
  H65      1.0000 0.32040  0.91980  0.29800  Biso   1.000  H
  H66      1.0000 0.67960  0.41980  0.20200  Biso   1.000  H
  H67      1.0000 0.67960  0.08020  0.70200  Biso   1.000  H
  H68      1.0000 0.32040  0.58020  0.79800  Biso   1.000  H
  H69      1.0000 0.35170  0.84000  0.36350  Biso   1.000  H
  H70      1.0000 0.64830  0.34000  0.13650  Biso   1.000  H
  H71      1.0000 0.64830  0.16000  0.63650  Biso   1.000  H
  H72      1.0000 0.35170  0.66000  0.86350  Biso   1.000  H
  N13      1.0000 0.50220  0.58500  0.34100  Biso   1.000  N
  N14      1.0000 0.49780  0.08500  0.15900  Biso   1.000  N
  N15      1.0000 0.49780  0.41500  0.65900  Biso   1.000  N
  N16      1.0000 0.50220  0.91500  0.84100  Biso   1.000  N
  H73      1.0000 0.54510  0.61970  0.31910  Biso   1.000  H
  H74      1.0000 0.45490  0.11970  0.18090  Biso   1.000  H
  H75      1.0000 0.45490  0.38030  0.68090  Biso   1.000  H
  H76      1.0000 0.54510  0.88030  0.81910  Biso   1.000  H
  H77      1.0000 0.50410  0.60350  0.38590  Biso   1.000  H
  H78      1.0000 0.49590  0.10350  0.11410  Biso   1.000  H
  H79      1.0000 0.49590  0.39650  0.61410  Biso   1.000  H
  H80      1.0000 0.50410  0.89650  0.88590  Biso   1.000  H
  S1       1.0000 0.15570  0.95150  0.17850  Biso   1.000  S
  S2       1.0000 0.84430  0.45150  0.32150  Biso   1.000  S
  S3       1.0000 0.84430  0.04850  0.82150  Biso   1.000  S
  S4       1.0000 0.15570  0.54850  0.67850  Biso   1.000  S
  S5       1.0000 0.50410  0.55310  0.18290  Biso   1.000  S
  S6       1.0000 0.49590  0.05310  0.31710  Biso   1.000  S
  S7       1.0000 0.49590  0.44690  0.81710  Biso   1.000  S
  S8       1.0000 0.50410  0.94690  0.68290  Biso   1.000  S
