data_image0
_cell_length_a       9.7299
_cell_length_b       17.515
_cell_length_c       10.252
_cell_angle_alpha    90
_cell_angle_beta     117.77
_cell_angle_gamma    90

_symmetry_space_group_name_H-M    "P 1"
_symmetry_int_tables_number       1

loop_
  _symmetry_equiv_pos_as_xyz
  'x, y, z'

loop_
  _atom_site_label
  _atom_site_occupancy
  _atom_site_fract_x
  _atom_site_fract_y
  _atom_site_fract_z
  _atom_site_thermal_displace_type
  _atom_site_B_iso_or_equiv
  _atom_site_type_symbol
  C1       1.0000 0.63530  0.07760  0.14150  Biso   1.000  C
  C2       1.0000 0.36470  0.57760  0.85850  Biso   1.000  C
  H1       1.0000 0.62110  0.09270  0.04600  Biso   1.000  H
  H2       1.0000 0.37890  0.59270  0.95400  Biso   1.000  H
  H3       1.0000 0.54890  0.09510  0.15440  Biso   1.000  H
  H4       1.0000 0.45110  0.59510  0.84560  Biso   1.000  H
  H5       1.0000 0.64170  0.02300  0.14930  Biso   1.000  H
  H6       1.0000 0.35830  0.52300  0.85070  Biso   1.000  H
  C3       1.0000 0.92520  0.08970  0.23850  Biso   1.000  C
  C4       1.0000 0.07480  0.58970  0.76150  Biso   1.000  C
  H7       1.0000 0.90770  0.10500  0.14200  Biso   1.000  H
  H8       1.0000 0.09230  0.60500  0.85800  Biso   1.000  H
  H9       1.0000 0.93890  0.03540  0.24820  Biso   1.000  H
  H10      1.0000 0.06110  0.53540  0.75180  Biso   1.000  H
  H11      1.0000 0.01680  0.11450  0.31160  Biso   1.000  H
  H12      1.0000 0.98320  0.61450  0.68840  Biso   1.000  H
  C5       1.0000 0.77270  0.19920  0.26220  Biso   1.000  C
  C6       1.0000 0.22730  0.69920  0.73780  Biso   1.000  C
  H13      1.0000 0.75700  0.21950  0.16930  Biso   1.000  H
  H14      1.0000 0.24300  0.71950  0.83070  Biso   1.000  H
  H15      1.0000 0.86690  0.21970  0.33980  Biso   1.000  H
  H16      1.0000 0.13310  0.71970  0.66020  Biso   1.000  H
  H17      1.0000 0.68670  0.21300  0.27880  Biso   1.000  H
  H18      1.0000 0.31330  0.71300  0.72120  Biso   1.000  H
  C7       1.0000 0.78490  0.11260  0.26020  Biso   1.000  C
  C8       1.0000 0.21510  0.61260  0.73980  Biso   1.000  C
  C9       1.0000 0.80730  0.98050  0.43720  Biso   1.000  C
  C10      1.0000 0.19270  0.48050  0.56280  Biso   1.000  C
  H19      1.0000 0.81820  0.96480  0.35180  Biso   1.000  H
  H20      1.0000 0.18180  0.46480  0.64820  Biso   1.000  H
  H21      1.0000 0.89610  0.96060  0.52360  Biso   1.000  H
  H22      1.0000 0.10390  0.46060  0.47640  Biso   1.000  H
  C11      1.0000 0.66320  0.94310  0.42780  Biso   1.000  C
  C12      1.0000 0.33680  0.44310  0.57220  Biso   1.000  C
  C13      1.0000 0.43430  0.94690  0.44430  Biso   1.000  C
  C14      1.0000 0.56570  0.44690  0.55570  Biso   1.000  C
  C15      1.0000 0.32680  0.98780  0.47060  Biso   1.000  C
  C16      1.0000 0.67320  0.48780  0.52940  Biso   1.000  C
  H23      1.0000 0.33650  0.04040  0.48300  Biso   1.000  H
  H24      1.0000 0.66350  0.54040  0.51700  Biso   1.000  H
  C17      1.0000 0.20550  0.95020  0.47830  Biso   1.000  C
  C18      1.0000 0.79450  0.45020  0.52170  Biso   1.000  C
  H25      1.0000 0.13500  0.97750  0.49750  Biso   1.000  H
  H26      1.0000 0.86500  0.47750  0.50250  Biso   1.000  H
  C19      1.0000 0.18920  0.87090  0.45710  Biso   1.000  C
  C20      1.0000 0.81080  0.37090  0.54290  Biso   1.000  C
  H27      1.0000 0.10650  0.84610  0.46060  Biso   1.000  H
  H28      1.0000 0.89350  0.34610  0.53940  Biso   1.000  H
  C21      1.0000 0.29300  0.83010  0.43140  Biso   1.000  C
  C22      1.0000 0.70700  0.33010  0.56860  Biso   1.000  C
  H29      1.0000 0.28030  0.77760  0.41690  Biso   1.000  H
  H30      1.0000 0.71970  0.27760  0.58310  Biso   1.000  H
  C23      1.0000 0.41960  0.86650  0.42650  Biso   1.000  C
  C24      1.0000 0.58040  0.36650  0.57350  Biso   1.000  C
  C25      1.0000 0.64830  0.86100  0.41160  Biso   1.000  C
  C26      1.0000 0.35170  0.36100  0.58840  Biso   1.000  C
  C27      1.0000 0.78110  0.81700  0.40860  Biso   1.000  C
  C28      1.0000 0.21890  0.31700  0.59140  Biso   1.000  C
  H31      1.0000 0.87630  0.83110  0.49510  Biso   1.000  H
  H32      1.0000 0.12370  0.33110  0.50490  Biso   1.000  H
  H33      1.0000 0.79090  0.83340  0.32290  Biso   1.000  H
  H34      1.0000 0.20910  0.33340  0.67710  Biso   1.000  H
  C29      1.0000 0.73690  0.68980  0.21610  Biso   1.000  C
  C30      1.0000 0.26310  0.18980  0.78390  Biso   1.000  C
  C31      1.0000 0.71370  0.60270  0.20810  Biso   1.000  C
  C32      1.0000 0.28630  0.10270  0.79190  Biso   1.000  C
  H35      1.0000 0.69720  0.58460  0.11350  Biso   1.000  H
  H36      1.0000 0.30280  0.08460  0.88650  Biso   1.000  H
  H37      1.0000 0.62500  0.59050  0.22160  Biso   1.000  H
  H38      1.0000 0.37500  0.09050  0.77840  Biso   1.000  H
  H39      1.0000 0.80440  0.57880  0.28410  Biso   1.000  H
  H40      1.0000 0.19560  0.07880  0.71590  Biso   1.000  H
  C33      1.0000 0.88330  0.70980  0.20340  Biso   1.000  C
  C34      1.0000 0.11670  0.20980  0.79660  Biso   1.000  C
  H41      1.0000 0.86770  0.69730  0.10620  Biso   1.000  H
  H42      1.0000 0.13230  0.19730  0.89380  Biso   1.000  H
  H43      1.0000 0.96960  0.68110  0.27500  Biso   1.000  H
  H44      1.0000 0.03040  0.18110  0.72500  Biso   1.000  H
  H45      1.0000 0.90430  0.76340  0.22090  Biso   1.000  H
  H46      1.0000 0.09570  0.26340  0.77910  Biso   1.000  H
  C35      1.0000 0.59350  0.73040  0.10010  Biso   1.000  C
  C36      1.0000 0.40650  0.23040  0.89990  Biso   1.000  C
  H47      1.0000 0.57950  0.71760  0.00370  Biso   1.000  H
  H48      1.0000 0.42050  0.21760  0.99630  Biso   1.000  H
  H49      1.0000 0.60670  0.78460  0.11440  Biso   1.000  H
  H50      1.0000 0.39330  0.28460  0.88560  Biso   1.000  H
  H51      1.0000 0.50380  0.71470  0.10920  Biso   1.000  H
  H52      1.0000 0.49620  0.21470  0.89080  Biso   1.000  H
  C37      1.0000 0.99560  0.83840  0.84830  Biso   1.000  C
  C38      1.0000 0.00440  0.33840  0.15170  Biso   1.000  C
  C39      1.0000 0.05310  0.78850  0.97460  Biso   1.000  C
  C40      1.0000 0.94690  0.28850  0.02540  Biso   1.000  C
  H53      1.0000 0.16380  0.78370  0.01560  Biso   1.000  H
  H54      1.0000 0.83620  0.28370  0.98440  Biso   1.000  H
  H55      1.0000 0.00590  0.73910  0.94500  Biso   1.000  H
  H56      1.0000 0.99410  0.23910  0.05500  Biso   1.000  H
  H57      1.0000 0.02800  0.80950  0.04740  Biso   1.000  H
  H58      1.0000 0.97200  0.30950  0.95260  Biso   1.000  H
  C41      1.0000 0.27340  0.95550  0.06520  Biso   1.000  C
  C42      1.0000 0.72660  0.45550  0.93480  Biso   1.000  C
  C43      1.0000 0.14210  0.00010  0.05800  Biso   1.000  C
  C44      1.0000 0.85790  0.50010  0.94200  Biso   1.000  C
  H59      1.0000 0.18050  0.04520  0.11750  Biso   1.000  H
  H60      1.0000 0.81950  0.54520  0.88250  Biso   1.000  H
  H61      1.0000 0.08490  0.96980  0.09420  Biso   1.000  H
  H62      1.0000 0.91510  0.46980  0.90580  Biso   1.000  H
  H63      1.0000 0.07520  0.01460  0.95770  Biso   1.000  H
  H64      1.0000 0.92480  0.51460  0.04230  Biso   1.000  H
  C45      1.0000 0.71370  0.90460  0.98080  Biso   1.000  C
  C46      1.0000 0.28630  0.40460  0.01920  Biso   1.000  C
  C47      1.0000 0.57090  0.90670  0.84140  Biso   1.000  C
  C48      1.0000 0.42910  0.40670  0.15860  Biso   1.000  C
  H65      1.0000 0.55850  0.85920  0.79030  Biso   1.000  H
  H66      1.0000 0.44150  0.35920  0.20970  Biso   1.000  H
  H67      1.0000 0.57620  0.94780  0.78190  Biso   1.000  H
  H68      1.0000 0.42380  0.44780  0.21810  Biso   1.000  H
  H69      1.0000 0.48400  0.91440  0.86010  Biso   1.000  H
  H70      1.0000 0.51600  0.41440  0.13990  Biso   1.000  H
  Cu1      1.0000 0.59340  0.10232  0.47359  Biso   1.000  Cu
  Cu2      1.0000 0.40660  0.60232  0.52641  Biso   1.000  Cu
  Cu3      1.0000 0.46403  0.20497  0.58043  Biso   1.000  Cu
  Cu4      1.0000 0.53597  0.70497  0.41957  Biso   1.000  Cu
  I1       1.0000 0.69647  0.12412  0.75957  Biso   1.000  I
  I2       1.0000 0.30353  0.62412  0.24043  Biso   1.000  I
  I3       1.0000 0.36549  0.18670  0.29154  Biso   1.000  I
  I4       1.0000 0.63451  0.68670  0.70846  Biso   1.000  I
  N1       1.0000 0.55880  0.98384  0.44290  Biso   1.000  N
  N2       1.0000 0.44120  0.48384  0.55710  Biso   1.000  N
  N3       1.0000 0.53050  0.82459  0.41090  Biso   1.000  N
  N4       1.0000 0.46950  0.32459  0.58910  Biso   1.000  N
  N5       1.0000 0.95150  0.87890  0.74990  Biso   1.000  N
  N6       1.0000 0.04850  0.37890  0.25010  Biso   1.000  N
  N7       1.0000 0.37390  0.92120  0.06880  Biso   1.000  N
  N8       1.0000 0.62610  0.42120  0.93120  Biso   1.000  N
  N9       1.0000 0.82220  0.90230  0.09180  Biso   1.000  N
  N10      1.0000 0.17780  0.40230  0.90820  Biso   1.000  N
  S1       1.0000 0.81647  0.08366  0.44692  Biso   1.000  S
  S2       1.0000 0.18353  0.58366  0.55308  Biso   1.000  S
  S3       1.0000 0.76596  0.71368  0.40346  Biso   1.000  S
  S4       1.0000 0.23404  0.21368  0.59654  Biso   1.000  S
