data_image0
_cell_length_a       10.979
_cell_length_b       20.291
_cell_length_c       14.715
_cell_angle_alpha    90
_cell_angle_beta     91.07
_cell_angle_gamma    90

_symmetry_space_group_name_H-M    "P 1"
_symmetry_int_tables_number       1

loop_
  _symmetry_equiv_pos_as_xyz
  'x, y, z'

loop_
  _atom_site_label
  _atom_site_occupancy
  _atom_site_fract_x
  _atom_site_fract_y
  _atom_site_fract_z
  _atom_site_thermal_displace_type
  _atom_site_B_iso_or_equiv
  _atom_site_type_symbol
  Cu1      1.0000 0.09960  0.84430  0.77730  Biso   1.000  Cu
  Cu2      1.0000 0.40040  0.34430  0.22270  Biso   1.000  Cu
  Cu3      1.0000 0.90040  0.15570  0.22270  Biso   1.000  Cu
  Cu4      1.0000 0.59960  0.65570  0.77730  Biso   1.000  Cu
  Cu5      1.0000 0.30080  0.15720  0.76190  Biso   1.000  Cu
  Cu6      1.0000 0.19920  0.65720  0.23810  Biso   1.000  Cu
  Cu7      1.0000 0.69920  0.84280  0.23810  Biso   1.000  Cu
  Cu8      1.0000 0.80080  0.34280  0.76190  Biso   1.000  Cu
  Cl1      1.0000 0.91090  0.12480  0.91540  Biso   1.000  Cl
  Cl2      1.0000 0.58910  0.62480  0.08460  Biso   1.000  Cl
  Cl3      1.0000 0.08910  0.87520  0.08460  Biso   1.000  Cl
  Cl4      1.0000 0.41090  0.37520  0.91540  Biso   1.000  Cl
  Cl5      1.0000 0.49400  0.14140  0.39150  Biso   1.000  Cl
  Cl6      1.0000 0.00600  0.64140  0.60850  Biso   1.000  Cl
  Cl7      1.0000 0.50600  0.85860  0.60850  Biso   1.000  Cl
  Cl8      1.0000 0.99400  0.35860  0.39150  Biso   1.000  Cl
  O1       1.0000 0.29500  0.11520  0.60900  Biso   1.000  O
  O2       1.0000 0.20500  0.61520  0.39100  Biso   1.000  O
  O3       1.0000 0.70500  0.88480  0.39100  Biso   1.000  O
  O4       1.0000 0.79500  0.38480  0.60900  Biso   1.000  O
  O5       1.0000 0.37400  0.16470  0.92000  Biso   1.000  O
  O6       1.0000 0.12600  0.66470  0.08000  Biso   1.000  O
  O7       1.0000 0.62600  0.83530  0.08000  Biso   1.000  O
  O8       1.0000 0.87400  0.33530  0.92000  Biso   1.000  O
  O9       1.0000 0.03200  0.84550  0.63300  Biso   1.000  O
  O10      1.0000 0.46800  0.34550  0.36700  Biso   1.000  O
  O11      1.0000 0.96800  0.15450  0.36700  Biso   1.000  O
  O12      1.0000 0.53200  0.65450  0.63300  Biso   1.000  O
  O13      1.0000 0.02800  0.08200  0.58300  Biso   1.000  O
  O14      1.0000 0.47200  0.58200  0.41700  Biso   1.000  O
  O15      1.0000 0.97200  0.91800  0.41700  Biso   1.000  O
  O16      1.0000 0.52800  0.41800  0.58300  Biso   1.000  O
  O17      1.0000 0.48000  0.94700  0.88300  Biso   1.000  O
  O18      1.0000 0.02000  0.44700  0.11700  Biso   1.000  O
  O19      1.0000 0.52000  0.05300  0.11700  Biso   1.000  O
  O20      1.0000 0.98000  0.55300  0.88300  Biso   1.000  O
  O21      1.0000 0.88800  0.05700  0.91300  Biso   1.000  O
  O22      1.0000 0.61200  0.55700  0.08700  Biso   1.000  O
  O23      1.0000 0.11200  0.94300  0.08700  Biso   1.000  O
  O24      1.0000 0.38800  0.44300  0.91300  Biso   1.000  O
  O25      1.0000 0.83800  0.15400  0.96700  Biso   1.000  O
  O26      1.0000 0.66200  0.65400  0.03300  Biso   1.000  O
  O27      1.0000 0.16200  0.84600  0.03300  Biso   1.000  O
  O28      1.0000 0.33800  0.34600  0.96700  Biso   1.000  O
  O29      1.0000 0.90200  0.14900  0.83200  Biso   1.000  O
  O30      1.0000 0.59800  0.64900  0.16800  Biso   1.000  O
  O31      1.0000 0.09800  0.85100  0.16800  Biso   1.000  O
  O32      1.0000 0.40200  0.35100  0.83200  Biso   1.000  O
  O33      1.0000 0.02200  0.13300  0.94800  Biso   1.000  O
  O34      1.0000 0.47800  0.63300  0.05200  Biso   1.000  O
  O35      1.0000 0.97800  0.86700  0.05200  Biso   1.000  O
  O36      1.0000 0.52200  0.36700  0.94800  Biso   1.000  O
  O37      1.0000 0.44000  0.19400  0.43700  Biso   1.000  O
  O38      1.0000 0.06000  0.69400  0.56300  Biso   1.000  O
  O39      1.0000 0.56000  0.80600  0.56300  Biso   1.000  O
  O40      1.0000 0.94000  0.30600  0.43700  Biso   1.000  O
  O41      1.0000 0.51400  0.16000  0.29900  Biso   1.000  O
  O42      1.0000 0.98600  0.66000  0.70100  Biso   1.000  O
  O43      1.0000 0.48600  0.84000  0.70100  Biso   1.000  O
  O44      1.0000 0.01400  0.34000  0.29900  Biso   1.000  O
  O45      1.0000 0.59700  0.12600  0.43500  Biso   1.000  O
  O46      1.0000 0.90300  0.62600  0.56500  Biso   1.000  O
  O47      1.0000 0.40300  0.87400  0.56500  Biso   1.000  O
  O48      1.0000 0.09700  0.37400  0.43500  Biso   1.000  O
  O49      1.0000 0.41400  0.08700  0.38700  Biso   1.000  O
  O50      1.0000 0.08600  0.58700  0.61300  Biso   1.000  O
  O51      1.0000 0.58600  0.91300  0.61300  Biso   1.000  O
  O52      1.0000 0.91400  0.41300  0.38700  Biso   1.000  O
  N1       1.0000 0.16200  0.93600  0.78700  Biso   1.000  N
  N2       1.0000 0.33800  0.43600  0.21300  Biso   1.000  N
  N3       1.0000 0.83800  0.06400  0.21300  Biso   1.000  N
  N4       1.0000 0.66200  0.56400  0.78700  Biso   1.000  N
  N5       1.0000 0.25000  0.06300  0.77800  Biso   1.000  N
  N6       1.0000 0.25000  0.56300  0.22200  Biso   1.000  N
  N7       1.0000 0.75000  0.93700  0.22200  Biso   1.000  N
  N8       1.0000 0.75000  0.43700  0.77800  Biso   1.000  N
  N9       1.0000 0.33700  0.01500  0.54800  Biso   1.000  N
  N10      1.0000 0.16300  0.51500  0.45200  Biso   1.000  N
  N11      1.0000 0.66300  0.98500  0.45200  Biso   1.000  N
  N12      1.0000 0.83700  0.48500  0.54800  Biso   1.000  N
  N13      1.0000 0.67300  0.27500  0.75400  Biso   1.000  N
  N14      1.0000 0.82700  0.77500  0.24600  Biso   1.000  N
  N15      1.0000 0.32700  0.72500  0.24600  Biso   1.000  N
  N16      1.0000 0.17300  0.22500  0.75400  Biso   1.000  N
  N17      1.0000 0.46800  0.19600  0.75300  Biso   1.000  N
  N18      1.0000 0.03200  0.69600  0.24700  Biso   1.000  N
  N19      1.0000 0.53200  0.80400  0.24700  Biso   1.000  N
  N20      1.0000 0.96800  0.30400  0.75300  Biso   1.000  N
  N21      1.0000 0.57000  0.15100  0.97800  Biso   1.000  N
  N22      1.0000 0.93000  0.65100  0.02200  Biso   1.000  N
  N23      1.0000 0.43000  0.84900  0.02200  Biso   1.000  N
  N24      1.0000 0.07000  0.34900  0.97800  Biso   1.000  N
  N25      1.0000 0.72500  0.72500  0.78300  Biso   1.000  N
  N26      1.0000 0.77500  0.22500  0.21700  Biso   1.000  N
  N27      1.0000 0.27500  0.27500  0.21700  Biso   1.000  N
  N28      1.0000 0.22500  0.77500  0.78300  Biso   1.000  N
  N29      1.0000 0.93200  0.80850  0.78800  Biso   1.000  N
  N30      1.0000 0.56800  0.30850  0.21200  Biso   1.000  N
  N31      1.0000 0.06800  0.19150  0.21200  Biso   1.000  N
  N32      1.0000 0.43200  0.69150  0.78800  Biso   1.000  N
  N33      1.0000 0.85200  0.83900  0.55700  Biso   1.000  N
  N34      1.0000 0.64800  0.33900  0.44300  Biso   1.000  N
  N35      1.0000 0.14800  0.16100  0.44300  Biso   1.000  N
  N36      1.0000 0.35200  0.66100  0.55700  Biso   1.000  N
  C1       1.0000 0.25200  0.02700  0.70200  Biso   1.000  C
  C2       1.0000 0.24800  0.52700  0.29800  Biso   1.000  C
  C3       1.0000 0.74800  0.97300  0.29800  Biso   1.000  C
  C4       1.0000 0.75200  0.47300  0.70200  Biso   1.000  C
  C5       1.0000 0.20600  0.96100  0.70900  Biso   1.000  C
  C6       1.0000 0.29400  0.46100  0.29100  Biso   1.000  C
  C7       1.0000 0.79400  0.03900  0.29100  Biso   1.000  C
  C8       1.0000 0.70600  0.53900  0.70900  Biso   1.000  C
  C9       1.0000 0.16800  0.97800  0.85700  Biso   1.000  C
  C10      1.0000 0.33200  0.47800  0.14300  Biso   1.000  C
  C11      1.0000 0.83200  0.02200  0.14300  Biso   1.000  C
  C12      1.0000 0.66800  0.52200  0.85700  Biso   1.000  C
  C13      1.0000 0.21200  0.03800  0.85400  Biso   1.000  C
  C14      1.0000 0.28800  0.53800  0.14600  Biso   1.000  C
  C15      1.0000 0.78800  0.96200  0.14600  Biso   1.000  C
  C16      1.0000 0.71200  0.46200  0.85400  Biso   1.000  C
  C17      1.0000 0.30000  0.05410  0.61100  Biso   1.000  C
  C18      1.0000 0.20000  0.55410  0.38900  Biso   1.000  C
  C19      1.0000 0.70000  0.94590  0.38900  Biso   1.000  C
  C20      1.0000 0.80000  0.44590  0.61100  Biso   1.000  C
  C21      1.0000 0.53200  0.20400  0.83000  Biso   1.000  C
  C22      1.0000 0.96800  0.70400  0.17000  Biso   1.000  C
  C23      1.0000 0.46800  0.79600  0.17000  Biso   1.000  C
  C24      1.0000 0.03200  0.29600  0.83000  Biso   1.000  C
  C25      1.0000 0.63700  0.24300  0.83300  Biso   1.000  C
  C26      1.0000 0.86300  0.74300  0.16700  Biso   1.000  C
  C27      1.0000 0.36300  0.75700  0.16700  Biso   1.000  C
  C28      1.0000 0.13700  0.25700  0.83300  Biso   1.000  C
  C29      1.0000 0.61400  0.26200  0.68100  Biso   1.000  C
  C30      1.0000 0.88600  0.76200  0.31900  Biso   1.000  C
  C31      1.0000 0.38600  0.73800  0.31900  Biso   1.000  C
  C32      1.0000 0.11400  0.23800  0.68100  Biso   1.000  C
  C33      1.0000 0.51300  0.22300  0.68000  Biso   1.000  C
  C34      1.0000 0.98700  0.72300  0.32000  Biso   1.000  C
  C35      1.0000 0.48700  0.77700  0.32000  Biso   1.000  C
  C36      1.0000 0.01300  0.27700  0.68000  Biso   1.000  C
  C37      1.0000 0.48800  0.17200  0.91500  Biso   1.000  C
  C38      1.0000 0.01200  0.67200  0.08500  Biso   1.000  C
  C39      1.0000 0.51200  0.82800  0.08500  Biso   1.000  C
  C40      1.0000 0.98800  0.32800  0.91500  Biso   1.000  C
  C41      1.0000 0.87100  0.79600  0.70900  Biso   1.000  C
  C42      1.0000 0.62900  0.29600  0.29100  Biso   1.000  C
  C43      1.0000 0.12900  0.20400  0.29100  Biso   1.000  C
  C44      1.0000 0.37100  0.70400  0.70900  Biso   1.000  C
  C45      1.0000 0.77000  0.75700  0.71000  Biso   1.000  C
  C46      1.0000 0.73000  0.25700  0.29000  Biso   1.000  C
  C47      1.0000 0.23000  0.24300  0.29000  Biso   1.000  C
  C48      1.0000 0.27000  0.74300  0.71000  Biso   1.000  C
  C49      1.0000 0.78800  0.74100  0.86000  Biso   1.000  C
  C50      1.0000 0.71200  0.24100  0.14000  Biso   1.000  C
  C51      1.0000 0.21200  0.25900  0.14000  Biso   1.000  C
  C52      1.0000 0.28800  0.75900  0.86000  Biso   1.000  C
  C53      1.0000 0.89200  0.78200  0.86700  Biso   1.000  C
  C54      1.0000 0.60800  0.28200  0.13300  Biso   1.000  C
  C55      1.0000 0.10800  0.21800  0.13300  Biso   1.000  C
  C56      1.0000 0.39200  0.71800  0.86700  Biso   1.000  C
  C57      1.0000 0.92500  0.83100  0.62700  Biso   1.000  C
  C58      1.0000 0.57500  0.33100  0.37300  Biso   1.000  C
  C59      1.0000 0.07500  0.16900  0.37300  Biso   1.000  C
  C60      1.0000 0.42500  0.66900  0.62700  Biso   1.000  C
  C61      1.0000 0.88500  0.01200  0.66100  Biso   1.000  C
  C62      1.0000 0.61500  0.51200  0.33900  Biso   1.000  C
  C63      1.0000 0.11500  0.98800  0.33900  Biso   1.000  C
  C64      1.0000 0.38500  0.48800  0.66100  Biso   1.000  C
  C65      1.0000 0.92100  0.07300  0.60800  Biso   1.000  C
  C66      1.0000 0.57900  0.57300  0.39200  Biso   1.000  C
  C67      1.0000 0.07900  0.92700  0.39200  Biso   1.000  C
  C68      1.0000 0.42100  0.42700  0.60800  Biso   1.000  C
  C69      1.0000 0.83600  0.12600  0.59800  Biso   1.000  C
  C70      1.0000 0.66400  0.62600  0.40200  Biso   1.000  C
  C71      1.0000 0.16400  0.87400  0.40200  Biso   1.000  C
  C72      1.0000 0.33600  0.37400  0.59800  Biso   1.000  C
  C73      1.0000 0.58600  0.02200  0.79600  Biso   1.000  C
  C74      1.0000 0.91400  0.52200  0.20400  Biso   1.000  C
  C75      1.0000 0.41400  0.97800  0.20400  Biso   1.000  C
  C76      1.0000 0.08600  0.47800  0.79600  Biso   1.000  C
  C77      1.0000 0.57600  0.96300  0.84800  Biso   1.000  C
  C78      1.0000 0.92400  0.46300  0.15200  Biso   1.000  C
  C79      1.0000 0.42400  0.03700  0.15200  Biso   1.000  C
  C80      1.0000 0.07600  0.53700  0.84800  Biso   1.000  C
  C81      1.0000 0.68800  0.92400  0.86100  Biso   1.000  C
  C82      1.0000 0.81200  0.42400  0.13900  Biso   1.000  C
  C83      1.0000 0.31200  0.07600  0.13900  Biso   1.000  C
  C84      1.0000 0.18800  0.57600  0.86100  Biso   1.000  C
  H1       1.0000 0.20450  0.93440  0.65550  Biso   1.000  H
  H2       1.0000 0.29550  0.43440  0.34450  Biso   1.000  H
  H3       1.0000 0.79550  0.06560  0.34450  Biso   1.000  H
  H4       1.0000 0.70450  0.56560  0.65550  Biso   1.000  H
  H5       1.0000 0.13710  0.96350  0.91340  Biso   1.000  H
  H6       1.0000 0.36290  0.46350  0.08660  Biso   1.000  H
  H7       1.0000 0.86290  0.03650  0.08660  Biso   1.000  H
  H8       1.0000 0.63710  0.53650  0.91340  Biso   1.000  H
  H9       1.0000 0.21610  0.06340  0.90800  Biso   1.000  H
  H10      1.0000 0.28390  0.56340  0.09200  Biso   1.000  H
  H11      1.0000 0.78390  0.93660  0.09200  Biso   1.000  H
  H12      1.0000 0.71610  0.43660  0.90800  Biso   1.000  H
  H13      1.0000 0.68330  0.24770  0.88790  Biso   1.000  H
  H14      1.0000 0.81670  0.74770  0.11210  Biso   1.000  H
  H15      1.0000 0.31670  0.75230  0.11210  Biso   1.000  H
  H16      1.0000 0.18330  0.25230  0.88790  Biso   1.000  H
  H17      1.0000 0.64050  0.28030  0.62570  Biso   1.000  H
  H18      1.0000 0.85950  0.78030  0.37430  Biso   1.000  H
  H19      1.0000 0.35950  0.71970  0.37430  Biso   1.000  H
  H20      1.0000 0.14050  0.21970  0.62570  Biso   1.000  H
  H21      1.0000 0.47250  0.21520  0.62330  Biso   1.000  H
  H22      1.0000 0.02750  0.71520  0.37670  Biso   1.000  H
  H23      1.0000 0.52750  0.78480  0.37670  Biso   1.000  H
  H24      1.0000 0.97250  0.28480  0.62330  Biso   1.000  H
  H25      1.0000 0.72570  0.75150  0.65410  Biso   1.000  H
  H26      1.0000 0.77430  0.25150  0.34590  Biso   1.000  H
  H27      1.0000 0.27430  0.24850  0.34590  Biso   1.000  H
  H28      1.0000 0.22570  0.74850  0.65410  Biso   1.000  H
  H29      1.0000 0.75870  0.72200  0.91490  Biso   1.000  H
  H30      1.0000 0.74130  0.22200  0.08510  Biso   1.000  H
  H31      1.0000 0.24130  0.27800  0.08510  Biso   1.000  H
  H32      1.0000 0.25870  0.77800  0.91490  Biso   1.000  H
  H33      1.0000 0.93020  0.79100  0.92440  Biso   1.000  H
  H34      1.0000 0.56980  0.29100  0.07560  Biso   1.000  H
  H35      1.0000 0.06980  0.20900  0.07560  Biso   1.000  H
  H36      1.0000 0.43020  0.70900  0.92440  Biso   1.000  H
  H37      1.0000 0.80110  0.01620  0.67630  Biso   1.000  H
  H38      1.0000 0.69890  0.51620  0.32370  Biso   1.000  H
  H39      1.0000 0.19890  0.98380  0.32370  Biso   1.000  H
  H40      1.0000 0.30110  0.48380  0.67630  Biso   1.000  H
  H41      1.0000 0.89410  0.97440  0.62300  Biso   1.000  H
  H42      1.0000 0.60590  0.47440  0.37700  Biso   1.000  H
  H43      1.0000 0.10590  0.02560  0.37700  Biso   1.000  H
  H44      1.0000 0.39410  0.52560  0.62300  Biso   1.000  H
  H45      1.0000 0.93330  0.00800  0.71360  Biso   1.000  H
  H46      1.0000 0.56670  0.50800  0.28640  Biso   1.000  H
  H47      1.0000 0.06670  0.99200  0.28640  Biso   1.000  H
  H48      1.0000 0.43330  0.49200  0.71360  Biso   1.000  H
  H49      1.0000 0.76050  0.11240  0.62170  Biso   1.000  H
  H50      1.0000 0.73950  0.61240  0.37830  Biso   1.000  H
  H51      1.0000 0.23950  0.88760  0.37830  Biso   1.000  H
  H52      1.0000 0.26050  0.38760  0.62170  Biso   1.000  H
  H53      1.0000 0.82730  0.13600  0.53560  Biso   1.000  H
  H54      1.0000 0.67270  0.63600  0.46440  Biso   1.000  H
  H55      1.0000 0.17270  0.86400  0.46440  Biso   1.000  H
  H56      1.0000 0.32730  0.36400  0.53560  Biso   1.000  H
  H57      1.0000 0.86610  0.16290  0.63050  Biso   1.000  H
  H58      1.0000 0.63390  0.66290  0.36950  Biso   1.000  H
  H59      1.0000 0.13390  0.83710  0.36950  Biso   1.000  H
  H60      1.0000 0.36610  0.33710  0.63050  Biso   1.000  H
  H61      1.0000 0.52920  0.02100  0.74540  Biso   1.000  H
  H62      1.0000 0.97080  0.52100  0.25460  Biso   1.000  H
  H63      1.0000 0.47080  0.97900  0.25460  Biso   1.000  H
  H64      1.0000 0.02920  0.47900  0.74540  Biso   1.000  H
  H65      1.0000 0.56770  0.05930  0.83250  Biso   1.000  H
  H66      1.0000 0.93230  0.55930  0.16750  Biso   1.000  H
  H67      1.0000 0.43230  0.94070  0.16750  Biso   1.000  H
  H68      1.0000 0.06770  0.44070  0.83250  Biso   1.000  H
  H69      1.0000 0.66580  0.02620  0.77330  Biso   1.000  H
  H70      1.0000 0.83420  0.52620  0.22670  Biso   1.000  H
  H71      1.0000 0.33420  0.97380  0.22670  Biso   1.000  H
  H72      1.0000 0.16580  0.47380  0.77330  Biso   1.000  H
  H73      1.0000 0.75090  0.94450  0.82770  Biso   1.000  H
  H74      1.0000 0.74910  0.44450  0.17230  Biso   1.000  H
  H75      1.0000 0.24910  0.05550  0.17230  Biso   1.000  H
  H76      1.0000 0.25090  0.55550  0.82770  Biso   1.000  H
  H77      1.0000 0.70820  0.92380  0.92350  Biso   1.000  H
  H78      1.0000 0.79180  0.42380  0.07650  Biso   1.000  H
  H79      1.0000 0.29180  0.07620  0.07650  Biso   1.000  H
  H80      1.0000 0.20820  0.57620  0.92350  Biso   1.000  H
  H81      1.0000 0.67370  0.88110  0.83940  Biso   1.000  H
  H82      1.0000 0.82630  0.38110  0.16060  Biso   1.000  H
  H83      1.0000 0.32630  0.11890  0.16060  Biso   1.000  H
  H84      1.0000 0.17370  0.61890  0.83940  Biso   1.000  H
