data_image0
_cell_length_a       21.46
_cell_length_b       24.199
_cell_length_c       8.449
_cell_angle_alpha    90
_cell_angle_beta     90
_cell_angle_gamma    90

_symmetry_space_group_name_H-M    "P 1"
_symmetry_int_tables_number       1

loop_
  _symmetry_equiv_pos_as_xyz
  'x, y, z'

loop_
  _atom_site_label
  _atom_site_occupancy
  _atom_site_fract_x
  _atom_site_fract_y
  _atom_site_fract_z
  _atom_site_thermal_displace_type
  _atom_site_B_iso_or_equiv
  _atom_site_type_symbol
  Cu1      1.0000 0.91439  0.51842  0.33280  Biso   1.000  Cu
  Cu2      1.0000 0.08561  0.48158  0.33280  Biso   1.000  Cu
  Cu3      1.0000 0.33561  0.76842  0.58280  Biso   1.000  Cu
  Cu4      1.0000 0.66439  0.23158  0.58280  Biso   1.000  Cu
  Cu5      1.0000 0.91439  0.01842  0.83280  Biso   1.000  Cu
  Cu6      1.0000 0.08561  0.98158  0.83280  Biso   1.000  Cu
  Cu7      1.0000 0.33561  0.26842  0.08280  Biso   1.000  Cu
  Cu8      1.0000 0.66439  0.73158  0.08280  Biso   1.000  Cu
  Cu9      1.0000 0.41439  0.51842  0.83280  Biso   1.000  Cu
  Cu10     1.0000 0.58561  0.48158  0.83280  Biso   1.000  Cu
  Cu11     1.0000 0.83561  0.76842  0.08280  Biso   1.000  Cu
  Cu12     1.0000 0.16439  0.23158  0.08280  Biso   1.000  Cu
  Cu13     1.0000 0.41439  0.01842  0.33280  Biso   1.000  Cu
  Cu14     1.0000 0.58561  0.98158  0.33280  Biso   1.000  Cu
  Cu15     1.0000 0.83561  0.26842  0.58280  Biso   1.000  Cu
  Cu16     1.0000 0.16439  0.73158  0.58280  Biso   1.000  Cu
  F1       1.0000 0.44980  0.34010  0.33300  Biso   1.000  F
  F2       1.0000 0.55020  0.65990  0.33300  Biso   1.000  F
  F3       1.0000 0.80020  0.59010  0.58300  Biso   1.000  F
  F4       1.0000 0.19980  0.40990  0.58300  Biso   1.000  F
  F5       1.0000 0.44980  0.84010  0.83300  Biso   1.000  F
  F6       1.0000 0.55020  0.15990  0.83300  Biso   1.000  F
  F7       1.0000 0.80020  0.09010  0.08300  Biso   1.000  F
  F8       1.0000 0.19980  0.90990  0.08300  Biso   1.000  F
  F9       1.0000 0.94980  0.34010  0.83300  Biso   1.000  F
  F10      1.0000 0.05020  0.65990  0.83300  Biso   1.000  F
  F11      1.0000 0.30020  0.59010  0.08300  Biso   1.000  F
  F12      1.0000 0.69980  0.40990  0.08300  Biso   1.000  F
  F13      1.0000 0.94980  0.84010  0.33300  Biso   1.000  F
  F14      1.0000 0.05020  0.15990  0.33300  Biso   1.000  F
  F15      1.0000 0.30020  0.09010  0.58300  Biso   1.000  F
  F16      1.0000 0.69980  0.90990  0.58300  Biso   1.000  F
  F17      1.0000 0.50500  0.35740  0.54800  Biso   1.000  F
  F18      1.0000 0.49500  0.64260  0.54800  Biso   1.000  F
  F19      1.0000 0.74500  0.60740  0.79800  Biso   1.000  F
  F20      1.0000 0.25500  0.39260  0.79800  Biso   1.000  F
  F21      1.0000 0.50500  0.85740  0.04800  Biso   1.000  F
  F22      1.0000 0.49500  0.14260  0.04800  Biso   1.000  F
  F23      1.0000 0.74500  0.10740  0.29800  Biso   1.000  F
  F24      1.0000 0.25500  0.89260  0.29800  Biso   1.000  F
  F25      1.0000 0.00500  0.35740  0.04800  Biso   1.000  F
  F26      1.0000 0.99500  0.64260  0.04800  Biso   1.000  F
  F27      1.0000 0.24500  0.60740  0.29800  Biso   1.000  F
  F28      1.0000 0.75500  0.39260  0.29800  Biso   1.000  F
  F29      1.0000 0.00500  0.85740  0.54800  Biso   1.000  F
  F30      1.0000 0.99500  0.14260  0.54800  Biso   1.000  F
  F31      1.0000 0.24500  0.10740  0.79800  Biso   1.000  F
  F32      1.0000 0.75500  0.89260  0.79800  Biso   1.000  F
  F33      1.0000 0.43850  0.28560  0.54000  Biso   1.000  F
  F34      1.0000 0.56150  0.71440  0.54000  Biso   1.000  F
  F35      1.0000 0.81150  0.53560  0.79000  Biso   1.000  F
  F36      1.0000 0.18850  0.46440  0.79000  Biso   1.000  F
  F37      1.0000 0.43850  0.78560  0.04000  Biso   1.000  F
  F38      1.0000 0.56150  0.21440  0.04000  Biso   1.000  F
  F39      1.0000 0.81150  0.03560  0.29000  Biso   1.000  F
  F40      1.0000 0.18850  0.96440  0.29000  Biso   1.000  F
  F41      1.0000 0.93850  0.28560  0.04000  Biso   1.000  F
  F42      1.0000 0.06150  0.71440  0.04000  Biso   1.000  F
  F43      1.0000 0.31150  0.53560  0.29000  Biso   1.000  F
  F44      1.0000 0.68850  0.46440  0.29000  Biso   1.000  F
  F45      1.0000 0.93850  0.78560  0.54000  Biso   1.000  F
  F46      1.0000 0.06150  0.21440  0.54000  Biso   1.000  F
  F47      1.0000 0.31150  0.03560  0.79000  Biso   1.000  F
  F48      1.0000 0.68850  0.96440  0.79000  Biso   1.000  F
  F49      1.0000 0.52620  0.28230  0.40290  Biso   1.000  F
  F50      1.0000 0.47380  0.71770  0.40290  Biso   1.000  F
  F51      1.0000 0.72380  0.53230  0.65290  Biso   1.000  F
  F52      1.0000 0.27620  0.46770  0.65290  Biso   1.000  F
  F53      1.0000 0.52620  0.78230  0.90290  Biso   1.000  F
  F54      1.0000 0.47380  0.21770  0.90290  Biso   1.000  F
  F55      1.0000 0.72380  0.03230  0.15290  Biso   1.000  F
  F56      1.0000 0.27620  0.96770  0.15290  Biso   1.000  F
  F57      1.0000 0.02620  0.28230  0.90290  Biso   1.000  F
  F58      1.0000 0.97380  0.71770  0.90290  Biso   1.000  F
  F59      1.0000 0.22380  0.53230  0.15290  Biso   1.000  F
  F60      1.0000 0.77620  0.46770  0.15290  Biso   1.000  F
  F61      1.0000 0.02620  0.78230  0.40290  Biso   1.000  F
  F62      1.0000 0.97380  0.21770  0.40290  Biso   1.000  F
  F63      1.0000 0.22380  0.03230  0.65290  Biso   1.000  F
  F64      1.0000 0.77620  0.96770  0.65290  Biso   1.000  F
  O1       1.0000 0.79020  0.32360  0.75770  Biso   1.000  O
  O2       1.0000 0.20980  0.67640  0.75770  Biso   1.000  O
  O3       1.0000 0.45980  0.57360  0.00770  Biso   1.000  O
  O4       1.0000 0.54020  0.42640  0.00770  Biso   1.000  O
  O5       1.0000 0.79020  0.82360  0.25770  Biso   1.000  O
  O6       1.0000 0.20980  0.17640  0.25770  Biso   1.000  O
  O7       1.0000 0.45980  0.07360  0.50770  Biso   1.000  O
  O8       1.0000 0.54020  0.92640  0.50770  Biso   1.000  O
  O9       1.0000 0.29020  0.32360  0.25770  Biso   1.000  O
  O10      1.0000 0.70980  0.67640  0.25770  Biso   1.000  O
  O11      1.0000 0.95980  0.57360  0.50770  Biso   1.000  O
  O12      1.0000 0.04020  0.42640  0.50770  Biso   1.000  O
  O13      1.0000 0.29020  0.82360  0.75770  Biso   1.000  O
  O14      1.0000 0.70980  0.17640  0.75770  Biso   1.000  O
  O15      1.0000 0.95980  0.07360  0.00770  Biso   1.000  O
  O16      1.0000 0.04020  0.92640  0.00770  Biso   1.000  O
  O17      1.0000 0.75000  0.25000  0.40800  Biso   1.000  O
  O18      1.0000 0.25000  0.75000  0.40800  Biso   1.000  O
  O19      1.0000 0.50000  0.50000  0.65800  Biso   1.000  O
  O20      1.0000 0.75000  0.75000  0.90800  Biso   1.000  O
  O21      1.0000 0.25000  0.25000  0.90800  Biso   1.000  O
  O22      1.0000 0.50000  0.00000  0.15800  Biso   1.000  O
  O23      1.0000 0.00000  0.50000  0.15800  Biso   1.000  O
  O24      1.0000 0.00000  0.00000  0.65800  Biso   1.000  O
  N1       1.0000 0.89450  0.44530  0.40730  Biso   1.000  N
  N2       1.0000 0.10550  0.55470  0.40730  Biso   1.000  N
  N3       1.0000 0.35550  0.69530  0.65730  Biso   1.000  N
  N4       1.0000 0.64450  0.30470  0.65730  Biso   1.000  N
  N5       1.0000 0.89450  0.94530  0.90730  Biso   1.000  N
  N6       1.0000 0.10550  0.05470  0.90730  Biso   1.000  N
  N7       1.0000 0.35550  0.19530  0.15730  Biso   1.000  N
  N8       1.0000 0.64450  0.80470  0.15730  Biso   1.000  N
  N9       1.0000 0.39450  0.44530  0.90730  Biso   1.000  N
  N10      1.0000 0.60550  0.55470  0.90730  Biso   1.000  N
  N11      1.0000 0.85550  0.69530  0.15730  Biso   1.000  N
  N12      1.0000 0.14450  0.30470  0.15730  Biso   1.000  N
  N13      1.0000 0.39450  0.94530  0.40730  Biso   1.000  N
  N14      1.0000 0.60550  0.05470  0.40730  Biso   1.000  N
  N15      1.0000 0.85550  0.19530  0.65730  Biso   1.000  N
  N16      1.0000 0.14450  0.80470  0.65730  Biso   1.000  N
  N17      1.0000 0.86420  0.33960  0.50520  Biso   1.000  N
  N18      1.0000 0.13580  0.66040  0.50520  Biso   1.000  N
  N19      1.0000 0.38580  0.58960  0.75520  Biso   1.000  N
  N20      1.0000 0.61420  0.41040  0.75520  Biso   1.000  N
  N21      1.0000 0.86420  0.83960  0.00520  Biso   1.000  N
  N22      1.0000 0.13580  0.16040  0.00520  Biso   1.000  N
  N23      1.0000 0.38580  0.08960  0.25520  Biso   1.000  N
  N24      1.0000 0.61420  0.91040  0.25520  Biso   1.000  N
  N25      1.0000 0.36420  0.33960  0.00520  Biso   1.000  N
  N26      1.0000 0.63580  0.66040  0.00520  Biso   1.000  N
  N27      1.0000 0.88580  0.58960  0.25520  Biso   1.000  N
  N28      1.0000 0.11420  0.41040  0.25520  Biso   1.000  N
  N29      1.0000 0.36420  0.83960  0.50520  Biso   1.000  N
  N30      1.0000 0.63580  0.16040  0.50520  Biso   1.000  N
  N31      1.0000 0.88580  0.08960  0.75520  Biso   1.000  N
  N32      1.0000 0.11420  0.91040  0.75520  Biso   1.000  N
  N33      1.0000 0.78770  0.41410  0.82100  Biso   1.000  N
  N34      1.0000 0.21230  0.58590  0.82100  Biso   1.000  N
  N35      1.0000 0.46230  0.66410  0.07100  Biso   1.000  N
  N36      1.0000 0.53770  0.33590  0.07100  Biso   1.000  N
  N37      1.0000 0.78770  0.91410  0.32100  Biso   1.000  N
  N38      1.0000 0.21230  0.08590  0.32100  Biso   1.000  N
  N39      1.0000 0.46230  0.16410  0.57100  Biso   1.000  N
  N40      1.0000 0.53770  0.83590  0.57100  Biso   1.000  N
  N41      1.0000 0.28770  0.41410  0.32100  Biso   1.000  N
  N42      1.0000 0.71230  0.58590  0.32100  Biso   1.000  N
  N43      1.0000 0.96230  0.66410  0.57100  Biso   1.000  N
  N44      1.0000 0.03770  0.33590  0.57100  Biso   1.000  N
  N45      1.0000 0.28770  0.91410  0.82100  Biso   1.000  N
  N46      1.0000 0.71230  0.08590  0.82100  Biso   1.000  N
  N47      1.0000 0.96230  0.16410  0.07100  Biso   1.000  N
  N48      1.0000 0.03770  0.83590  0.07100  Biso   1.000  N
  C1       1.0000 0.84500  0.38460  0.58400  Biso   1.000  C
  C2       1.0000 0.15500  0.61540  0.58400  Biso   1.000  C
  C3       1.0000 0.40500  0.63460  0.83400  Biso   1.000  C
  C4       1.0000 0.59500  0.36540  0.83400  Biso   1.000  C
  C5       1.0000 0.84500  0.88460  0.08400  Biso   1.000  C
  C6       1.0000 0.15500  0.11540  0.08400  Biso   1.000  C
  C7       1.0000 0.40500  0.13460  0.33400  Biso   1.000  C
  C8       1.0000 0.59500  0.86540  0.33400  Biso   1.000  C
  C9       1.0000 0.34500  0.38460  0.08400  Biso   1.000  C
  C10      1.0000 0.65500  0.61540  0.08400  Biso   1.000  C
  C11      1.0000 0.90500  0.63460  0.33400  Biso   1.000  C
  C12      1.0000 0.09500  0.36540  0.33400  Biso   1.000  C
  C13      1.0000 0.34500  0.88460  0.58400  Biso   1.000  C
  C14      1.0000 0.65500  0.11540  0.58400  Biso   1.000  C
  C15      1.0000 0.90500  0.13460  0.83400  Biso   1.000  C
  C16      1.0000 0.09500  0.86540  0.83400  Biso   1.000  C
  C17      1.0000 0.86120  0.43690  0.53600  Biso   1.000  C
  C18      1.0000 0.13880  0.56310  0.53600  Biso   1.000  C
  C19      1.0000 0.38880  0.68690  0.78600  Biso   1.000  C
  C20      1.0000 0.61120  0.31310  0.78600  Biso   1.000  C
  C21      1.0000 0.86120  0.93690  0.03600  Biso   1.000  C
  C22      1.0000 0.13880  0.06310  0.03600  Biso   1.000  C
  C23      1.0000 0.38880  0.18690  0.28600  Biso   1.000  C
  C24      1.0000 0.61120  0.81310  0.28600  Biso   1.000  C
  C25      1.0000 0.36120  0.43690  0.03600  Biso   1.000  C
  C26      1.0000 0.63880  0.56310  0.03600  Biso   1.000  C
  C27      1.0000 0.88880  0.68690  0.28600  Biso   1.000  C
  C28      1.0000 0.11120  0.31310  0.28600  Biso   1.000  C
  C29      1.0000 0.36120  0.93690  0.53600  Biso   1.000  C
  C30      1.0000 0.63880  0.06310  0.53600  Biso   1.000  C
  C31      1.0000 0.88880  0.18690  0.78600  Biso   1.000  C
  C32      1.0000 0.11120  0.81310  0.78600  Biso   1.000  C
  C33      1.0000 0.66290  0.34910  0.57400  Biso   1.000  C
  C34      1.0000 0.33710  0.65090  0.57400  Biso   1.000  C
  C35      1.0000 0.58710  0.59910  0.82400  Biso   1.000  C
  C36      1.0000 0.41290  0.40090  0.82400  Biso   1.000  C
  C37      1.0000 0.66290  0.84910  0.07400  Biso   1.000  C
  C38      1.0000 0.33710  0.15090  0.07400  Biso   1.000  C
  C39      1.0000 0.58710  0.09910  0.32400  Biso   1.000  C
  C40      1.0000 0.41290  0.90090  0.32400  Biso   1.000  C
  C41      1.0000 0.16290  0.34910  0.07400  Biso   1.000  C
  C42      1.0000 0.83710  0.65090  0.07400  Biso   1.000  C
  C43      1.0000 0.08710  0.59910  0.32400  Biso   1.000  C
  C44      1.0000 0.91290  0.40090  0.32400  Biso   1.000  C
  C45      1.0000 0.16290  0.84910  0.57400  Biso   1.000  C
  C46      1.0000 0.83710  0.15090  0.57400  Biso   1.000  C
  C47      1.0000 0.08710  0.09910  0.82400  Biso   1.000  C
  C48      1.0000 0.91290  0.90090  0.82400  Biso   1.000  C
  C49      1.0000 0.64800  0.40170  0.63000  Biso   1.000  C
  C50      1.0000 0.35200  0.59830  0.63000  Biso   1.000  C
  C51      1.0000 0.60200  0.65170  0.88000  Biso   1.000  C
  C52      1.0000 0.39800  0.34830  0.88000  Biso   1.000  C
  C53      1.0000 0.64800  0.90170  0.13000  Biso   1.000  C
  C54      1.0000 0.35200  0.09830  0.13000  Biso   1.000  C
  C55      1.0000 0.60200  0.15170  0.38000  Biso   1.000  C
  C56      1.0000 0.39800  0.84830  0.38000  Biso   1.000  C
  C57      1.0000 0.14800  0.40170  0.13000  Biso   1.000  C
  C58      1.0000 0.85200  0.59830  0.13000  Biso   1.000  C
  C59      1.0000 0.10200  0.65170  0.38000  Biso   1.000  C
  C60      1.0000 0.89800  0.34830  0.38000  Biso   1.000  C
  C61      1.0000 0.14800  0.90170  0.63000  Biso   1.000  C
  C62      1.0000 0.85200  0.09830  0.63000  Biso   1.000  C
  C63      1.0000 0.10200  0.15170  0.88000  Biso   1.000  C
  C64      1.0000 0.89800  0.84830  0.88000  Biso   1.000  C
  C65      1.0000 0.80430  0.37130  0.73200  Biso   1.000  C
  C66      1.0000 0.19570  0.62870  0.73200  Biso   1.000  C
  C67      1.0000 0.44570  0.62130  0.98200  Biso   1.000  C
  C68      1.0000 0.55430  0.37870  0.98200  Biso   1.000  C
  C69      1.0000 0.80430  0.87130  0.23200  Biso   1.000  C
  C70      1.0000 0.19570  0.12870  0.23200  Biso   1.000  C
  C71      1.0000 0.44570  0.12130  0.48200  Biso   1.000  C
  C72      1.0000 0.55430  0.87870  0.48200  Biso   1.000  C
  C73      1.0000 0.30430  0.37130  0.23200  Biso   1.000  C
  C74      1.0000 0.69570  0.62870  0.23200  Biso   1.000  C
  C75      1.0000 0.94570  0.62130  0.48200  Biso   1.000  C
  C76      1.0000 0.05430  0.37870  0.48200  Biso   1.000  C
  C77      1.0000 0.30430  0.87130  0.73200  Biso   1.000  C
  C78      1.0000 0.69570  0.12870  0.73200  Biso   1.000  C
  C79      1.0000 0.94570  0.12130  0.98200  Biso   1.000  C
  C80      1.0000 0.05430  0.87870  0.98200  Biso   1.000  C
  C81      1.0000 0.69130  0.26140  0.17400  Biso   1.000  C
  C82      1.0000 0.30870  0.73860  0.17400  Biso   1.000  C
  C83      1.0000 0.55870  0.51140  0.42400  Biso   1.000  C
  C84      1.0000 0.44130  0.48860  0.42400  Biso   1.000  C
  C85      1.0000 0.69130  0.76140  0.67400  Biso   1.000  C
  C86      1.0000 0.30870  0.23860  0.67400  Biso   1.000  C
  C87      1.0000 0.55870  0.01140  0.92400  Biso   1.000  C
  C88      1.0000 0.44130  0.98860  0.92400  Biso   1.000  C
  C89      1.0000 0.19130  0.26140  0.67400  Biso   1.000  C
  C90      1.0000 0.80870  0.73860  0.67400  Biso   1.000  C
  C91      1.0000 0.05870  0.51140  0.92400  Biso   1.000  C
  C92      1.0000 0.94130  0.48860  0.92400  Biso   1.000  C
  C93      1.0000 0.19130  0.76140  0.17400  Biso   1.000  C
  C94      1.0000 0.80870  0.23860  0.17400  Biso   1.000  C
  C95      1.0000 0.05870  0.01140  0.42400  Biso   1.000  C
  C96      1.0000 0.94130  0.98860  0.42400  Biso   1.000  C
  C97      1.0000 0.75000  0.25000  0.26500  Biso   1.000  C
  C98      1.0000 0.25000  0.75000  0.26500  Biso   1.000  C
  C99      1.0000 0.50000  0.50000  0.51500  Biso   1.000  C
  C100     1.0000 0.75000  0.75000  0.76500  Biso   1.000  C
  C101     1.0000 0.25000  0.25000  0.76500  Biso   1.000  C
  C102     1.0000 0.50000  0.00000  0.01500  Biso   1.000  C
  C103     1.0000 0.00000  0.50000  0.01500  Biso   1.000  C
  C104     1.0000 0.00000  0.00000  0.51500  Biso   1.000  C
  B1       1.0000 0.48040  0.31710  0.46000  Biso   1.000  B
  B2       1.0000 0.51960  0.68290  0.46000  Biso   1.000  B
  B3       1.0000 0.76960  0.56710  0.71000  Biso   1.000  B
  B4       1.0000 0.23040  0.43290  0.71000  Biso   1.000  B
  B5       1.0000 0.48040  0.81710  0.96000  Biso   1.000  B
  B6       1.0000 0.51960  0.18290  0.96000  Biso   1.000  B
  B7       1.0000 0.76960  0.06710  0.21000  Biso   1.000  B
  B8       1.0000 0.23040  0.93290  0.21000  Biso   1.000  B
  B9       1.0000 0.98040  0.31710  0.96000  Biso   1.000  B
  B10      1.0000 0.01960  0.68290  0.96000  Biso   1.000  B
  B11      1.0000 0.26960  0.56710  0.21000  Biso   1.000  B
  B12      1.0000 0.73040  0.43290  0.21000  Biso   1.000  B
  B13      1.0000 0.98040  0.81710  0.46000  Biso   1.000  B
  B14      1.0000 0.01960  0.18290  0.46000  Biso   1.000  B
  B15      1.0000 0.26960  0.06710  0.71000  Biso   1.000  B
  B16      1.0000 0.73040  0.93290  0.71000  Biso   1.000  B
  H1       1.0000 0.59840  0.28190  0.84890  Biso   1.000  H
  H2       1.0000 0.40160  0.71810  0.84890  Biso   1.000  H
  H3       1.0000 0.65160  0.53190  0.09890  Biso   1.000  H
  H4       1.0000 0.34840  0.46810  0.09890  Biso   1.000  H
  H5       1.0000 0.59840  0.78190  0.34890  Biso   1.000  H
  H6       1.0000 0.40160  0.21810  0.34890  Biso   1.000  H
  H7       1.0000 0.65160  0.03190  0.59890  Biso   1.000  H
  H8       1.0000 0.34840  0.96810  0.59890  Biso   1.000  H
  H9       1.0000 0.09840  0.28190  0.34890  Biso   1.000  H
  H10      1.0000 0.90160  0.71810  0.34890  Biso   1.000  H
  H11      1.0000 0.15160  0.53190  0.59890  Biso   1.000  H
  H12      1.0000 0.84840  0.46810  0.59890  Biso   1.000  H
  H13      1.0000 0.09840  0.78190  0.84890  Biso   1.000  H
  H14      1.0000 0.90160  0.21810  0.84890  Biso   1.000  H
  H15      1.0000 0.15160  0.03190  0.09890  Biso   1.000  H
  H16      1.0000 0.84840  0.96810  0.09890  Biso   1.000  H
  H17      1.0000 0.68600  0.34430  0.47360  Biso   1.000  H
  H18      1.0000 0.31400  0.65570  0.47360  Biso   1.000  H
  H19      1.0000 0.56400  0.59430  0.72360  Biso   1.000  H
  H20      1.0000 0.43600  0.40570  0.72360  Biso   1.000  H
  H21      1.0000 0.68600  0.84430  0.97360  Biso   1.000  H
  H22      1.0000 0.31400  0.15570  0.97360  Biso   1.000  H
  H23      1.0000 0.56400  0.09430  0.22360  Biso   1.000  H
  H24      1.0000 0.43600  0.90570  0.22360  Biso   1.000  H
  H25      1.0000 0.18600  0.34430  0.97360  Biso   1.000  H
  H26      1.0000 0.81400  0.65570  0.97360  Biso   1.000  H
  H27      1.0000 0.06400  0.59430  0.22360  Biso   1.000  H
  H28      1.0000 0.93600  0.40570  0.22360  Biso   1.000  H
  H29      1.0000 0.18600  0.84430  0.47360  Biso   1.000  H
  H30      1.0000 0.81400  0.15570  0.47360  Biso   1.000  H
  H31      1.0000 0.06400  0.09430  0.72360  Biso   1.000  H
  H32      1.0000 0.93600  0.90570  0.72360  Biso   1.000  H
  H33      1.0000 0.66430  0.43380  0.57390  Biso   1.000  H
  H34      1.0000 0.33570  0.56620  0.57390  Biso   1.000  H
  H35      1.0000 0.58570  0.68380  0.82390  Biso   1.000  H
  H36      1.0000 0.41430  0.31620  0.82390  Biso   1.000  H
  H37      1.0000 0.66430  0.93380  0.07390  Biso   1.000  H
  H38      1.0000 0.33570  0.06620  0.07390  Biso   1.000  H
  H39      1.0000 0.58570  0.18380  0.32390  Biso   1.000  H
  H40      1.0000 0.41430  0.81620  0.32390  Biso   1.000  H
  H41      1.0000 0.16430  0.43380  0.07390  Biso   1.000  H
  H42      1.0000 0.83570  0.56620  0.07390  Biso   1.000  H
  H43      1.0000 0.08570  0.68380  0.32390  Biso   1.000  H
  H44      1.0000 0.91430  0.31620  0.32390  Biso   1.000  H
  H45      1.0000 0.16430  0.93380  0.57390  Biso   1.000  H
  H46      1.0000 0.83570  0.06620  0.57390  Biso   1.000  H
  H47      1.0000 0.08570  0.18380  0.82390  Biso   1.000  H
  H48      1.0000 0.91430  0.81620  0.82390  Biso   1.000  H
