data_image0
_cell_length_a       3.9045
_cell_length_b       15.876
_cell_length_c       19.915
_cell_angle_alpha    90
_cell_angle_beta     100.596
_cell_angle_gamma    90

_symmetry_space_group_name_H-M    "P 1"
_symmetry_int_tables_number       1

loop_
  _symmetry_equiv_pos_as_xyz
  'x, y, z'

loop_
  _atom_site_label
  _atom_site_occupancy
  _atom_site_fract_x
  _atom_site_fract_y
  _atom_site_fract_z
  _atom_site_thermal_displace_type
  _atom_site_B_iso_or_equiv
  _atom_site_type_symbol
  Br1      1.0000 0.72625  0.74809  0.29850  Biso   1.000  Br
  Br2      1.0000 0.27375  0.24809  0.20150  Biso   1.000  Br
  Br3      1.0000 0.27375  0.25191  0.70150  Biso   1.000  Br
  Br4      1.0000 0.72625  0.75191  0.79850  Biso   1.000  Br
  Br5      1.0000 0.36584  0.74961  0.48693  Biso   1.000  Br
  Br6      1.0000 0.63416  0.24961  0.01307  Biso   1.000  Br
  Br7      1.0000 0.63416  0.25039  0.51307  Biso   1.000  Br
  Br8      1.0000 0.36584  0.75039  0.98693  Biso   1.000  Br
  Cu1      1.0000 0.26819  0.65201  0.29096  Biso   1.000  Cu
  Cu2      1.0000 0.73181  0.15201  0.20904  Biso   1.000  Cu
  Cu3      1.0000 0.73181  0.34799  0.70904  Biso   1.000  Cu
  Cu4      1.0000 0.26819  0.84799  0.79096  Biso   1.000  Cu
  Cu5      1.0000 0.79600  0.74545  0.41829  Biso   1.000  Cu
  Cu6      1.0000 0.20400  0.24545  0.08171  Biso   1.000  Cu
  Cu7      1.0000 0.20400  0.25455  0.58171  Biso   1.000  Cu
  Cu8      1.0000 0.79600  0.75455  0.91829  Biso   1.000  Cu
  N1       1.0000 0.15910  0.54120  0.33190  Biso   1.000  N
  N2       1.0000 0.84090  0.04120  0.16810  Biso   1.000  N
  N3       1.0000 0.84090  0.45880  0.66810  Biso   1.000  N
  N4       1.0000 0.15910  0.95880  0.83190  Biso   1.000  N
  N5       1.0000 0.08920  0.58610  0.20200  Biso   1.000  N
  N6       1.0000 0.91080  0.08610  0.29800  Biso   1.000  N
  N7       1.0000 0.91080  0.41390  0.79800  Biso   1.000  N
  N8       1.0000 0.08920  0.91390  0.70200  Biso   1.000  N
  C1       1.0000 0.19890  0.52180  0.39810  Biso   1.000  C
  C2       1.0000 0.80110  0.02180  0.10190  Biso   1.000  C
  C3       1.0000 0.80110  0.47820  0.60190  Biso   1.000  C
  C4       1.0000 0.19890  0.97820  0.89810  Biso   1.000  C
  H1       1.0000 0.29950  0.56180  0.42990  Biso   1.000  H
  H2       1.0000 0.70050  0.06180  0.07010  Biso   1.000  H
  H3       1.0000 0.70050  0.43820  0.57010  Biso   1.000  H
  H4       1.0000 0.29950  0.93820  0.92990  Biso   1.000  H
  C5       1.0000 0.09740  0.44480  0.42220  Biso   1.000  C
  C6       1.0000 0.90260  0.94480  0.07780  Biso   1.000  C
  C7       1.0000 0.90260  0.55520  0.57780  Biso   1.000  C
  C8       1.0000 0.09740  0.05520  0.92220  Biso   1.000  C
  H5       1.0000 0.13170  0.43300  0.46870  Biso   1.000  H
  H6       1.0000 0.86830  0.93300  0.03130  Biso   1.000  H
  H7       1.0000 0.86830  0.56700  0.53130  Biso   1.000  H
  H8       1.0000 0.13170  0.06700  0.96870  Biso   1.000  H
  C9       1.0000 0.94580  0.38760  0.37480  Biso   1.000  C
  C10      1.0000 0.05420  0.88760  0.12520  Biso   1.000  C
  C11      1.0000 0.05420  0.61240  0.62520  Biso   1.000  C
  C12      1.0000 0.94580  0.11240  0.87480  Biso   1.000  C
  H9       1.0000 0.87610  0.33550  0.38890  Biso   1.000  H
  H10      1.0000 0.12390  0.83550  0.11110  Biso   1.000  H
  H11      1.0000 0.12390  0.66450  0.61110  Biso   1.000  H
  H12      1.0000 0.87610  0.16450  0.88890  Biso   1.000  H
  C13      1.0000 0.89510  0.40640  0.30600  Biso   1.000  C
  C14      1.0000 0.10490  0.90640  0.19400  Biso   1.000  C
  C15      1.0000 0.10490  0.59360  0.69400  Biso   1.000  C
  C16      1.0000 0.89510  0.09360  0.80600  Biso   1.000  C
  H13      1.0000 0.78820  0.36780  0.27360  Biso   1.000  H
  H14      1.0000 0.21180  0.86780  0.22640  Biso   1.000  H
  H15      1.0000 0.21180  0.63220  0.72640  Biso   1.000  H
  H16      1.0000 0.78820  0.13220  0.77360  Biso   1.000  H
  C17      1.0000 0.00670  0.48410  0.28590  Biso   1.000  C
  C18      1.0000 0.99330  0.98410  0.21410  Biso   1.000  C
  C19      1.0000 0.99330  0.51590  0.71410  Biso   1.000  C
  C20      1.0000 0.00670  0.01590  0.78590  Biso   1.000  C
  C21      1.0000 0.96800  0.50840  0.21300  Biso   1.000  C
  C22      1.0000 0.03200  0.00840  0.28700  Biso   1.000  C
  C23      1.0000 0.03200  0.49160  0.78700  Biso   1.000  C
  C24      1.0000 0.96800  0.99160  0.71300  Biso   1.000  C
  C25      1.0000 0.82010  0.45670  0.15950  Biso   1.000  C
  C26      1.0000 0.17990  0.95670  0.34050  Biso   1.000  C
  C27      1.0000 0.17990  0.54330  0.84050  Biso   1.000  C
  C28      1.0000 0.82010  0.04330  0.65950  Biso   1.000  C
  H17      1.0000 0.73900  0.40340  0.16810  Biso   1.000  H
  H18      1.0000 0.26100  0.90340  0.33190  Biso   1.000  H
  H19      1.0000 0.26100  0.59660  0.83190  Biso   1.000  H
  H20      1.0000 0.73900  0.09660  0.66810  Biso   1.000  H
  C29      1.0000 0.79430  0.48460  0.09390  Biso   1.000  C
  C30      1.0000 0.20570  0.98460  0.40610  Biso   1.000  C
  C31      1.0000 0.20570  0.51540  0.90610  Biso   1.000  C
  C32      1.0000 0.79430  0.01540  0.59390  Biso   1.000  C
  H21      1.0000 0.69370  0.45050  0.05760  Biso   1.000  H
  H22      1.0000 0.30630  0.95050  0.44240  Biso   1.000  H
  H23      1.0000 0.30630  0.54950  0.94240  Biso   1.000  H
  H24      1.0000 0.69370  0.04950  0.55760  Biso   1.000  H
  C33      1.0000 0.91840  0.56380  0.08150  Biso   1.000  C
  C34      1.0000 0.08160  0.06380  0.41850  Biso   1.000  C
  C35      1.0000 0.08160  0.43620  0.91850  Biso   1.000  C
  C36      1.0000 0.91840  0.93620  0.58150  Biso   1.000  C
  H25      1.0000 0.90610  0.58370  0.03710  Biso   1.000  H
  H26      1.0000 0.09390  0.08370  0.46290  Biso   1.000  H
  H27      1.0000 0.09390  0.41630  0.96290  Biso   1.000  H
  H28      1.0000 0.90610  0.91630  0.53710  Biso   1.000  H
  C37      1.0000 0.05860  0.61150  0.13640  Biso   1.000  C
  C38      1.0000 0.94140  0.11150  0.36360  Biso   1.000  C
  C39      1.0000 0.94140  0.38850  0.86360  Biso   1.000  C
  C40      1.0000 0.05860  0.88850  0.63640  Biso   1.000  C
  H29      1.0000 0.13870  0.66500  0.12820  Biso   1.000  H
  H30      1.0000 0.86130  0.16500  0.37180  Biso   1.000  H
  H31      1.0000 0.86130  0.33500  0.87180  Biso   1.000  H
  H32      1.0000 0.13870  0.83500  0.62820  Biso   1.000  H
