data_image0
_cell_length_a       10.456
_cell_length_b       10.456
_cell_length_c       9.3682
_cell_angle_alpha    90
_cell_angle_beta     90
_cell_angle_gamma    90

_symmetry_space_group_name_H-M    "P 1"
_symmetry_int_tables_number       1

loop_
  _symmetry_equiv_pos_as_xyz
  'x, y, z'

loop_
  _atom_site_label
  _atom_site_occupancy
  _atom_site_fract_x
  _atom_site_fract_y
  _atom_site_fract_z
  _atom_site_thermal_displace_type
  _atom_site_B_iso_or_equiv
  _atom_site_type_symbol
  Cu1      1.0000 0.50000  0.50000  0.50000  Biso   1.000  Cu
  Cu2      1.0000 0.00000  0.00000  0.00000  Biso   1.000  Cu
  F1       1.0000 0.98990  0.59780  0.83600  Biso   1.000  F
  F2       1.0000 0.59780  0.01010  0.16400  Biso   1.000  F
  F3       1.0000 0.51010  0.09780  0.33600  Biso   1.000  F
  F4       1.0000 0.01010  0.40220  0.83600  Biso   1.000  F
  F5       1.0000 0.09780  0.48990  0.66400  Biso   1.000  F
  F6       1.0000 0.40220  0.98990  0.16400  Biso   1.000  F
  F7       1.0000 0.48990  0.90220  0.33600  Biso   1.000  F
  F8       1.0000 0.90220  0.51010  0.66400  Biso   1.000  F
  N1       1.0000 0.97020  0.14670  0.13980  Biso   1.000  N
  N2       1.0000 0.14670  0.02980  0.86020  Biso   1.000  N
  N3       1.0000 0.52980  0.64670  0.63980  Biso   1.000  N
  N4       1.0000 0.02980  0.85330  0.13980  Biso   1.000  N
  N5       1.0000 0.64670  0.47020  0.36020  Biso   1.000  N
  N6       1.0000 0.85330  0.97020  0.86020  Biso   1.000  N
  N7       1.0000 0.47020  0.35330  0.63980  Biso   1.000  N
  N8       1.0000 0.35330  0.52980  0.36020  Biso   1.000  N
  C1       1.0000 0.99890  0.30780  0.37480  Biso   1.000  C
  C2       1.0000 0.30780  0.00110  0.62520  Biso   1.000  C
  C3       1.0000 0.50110  0.80780  0.87480  Biso   1.000  C
  C4       1.0000 0.00110  0.69220  0.37480  Biso   1.000  C
  C5       1.0000 0.80780  0.49890  0.12520  Biso   1.000  C
  C6       1.0000 0.69220  0.99890  0.62520  Biso   1.000  C
  C7       1.0000 0.49890  0.19220  0.87480  Biso   1.000  C
  C8       1.0000 0.19220  0.50110  0.12520  Biso   1.000  C
  C9       1.0000 0.89640  0.13460  0.25670  Biso   1.000  C
  C10      1.0000 0.13460  0.10360  0.74330  Biso   1.000  C
  C11      1.0000 0.60360  0.63460  0.75670  Biso   1.000  C
  C12      1.0000 0.10360  0.86540  0.25670  Biso   1.000  C
  C13      1.0000 0.63460  0.39640  0.24330  Biso   1.000  C
  C14      1.0000 0.86540  0.89640  0.74330  Biso   1.000  C
  C15      1.0000 0.39640  0.36540  0.75670  Biso   1.000  C
  C16      1.0000 0.36540  0.60360  0.24330  Biso   1.000  C
  C17      1.0000 0.90880  0.21130  0.37430  Biso   1.000  C
  C18      1.0000 0.21130  0.09120  0.62570  Biso   1.000  C
  C19      1.0000 0.59120  0.71130  0.87430  Biso   1.000  C
  C20      1.0000 0.09120  0.78870  0.37430  Biso   1.000  C
  C21      1.0000 0.71130  0.40880  0.12570  Biso   1.000  C
  C22      1.0000 0.78870  0.90880  0.62570  Biso   1.000  C
  C23      1.0000 0.40880  0.28870  0.87430  Biso   1.000  C
  C24      1.0000 0.28870  0.59120  0.12570  Biso   1.000  C
  C25      1.0000 0.07500  0.32410  0.25440  Biso   1.000  C
  C26      1.0000 0.32410  0.92500  0.74560  Biso   1.000  C
  C27      1.0000 0.42500  0.82410  0.75440  Biso   1.000  C
  C28      1.0000 0.92500  0.67590  0.25440  Biso   1.000  C
  C29      1.0000 0.82410  0.57500  0.24560  Biso   1.000  C
  C30      1.0000 0.67590  0.07500  0.74560  Biso   1.000  C
  C31      1.0000 0.57500  0.17590  0.75440  Biso   1.000  C
  C32      1.0000 0.17590  0.42500  0.24560  Biso   1.000  C
  C33      1.0000 0.05630  0.24200  0.14100  Biso   1.000  C
  C34      1.0000 0.24200  0.94370  0.85900  Biso   1.000  C
  C35      1.0000 0.44370  0.74200  0.64100  Biso   1.000  C
  C36      1.0000 0.94370  0.75800  0.14100  Biso   1.000  C
  C37      1.0000 0.74200  0.55630  0.35900  Biso   1.000  C
  C38      1.0000 0.75800  0.05630  0.85900  Biso   1.000  C
  C39      1.0000 0.55630  0.25800  0.64100  Biso   1.000  C
  C40      1.0000 0.25800  0.44370  0.35900  Biso   1.000  C
  B1       1.0000 0.00000  0.50000  0.75000  Biso   1.000  B
  B2       1.0000 0.50000  0.00000  0.25000  Biso   1.000  B
  H1       1.0000 0.00850  0.36080  0.45380  Biso   1.000  H
  H2       1.0000 0.36080  0.99150  0.54620  Biso   1.000  H
  H3       1.0000 0.49150  0.86080  0.95380  Biso   1.000  H
  H4       1.0000 0.99150  0.63920  0.45380  Biso   1.000  H
  H5       1.0000 0.86080  0.50850  0.04620  Biso   1.000  H
  H6       1.0000 0.63920  0.00850  0.54620  Biso   1.000  H
  H7       1.0000 0.50850  0.13920  0.95380  Biso   1.000  H
  H8       1.0000 0.13920  0.49150  0.04620  Biso   1.000  H
  H9       1.0000 0.83410  0.07120  0.25770  Biso   1.000  H
  H10      1.0000 0.07120  0.16590  0.74230  Biso   1.000  H
  H11      1.0000 0.66590  0.57120  0.75770  Biso   1.000  H
  H12      1.0000 0.16590  0.92880  0.25770  Biso   1.000  H
  H13      1.0000 0.57120  0.33410  0.24230  Biso   1.000  H
  H14      1.0000 0.92880  0.83410  0.74230  Biso   1.000  H
  H15      1.0000 0.33410  0.42880  0.75770  Biso   1.000  H
  H16      1.0000 0.42880  0.66590  0.24230  Biso   1.000  H
  H17      1.0000 0.85670  0.19850  0.45350  Biso   1.000  H
  H18      1.0000 0.19850  0.14330  0.54650  Biso   1.000  H
  H19      1.0000 0.64330  0.69850  0.95350  Biso   1.000  H
  H20      1.0000 0.14330  0.80150  0.45350  Biso   1.000  H
  H21      1.0000 0.69850  0.35670  0.04650  Biso   1.000  H
  H22      1.0000 0.80150  0.85670  0.54650  Biso   1.000  H
  H23      1.0000 0.35670  0.30150  0.95350  Biso   1.000  H
  H24      1.0000 0.30150  0.64330  0.04650  Biso   1.000  H
  H25      1.0000 0.10660  0.25340  0.06010  Biso   1.000  H
  H26      1.0000 0.25340  0.89340  0.93990  Biso   1.000  H
  H27      1.0000 0.39340  0.75340  0.56010  Biso   1.000  H
  H28      1.0000 0.89340  0.74660  0.06010  Biso   1.000  H
  H29      1.0000 0.75340  0.60660  0.43990  Biso   1.000  H
  H30      1.0000 0.74660  0.10660  0.93990  Biso   1.000  H
  H31      1.0000 0.60660  0.24660  0.56010  Biso   1.000  H
  H32      1.0000 0.24660  0.39340  0.43990  Biso   1.000  H
