data_image0
_cell_length_a       10.4187
_cell_length_b       10.4187
_cell_length_c       10.0232
_cell_angle_alpha    90
_cell_angle_beta     90
_cell_angle_gamma    90

_symmetry_space_group_name_H-M    "P 1"
_symmetry_int_tables_number       1

loop_
  _symmetry_equiv_pos_as_xyz
  'x, y, z'

loop_
  _atom_site_label
  _atom_site_occupancy
  _atom_site_fract_x
  _atom_site_fract_y
  _atom_site_fract_z
  _atom_site_thermal_displace_type
  _atom_site_B_iso_or_equiv
  _atom_site_type_symbol
  Cu1      1.0000 0.00000  0.00000  0.00000  Biso   1.000  Cu
  Cu2      1.0000 0.50000  0.50000  0.50000  Biso   1.000  Cu
  P1       1.0000 0.50000  0.00000  0.75000  Biso   1.000  P
  P2       1.0000 0.00000  0.50000  0.25000  Biso   1.000  P
  F1       1.0000 0.41430  0.92470  0.84720  Biso   1.000  F
  F2       1.0000 0.92470  0.58570  0.15280  Biso   1.000  F
  F3       1.0000 0.08570  0.42470  0.34720  Biso   1.000  F
  F4       1.0000 0.58570  0.07530  0.84720  Biso   1.000  F
  F5       1.0000 0.42470  0.91430  0.65280  Biso   1.000  F
  F6       1.0000 0.07530  0.41430  0.15280  Biso   1.000  F
  F7       1.0000 0.91430  0.57530  0.34720  Biso   1.000  F
  F8       1.0000 0.57530  0.08570  0.65280  Biso   1.000  F
  F9       1.0000 0.53020  0.86730  0.84010  Biso   1.000  F
  F10      1.0000 0.86730  0.46980  0.15990  Biso   1.000  F
  F11      1.0000 0.96980  0.36730  0.34010  Biso   1.000  F
  F12      1.0000 0.46980  0.13270  0.84010  Biso   1.000  F
  F13      1.0000 0.36730  0.03020  0.65990  Biso   1.000  F
  F14      1.0000 0.13270  0.53020  0.15990  Biso   1.000  F
  F15      1.0000 0.03020  0.63270  0.34010  Biso   1.000  F
  F16      1.0000 0.63270  0.96980  0.65990  Biso   1.000  F
  F17      1.0000 0.39260  0.04870  0.83350  Biso   1.000  F
  F18      1.0000 0.04870  0.60740  0.16650  Biso   1.000  F
  F19      1.0000 0.10740  0.54870  0.33350  Biso   1.000  F
  F20      1.0000 0.60740  0.95130  0.83350  Biso   1.000  F
  F21      1.0000 0.54870  0.89260  0.66650  Biso   1.000  F
  F22      1.0000 0.95130  0.39260  0.16650  Biso   1.000  F
  F23      1.0000 0.89260  0.45130  0.33350  Biso   1.000  F
  F24      1.0000 0.45130  0.10740  0.66650  Biso   1.000  F
  N1       1.0000 0.02470  0.85340  0.86550  Biso   1.000  N
  N2       1.0000 0.85340  0.97530  0.13450  Biso   1.000  N
  N3       1.0000 0.47530  0.35340  0.36550  Biso   1.000  N
  N4       1.0000 0.97530  0.14660  0.86550  Biso   1.000  N
  N5       1.0000 0.35340  0.52470  0.63450  Biso   1.000  N
  N6       1.0000 0.14660  0.02470  0.13450  Biso   1.000  N
  N7       1.0000 0.52470  0.64660  0.36550  Biso   1.000  N
  N8       1.0000 0.64660  0.47530  0.63450  Biso   1.000  N
  C1       1.0000 0.92060  0.67950  0.74950  Biso   1.000  C
  C2       1.0000 0.67950  0.07940  0.25050  Biso   1.000  C
  C3       1.0000 0.57940  0.17950  0.24950  Biso   1.000  C
  C4       1.0000 0.07940  0.32050  0.74950  Biso   1.000  C
  C5       1.0000 0.17950  0.42060  0.75050  Biso   1.000  C
  C6       1.0000 0.32050  0.92060  0.25050  Biso   1.000  C
  C7       1.0000 0.42060  0.82050  0.24950  Biso   1.000  C
  C8       1.0000 0.82050  0.57940  0.75050  Biso   1.000  C
  C9       1.0000 0.93720  0.75920  0.85900  Biso   1.000  C
  C10      1.0000 0.75920  0.06280  0.14100  Biso   1.000  C
  C11      1.0000 0.56280  0.25920  0.35900  Biso   1.000  C
  C12      1.0000 0.06280  0.24080  0.85900  Biso   1.000  C
  C13      1.0000 0.25920  0.43720  0.64100  Biso   1.000  C
  C14      1.0000 0.24080  0.93720  0.14100  Biso   1.000  C
  C15      1.0000 0.43720  0.74080  0.35900  Biso   1.000  C
  C16      1.0000 0.74080  0.56280  0.64100  Biso   1.000  C
  C17      1.0000 0.10190  0.86990  0.75920  Biso   1.000  C
  C18      1.0000 0.86990  0.89810  0.24080  Biso   1.000  C
  C19      1.0000 0.39810  0.36990  0.25920  Biso   1.000  C
  C20      1.0000 0.89810  0.13010  0.75920  Biso   1.000  C
  C21      1.0000 0.36990  0.60190  0.74080  Biso   1.000  C
  C22      1.0000 0.13010  0.10190  0.24080  Biso   1.000  C
  C23      1.0000 0.60190  0.63010  0.25920  Biso   1.000  C
  C24      1.0000 0.63010  0.39810  0.74080  Biso   1.000  C
  C25      1.0000 0.09200  0.79510  0.64630  Biso   1.000  C
  C26      1.0000 0.79510  0.90800  0.35370  Biso   1.000  C
  C27      1.0000 0.40800  0.29510  0.14630  Biso   1.000  C
  C28      1.0000 0.90800  0.20490  0.64630  Biso   1.000  C
  C29      1.0000 0.29510  0.59200  0.85370  Biso   1.000  C
  C30      1.0000 0.20490  0.09200  0.35370  Biso   1.000  C
  C31      1.0000 0.59200  0.70490  0.14630  Biso   1.000  C
  C32      1.0000 0.70490  0.40800  0.85370  Biso   1.000  C
  C33      1.0000 0.00090  0.69980  0.64040  Biso   1.000  C
  C34      1.0000 0.69980  0.99910  0.35960  Biso   1.000  C
  C35      1.0000 0.49910  0.19980  0.14040  Biso   1.000  C
  C36      1.0000 0.99910  0.30020  0.64040  Biso   1.000  C
  C37      1.0000 0.19980  0.50090  0.85960  Biso   1.000  C
  C38      1.0000 0.30020  0.00090  0.35960  Biso   1.000  C
  C39      1.0000 0.50090  0.80020  0.14040  Biso   1.000  C
  C40      1.0000 0.80020  0.49910  0.85960  Biso   1.000  C
  H1       1.0000 0.88430  0.74650  0.93260  Biso   1.000  H
  H2       1.0000 0.74650  0.11570  0.06740  Biso   1.000  H
  H3       1.0000 0.61570  0.24650  0.43260  Biso   1.000  H
  H4       1.0000 0.11570  0.25350  0.93260  Biso   1.000  H
  H5       1.0000 0.24650  0.38430  0.56740  Biso   1.000  H
  H6       1.0000 0.25350  0.88430  0.06740  Biso   1.000  H
  H7       1.0000 0.38430  0.75350  0.43260  Biso   1.000  H
  H8       1.0000 0.75350  0.61570  0.56740  Biso   1.000  H
  H9       1.0000 0.16410  0.93390  0.76210  Biso   1.000  H
  H10      1.0000 0.93390  0.83590  0.23790  Biso   1.000  H
  H11      1.0000 0.33590  0.43390  0.26210  Biso   1.000  H
  H12      1.0000 0.83590  0.06610  0.76210  Biso   1.000  H
  H13      1.0000 0.43390  0.66410  0.73790  Biso   1.000  H
  H14      1.0000 0.06610  0.16410  0.23790  Biso   1.000  H
  H15      1.0000 0.66410  0.56610  0.26210  Biso   1.000  H
  H16      1.0000 0.56610  0.33590  0.73790  Biso   1.000  H
  H17      1.0000 0.14680  0.80890  0.57450  Biso   1.000  H
  H18      1.0000 0.80890  0.85320  0.42550  Biso   1.000  H
  H19      1.0000 0.35320  0.30890  0.07450  Biso   1.000  H
  H20      1.0000 0.85320  0.19110  0.57450  Biso   1.000  H
  H21      1.0000 0.30890  0.64680  0.92550  Biso   1.000  H
  H22      1.0000 0.19110  0.14680  0.42550  Biso   1.000  H
  H23      1.0000 0.64680  0.69110  0.07450  Biso   1.000  H
  H24      1.0000 0.69110  0.35320  0.92550  Biso   1.000  H
  H25      1.0000 0.99300  0.64940  0.56430  Biso   1.000  H
  H26      1.0000 0.64940  0.00700  0.43570  Biso   1.000  H
  H27      1.0000 0.50700  0.14940  0.06430  Biso   1.000  H
  H28      1.0000 0.00700  0.35060  0.56430  Biso   1.000  H
  H29      1.0000 0.14940  0.49300  0.93570  Biso   1.000  H
  H30      1.0000 0.35060  0.99300  0.43570  Biso   1.000  H
  H31      1.0000 0.49300  0.85060  0.06430  Biso   1.000  H
  H32      1.0000 0.85060  0.50700  0.93570  Biso   1.000  H
