data_image0
_cell_length_a       10.035
_cell_length_b       11.98
_cell_length_c       12.425
_cell_angle_alpha    90
_cell_angle_beta     110.94
_cell_angle_gamma    90

_symmetry_space_group_name_H-M    "P 1"
_symmetry_int_tables_number       1

loop_
  _symmetry_equiv_pos_as_xyz
  'x, y, z'

loop_
  _atom_site_label
  _atom_site_occupancy
  _atom_site_fract_x
  _atom_site_fract_y
  _atom_site_fract_z
  _atom_site_thermal_displace_type
  _atom_site_B_iso_or_equiv
  _atom_site_type_symbol
  Sn1      1.0000 0.93985  0.78846  0.73299  Biso   1.000  Sn
  Sn2      1.0000 0.93985  0.71154  0.23299  Biso   1.000  Sn
  Sn3      1.0000 0.06015  0.21154  0.26701  Biso   1.000  Sn
  Sn4      1.0000 0.06015  0.28846  0.76701  Biso   1.000  Sn
  Cu1      1.0000 0.43386  0.57860  0.92687  Biso   1.000  Cu
  Cu2      1.0000 0.43386  0.92140  0.42687  Biso   1.000  Cu
  Cu3      1.0000 0.56614  0.42140  0.07313  Biso   1.000  Cu
  Cu4      1.0000 0.56614  0.07860  0.57313  Biso   1.000  Cu
  C1       1.0000 0.25730  0.66210  0.88800  Biso   1.000  C
  C2       1.0000 0.25730  0.83790  0.38800  Biso   1.000  C
  C3       1.0000 0.74270  0.33790  0.11200  Biso   1.000  C
  C4       1.0000 0.74270  0.16210  0.61200  Biso   1.000  C
  N1       1.0000 0.15740  0.71330  0.85510  Biso   1.000  N
  N2       1.0000 0.15740  0.78670  0.35510  Biso   1.000  N
  N3       1.0000 0.84260  0.28670  0.14490  Biso   1.000  N
  N4       1.0000 0.84260  0.21330  0.64490  Biso   1.000  N
  N5       1.0000 0.72240  0.64570  0.10240  Biso   1.000  N
  N6       1.0000 0.72240  0.85430  0.60240  Biso   1.000  N
  N7       1.0000 0.27760  0.35430  0.89760  Biso   1.000  N
  N8       1.0000 0.27760  0.14570  0.39760  Biso   1.000  N
  C5       1.0000 0.61900  0.60930  0.04260  Biso   1.000  C
  C6       1.0000 0.61900  0.89070  0.54260  Biso   1.000  C
  C7       1.0000 0.38100  0.39070  0.95740  Biso   1.000  C
  C8       1.0000 0.38100  0.10930  0.45740  Biso   1.000  C
  C9       1.0000 0.92580  0.90170  0.85750  Biso   1.000  C
  C10      1.0000 0.92580  0.59830  0.35750  Biso   1.000  C
  C11      1.0000 0.07420  0.09830  0.14250  Biso   1.000  C
  C12      1.0000 0.07420  0.40170  0.64250  Biso   1.000  C
  H1       1.0000 0.01510  0.90360  0.92110  Biso   1.000  H
  H2       1.0000 0.01510  0.59640  0.42110  Biso   1.000  H
  H3       1.0000 0.98490  0.09640  0.07890  Biso   1.000  H
  H4       1.0000 0.98490  0.40360  0.57890  Biso   1.000  H
  H5       1.0000 0.90500  0.97480  0.82400  Biso   1.000  H
  H6       1.0000 0.90500  0.52520  0.32400  Biso   1.000  H
  H7       1.0000 0.09500  0.02520  0.17600  Biso   1.000  H
  H8       1.0000 0.09500  0.47480  0.67600  Biso   1.000  H
  H9       1.0000 0.85140  0.87860  0.88420  Biso   1.000  H
  H10      1.0000 0.85140  0.62140  0.38420  Biso   1.000  H
  H11      1.0000 0.14860  0.12140  0.11580  Biso   1.000  H
  H12      1.0000 0.14860  0.37860  0.61580  Biso   1.000  H
  C13      1.0000 0.04320  0.83900  0.61920  Biso   1.000  C
  C14      1.0000 0.04320  0.66100  0.11920  Biso   1.000  C
  C15      1.0000 0.95680  0.16100  0.38080  Biso   1.000  C
  C16      1.0000 0.95680  0.33900  0.88080  Biso   1.000  C
  H13      1.0000 0.13120  0.79870  0.63690  Biso   1.000  H
  H14      1.0000 0.13120  0.70130  0.13690  Biso   1.000  H
  H15      1.0000 0.86880  0.20130  0.36310  Biso   1.000  H
  H16      1.0000 0.86880  0.29870  0.86310  Biso   1.000  H
  H17      1.0000 0.98260  0.82300  0.54120  Biso   1.000  H
  H18      1.0000 0.98260  0.67700  0.04120  Biso   1.000  H
  H19      1.0000 0.01740  0.17700  0.45880  Biso   1.000  H
  H20      1.0000 0.01740  0.32300  0.95880  Biso   1.000  H
  H21      1.0000 0.06300  0.91760  0.62790  Biso   1.000  H
  H22      1.0000 0.06300  0.58240  0.12790  Biso   1.000  H
  H23      1.0000 0.93700  0.08240  0.37210  Biso   1.000  H
  H24      1.0000 0.93700  0.41760  0.87210  Biso   1.000  H
  C17      1.0000 0.84600  0.63040  0.72410  Biso   1.000  C
  C18      1.0000 0.84600  0.86960  0.22410  Biso   1.000  C
  C19      1.0000 0.15400  0.36960  0.27590  Biso   1.000  C
  C20      1.0000 0.15400  0.13040  0.77590  Biso   1.000  C
  H25      1.0000 0.77500  0.61980  0.64880  Biso   1.000  H
  H26      1.0000 0.77500  0.88020  0.14880  Biso   1.000  H
  H27      1.0000 0.22500  0.38020  0.35120  Biso   1.000  H
  H28      1.0000 0.22500  0.11980  0.85120  Biso   1.000  H
  H29      1.0000 0.91790  0.57380  0.73800  Biso   1.000  H
  H30      1.0000 0.91790  0.92620  0.23800  Biso   1.000  H
  H31      1.0000 0.08210  0.42620  0.26200  Biso   1.000  H
  H32      1.0000 0.08210  0.07380  0.76200  Biso   1.000  H
  H33      1.0000 0.80200  0.62530  0.78100  Biso   1.000  H
  H34      1.0000 0.80200  0.87470  0.28100  Biso   1.000  H
  H35      1.0000 0.19800  0.37470  0.21900  Biso   1.000  H
  H36      1.0000 0.19800  0.12530  0.71900  Biso   1.000  H
  N9       1.0000 0.45510  0.54280  0.76820  Biso   1.000  N
  N10      1.0000 0.45510  0.95720  0.26820  Biso   1.000  N
  N11      1.0000 0.54490  0.45720  0.23180  Biso   1.000  N
  N12      1.0000 0.54490  0.04280  0.73180  Biso   1.000  N
  C21      1.0000 0.52290  0.45390  0.74950  Biso   1.000  C
  C22      1.0000 0.52290  0.04610  0.24950  Biso   1.000  C
  C23      1.0000 0.47710  0.54610  0.25050  Biso   1.000  C
  C24      1.0000 0.47710  0.95390  0.75050  Biso   1.000  C
  H37      1.0000 0.56160  0.40320  0.80920  Biso   1.000  H
  H38      1.0000 0.56160  0.09680  0.30920  Biso   1.000  H
  H39      1.0000 0.43840  0.59680  0.19080  Biso   1.000  H
  H40      1.0000 0.43840  0.90320  0.69080  Biso   1.000  H
  C25      1.0000 0.53870  0.43330  0.64480  Biso   1.000  C
  C26      1.0000 0.53870  0.06670  0.14480  Biso   1.000  C
  C27      1.0000 0.46130  0.56670  0.35520  Biso   1.000  C
  C28      1.0000 0.46130  0.93330  0.85520  Biso   1.000  C
  H41      1.0000 0.58240  0.36780  0.63440  Biso   1.000  H
  H42      1.0000 0.58240  0.13220  0.13440  Biso   1.000  H
  H43      1.0000 0.41760  0.63220  0.36560  Biso   1.000  H
  H44      1.0000 0.41760  0.86780  0.86560  Biso   1.000  H
  C29      1.0000 0.49000  0.50960  0.55600  Biso   1.000  C
  C30      1.0000 0.49000  0.99040  0.05600  Biso   1.000  C
  C31      1.0000 0.51000  0.49040  0.44400  Biso   1.000  C
  C32      1.0000 0.51000  0.00960  0.94400  Biso   1.000  C
  C33      1.0000 0.42460  0.60190  0.57800  Biso   1.000  C
  C34      1.0000 0.42460  0.89810  0.07800  Biso   1.000  C
  C35      1.0000 0.57540  0.39810  0.42200  Biso   1.000  C
  C36      1.0000 0.57540  0.10190  0.92200  Biso   1.000  C
  H45      1.0000 0.39250  0.65730  0.52220  Biso   1.000  H
  H46      1.0000 0.39250  0.84270  0.02220  Biso   1.000  H
  H47      1.0000 0.60750  0.34270  0.47780  Biso   1.000  H
  H48      1.0000 0.60750  0.15730  0.97780  Biso   1.000  H
  C37      1.0000 0.40510  0.61480  0.68160  Biso   1.000  C
  C38      1.0000 0.40510  0.88520  0.18160  Biso   1.000  C
  C39      1.0000 0.59490  0.38520  0.31840  Biso   1.000  C
  C40      1.0000 0.59490  0.11480  0.81840  Biso   1.000  C
  H49      1.0000 0.35460  0.67670  0.69140  Biso   1.000  H
  H50      1.0000 0.35460  0.82330  0.19140  Biso   1.000  H
  H51      1.0000 0.64540  0.32330  0.30860  Biso   1.000  H
  H52      1.0000 0.64540  0.17670  0.80860  Biso   1.000  H
