data_image0
_cell_length_a       7.5222
_cell_length_b       10.5307
_cell_length_c       5.5378
_cell_angle_alpha    90
_cell_angle_beta     90
_cell_angle_gamma    90

_symmetry_space_group_name_H-M    "P 1"
_symmetry_int_tables_number       1

loop_
  _symmetry_equiv_pos_as_xyz
  'x, y, z'

loop_
  _atom_site_label
  _atom_site_occupancy
  _atom_site_fract_x
  _atom_site_fract_y
  _atom_site_fract_z
  _atom_site_thermal_displace_type
  _atom_site_B_iso_or_equiv
  _atom_site_type_symbol
  Cu1      1.0000 0.75000  0.75000  0.37747  Biso   1.000  Cu
  Cu2      1.0000 0.25000  0.25000  0.62253  Biso   1.000  Cu
  N1       1.0000 0.25000  0.75000  0.80170  Biso   1.000  N
  N2       1.0000 0.75000  0.25000  0.19830  Biso   1.000  N
  N3       1.0000 0.53460  0.75000  0.58100  Biso   1.000  N
  N4       1.0000 0.96540  0.75000  0.58100  Biso   1.000  N
  N5       1.0000 0.03460  0.25000  0.41900  Biso   1.000  N
  N6       1.0000 0.46540  0.25000  0.41900  Biso   1.000  N
  N7       1.0000 0.75000  0.89580  0.14020  Biso   1.000  N
  N8       1.0000 0.75000  0.60420  0.14020  Biso   1.000  N
  N9       1.0000 0.25000  0.10420  0.85980  Biso   1.000  N
  N10      1.0000 0.25000  0.39580  0.85980  Biso   1.000  N
  C1       1.0000 0.39870  0.75000  0.67790  Biso   1.000  C
  C2       1.0000 0.10130  0.75000  0.67790  Biso   1.000  C
  C3       1.0000 0.89870  0.25000  0.32210  Biso   1.000  C
  C4       1.0000 0.60130  0.25000  0.32210  Biso   1.000  C
  C5       1.0000 0.75000  0.03970  0.75870  Biso   1.000  C
  C6       1.0000 0.75000  0.46030  0.75870  Biso   1.000  C
  C7       1.0000 0.25000  0.96030  0.24130  Biso   1.000  C
  C8       1.0000 0.25000  0.53970  0.24130  Biso   1.000  C
  H1       1.0000 0.75000  0.98630  0.61390  Biso   1.000  H
  H2       1.0000 0.75000  0.51370  0.61390  Biso   1.000  H
  H3       1.0000 0.25000  0.01370  0.38610  Biso   1.000  H
  H4       1.0000 0.25000  0.48630  0.38610  Biso   1.000  H
  H5       1.0000 0.85620  0.09370  0.75930  Biso   1.000  H
  H6       1.0000 0.64380  0.40630  0.75930  Biso   1.000  H
  H7       1.0000 0.35620  0.90630  0.24070  Biso   1.000  H
  H8       1.0000 0.14380  0.59370  0.24070  Biso   1.000  H
  H9       1.0000 0.14380  0.90630  0.24070  Biso   1.000  H
  H10      1.0000 0.35620  0.59370  0.24070  Biso   1.000  H
  H11      1.0000 0.64380  0.09370  0.75930  Biso   1.000  H
  H12      1.0000 0.85620  0.40630  0.75930  Biso   1.000  H
  C9       1.0000 0.75000  0.95947  0.97300  Biso   1.000  C
  C10      1.0000 0.75000  0.54053  0.97300  Biso   1.000  C
  C11      1.0000 0.25000  0.04053  0.02700  Biso   1.000  C
  C12      1.0000 0.25000  0.45947  0.02700  Biso   1.000  C
