data_image0
_cell_length_a       15.6938
_cell_length_b       12.7042
_cell_length_c       11.1498
_cell_angle_alpha    90
_cell_angle_beta     95.604
_cell_angle_gamma    90

_symmetry_space_group_name_H-M    "P 1"
_symmetry_int_tables_number       1

loop_
  _symmetry_equiv_pos_as_xyz
  'x, y, z'

loop_
  _atom_site_label
  _atom_site_occupancy
  _atom_site_fract_x
  _atom_site_fract_y
  _atom_site_fract_z
  _atom_site_thermal_displace_type
  _atom_site_B_iso_or_equiv
  _atom_site_type_symbol
  I1       1.0000 0.00512  0.32876  0.46534  Biso   1.000  I
  I2       1.0000 0.99488  0.32876  0.03466  Biso   1.000  I
  I3       1.0000 0.50512  0.82876  0.46534  Biso   1.000  I
  I4       1.0000 0.49488  0.82876  0.03466  Biso   1.000  I
  I5       1.0000 0.99488  0.67124  0.53466  Biso   1.000  I
  I6       1.0000 0.00512  0.67124  0.96534  Biso   1.000  I
  I7       1.0000 0.49488  0.17124  0.53466  Biso   1.000  I
  I8       1.0000 0.50512  0.17124  0.96534  Biso   1.000  I
  Cu1      1.0000 0.00809  0.52371  0.37656  Biso   1.000  Cu
  Cu2      1.0000 0.99191  0.52371  0.12344  Biso   1.000  Cu
  Cu3      1.0000 0.50809  0.02371  0.37656  Biso   1.000  Cu
  Cu4      1.0000 0.49191  0.02371  0.12344  Biso   1.000  Cu
  Cu5      1.0000 0.99191  0.47629  0.62344  Biso   1.000  Cu
  Cu6      1.0000 0.00809  0.47629  0.87656  Biso   1.000  Cu
  Cu7      1.0000 0.49191  0.97629  0.62344  Biso   1.000  Cu
  Cu8      1.0000 0.50809  0.97629  0.87656  Biso   1.000  Cu
  S1       1.0000 0.12347  0.51879  0.26046  Biso   1.000  S
  S2       1.0000 0.87653  0.51879  0.23954  Biso   1.000  S
  S3       1.0000 0.62347  0.01879  0.26046  Biso   1.000  S
  S4       1.0000 0.37653  0.01879  0.23954  Biso   1.000  S
  S5       1.0000 0.87653  0.48121  0.73954  Biso   1.000  S
  S6       1.0000 0.12347  0.48121  0.76046  Biso   1.000  S
  S7       1.0000 0.37653  0.98121  0.73954  Biso   1.000  S
  S8       1.0000 0.62347  0.98121  0.76046  Biso   1.000  S
  N1       1.0000 0.13180  0.73150  0.26750  Biso   1.000  N
  N2       1.0000 0.86820  0.73150  0.23250  Biso   1.000  N
  N3       1.0000 0.63180  0.23150  0.26750  Biso   1.000  N
  N4       1.0000 0.36820  0.23150  0.23250  Biso   1.000  N
  N5       1.0000 0.86820  0.26850  0.73250  Biso   1.000  N
  N6       1.0000 0.13180  0.26850  0.76750  Biso   1.000  N
  N7       1.0000 0.36820  0.76850  0.73250  Biso   1.000  N
  N8       1.0000 0.63180  0.76850  0.76750  Biso   1.000  N
  H1       1.0000 0.09280  0.73760  0.31610  Biso   1.000  H
  H2       1.0000 0.90720  0.73760  0.18390  Biso   1.000  H
  H3       1.0000 0.59280  0.23760  0.31610  Biso   1.000  H
  H4       1.0000 0.40720  0.23760  0.18390  Biso   1.000  H
  H5       1.0000 0.90720  0.26240  0.68390  Biso   1.000  H
  H6       1.0000 0.09280  0.26240  0.81610  Biso   1.000  H
  H7       1.0000 0.40720  0.76240  0.68390  Biso   1.000  H
  H8       1.0000 0.59280  0.76240  0.81610  Biso   1.000  H
  N9       1.0000 0.23220  0.65900  0.17320  Biso   1.000  N
  N10      1.0000 0.76780  0.65900  0.32680  Biso   1.000  N
  N11      1.0000 0.73220  0.15900  0.17320  Biso   1.000  N
  N12      1.0000 0.26780  0.15900  0.32680  Biso   1.000  N
  N13      1.0000 0.76780  0.34100  0.82680  Biso   1.000  N
  N14      1.0000 0.23220  0.34100  0.67320  Biso   1.000  N
  N15      1.0000 0.26780  0.84100  0.82680  Biso   1.000  N
  N16      1.0000 0.73220  0.84100  0.67320  Biso   1.000  N
  C1       1.0000 0.30120  0.43400  0.99720  Biso   1.000  C
  C2       1.0000 0.69880  0.43400  0.50280  Biso   1.000  C
  C3       1.0000 0.80120  0.93400  0.99720  Biso   1.000  C
  C4       1.0000 0.19880  0.93400  0.50280  Biso   1.000  C
  C5       1.0000 0.69880  0.56600  0.00280  Biso   1.000  C
  C6       1.0000 0.30120  0.56600  0.49720  Biso   1.000  C
  C7       1.0000 0.19880  0.06600  0.00280  Biso   1.000  C
  C8       1.0000 0.80120  0.06600  0.49720  Biso   1.000  C
  H9       1.0000 0.27740  0.38280  0.94450  Biso   1.000  H
  H10      1.0000 0.72260  0.38280  0.55550  Biso   1.000  H
  H11      1.0000 0.77740  0.88280  0.94450  Biso   1.000  H
  H12      1.0000 0.22260  0.88280  0.55550  Biso   1.000  H
  H13      1.0000 0.72260  0.61720  0.05550  Biso   1.000  H
  H14      1.0000 0.27740  0.61720  0.44450  Biso   1.000  H
  H15      1.0000 0.22260  0.11720  0.05550  Biso   1.000  H
  H16      1.0000 0.77740  0.11720  0.44450  Biso   1.000  H
  C9       1.0000 0.24910  0.50880  0.04580  Biso   1.000  C
  C10      1.0000 0.75090  0.50880  0.45420  Biso   1.000  C
  C11      1.0000 0.74910  0.00880  0.04580  Biso   1.000  C
  C12      1.0000 0.25090  0.00880  0.45420  Biso   1.000  C
  C13      1.0000 0.75090  0.49120  0.95420  Biso   1.000  C
  C14      1.0000 0.24910  0.49120  0.54580  Biso   1.000  C
  C15      1.0000 0.25090  0.99120  0.95420  Biso   1.000  C
  C16      1.0000 0.74910  0.99120  0.54580  Biso   1.000  C
  H17      1.0000 0.19030  0.50800  0.02450  Biso   1.000  H
  H18      1.0000 0.80970  0.50800  0.47550  Biso   1.000  H
  H19      1.0000 0.69030  0.00800  0.02450  Biso   1.000  H
  H20      1.0000 0.30970  0.00800  0.47550  Biso   1.000  H
  H21      1.0000 0.80970  0.49200  0.97550  Biso   1.000  H
  H22      1.0000 0.19030  0.49200  0.52450  Biso   1.000  H
  H23      1.0000 0.30970  0.99200  0.97550  Biso   1.000  H
  H24      1.0000 0.69030  0.99200  0.52450  Biso   1.000  H
  C17      1.0000 0.38880  0.43700  0.02820  Biso   1.000  C
  C18      1.0000 0.61120  0.43700  0.47180  Biso   1.000  C
  C19      1.0000 0.88880  0.93700  0.02820  Biso   1.000  C
  C20      1.0000 0.11120  0.93700  0.47180  Biso   1.000  C
  C21      1.0000 0.61120  0.56300  0.97180  Biso   1.000  C
  C22      1.0000 0.38880  0.56300  0.52820  Biso   1.000  C
  C23      1.0000 0.11120  0.06300  0.97180  Biso   1.000  C
  C24      1.0000 0.88880  0.06300  0.52820  Biso   1.000  C
  H25      1.0000 0.42400  0.38790  0.99590  Biso   1.000  H
  H26      1.0000 0.57600  0.38790  0.50410  Biso   1.000  H
  H27      1.0000 0.92400  0.88790  0.99590  Biso   1.000  H
  H28      1.0000 0.07600  0.88790  0.50410  Biso   1.000  H
  H29      1.0000 0.57600  0.61210  0.00410  Biso   1.000  H
  H30      1.0000 0.42400  0.61210  0.49590  Biso   1.000  H
  H31      1.0000 0.07600  0.11210  0.00410  Biso   1.000  H
  H32      1.0000 0.92400  0.11210  0.49590  Biso   1.000  H
  C25      1.0000 0.25630  0.77090  0.18340  Biso   1.000  C
  C26      1.0000 0.74370  0.77090  0.31660  Biso   1.000  C
  C27      1.0000 0.75630  0.27090  0.18340  Biso   1.000  C
  C28      1.0000 0.24370  0.27090  0.31660  Biso   1.000  C
  C29      1.0000 0.74370  0.22910  0.81660  Biso   1.000  C
  C30      1.0000 0.25630  0.22910  0.68340  Biso   1.000  C
  C31      1.0000 0.24370  0.72910  0.81660  Biso   1.000  C
  C32      1.0000 0.75630  0.72910  0.68340  Biso   1.000  C
  H33      1.0000 0.27410  0.79770  0.10830  Biso   1.000  H
  H34      1.0000 0.72590  0.79770  0.39170  Biso   1.000  H
  H35      1.0000 0.77410  0.29770  0.10830  Biso   1.000  H
  H36      1.0000 0.22590  0.29770  0.39170  Biso   1.000  H
  H37      1.0000 0.72590  0.20230  0.89170  Biso   1.000  H
  H38      1.0000 0.27410  0.20230  0.60830  Biso   1.000  H
  H39      1.0000 0.22590  0.70230  0.89170  Biso   1.000  H
  H40      1.0000 0.77410  0.70230  0.60830  Biso   1.000  H
  H41      1.0000 0.30160  0.78240  0.24760  Biso   1.000  H
  H42      1.0000 0.69840  0.78240  0.25240  Biso   1.000  H
  H43      1.0000 0.80160  0.28240  0.24760  Biso   1.000  H
  H44      1.0000 0.19840  0.28240  0.25240  Biso   1.000  H
  H45      1.0000 0.69840  0.21760  0.75240  Biso   1.000  H
  H46      1.0000 0.30160  0.21760  0.74760  Biso   1.000  H
  H47      1.0000 0.19840  0.71760  0.75240  Biso   1.000  H
  H48      1.0000 0.80160  0.71760  0.74760  Biso   1.000  H
  C33      1.0000 0.28420  0.58330  0.12490  Biso   1.000  C
  C34      1.0000 0.71580  0.58330  0.37510  Biso   1.000  C
  C35      1.0000 0.78420  0.08330  0.12490  Biso   1.000  C
  C36      1.0000 0.21580  0.08330  0.37510  Biso   1.000  C
  C37      1.0000 0.71580  0.41670  0.87510  Biso   1.000  C
  C38      1.0000 0.28420  0.41670  0.62490  Biso   1.000  C
  C39      1.0000 0.21580  0.91670  0.87510  Biso   1.000  C
  C40      1.0000 0.78420  0.91670  0.62490  Biso   1.000  C
  C41      1.0000 0.37220  0.58600  0.15540  Biso   1.000  C
  C42      1.0000 0.62780  0.58600  0.34460  Biso   1.000  C
  C43      1.0000 0.87220  0.08600  0.15540  Biso   1.000  C
  C44      1.0000 0.12780  0.08600  0.34460  Biso   1.000  C
  C45      1.0000 0.62780  0.41400  0.84460  Biso   1.000  C
  C46      1.0000 0.37220  0.41400  0.65540  Biso   1.000  C
  C47      1.0000 0.12780  0.91400  0.84460  Biso   1.000  C
  C48      1.0000 0.87220  0.91400  0.65540  Biso   1.000  C
  H49      1.0000 0.39620  0.63700  0.20820  Biso   1.000  H
  H50      1.0000 0.60380  0.63700  0.29180  Biso   1.000  H
  H51      1.0000 0.89620  0.13700  0.20820  Biso   1.000  H
  H52      1.0000 0.10380  0.13700  0.29180  Biso   1.000  H
  H53      1.0000 0.60380  0.36300  0.79180  Biso   1.000  H
  H54      1.0000 0.39620  0.36300  0.70820  Biso   1.000  H
  H55      1.0000 0.10380  0.86300  0.79180  Biso   1.000  H
  H56      1.0000 0.89620  0.86300  0.70820  Biso   1.000  H
  C49      1.0000 0.42400  0.51250  0.10670  Biso   1.000  C
  C50      1.0000 0.57600  0.51250  0.39330  Biso   1.000  C
  C51      1.0000 0.92400  0.01250  0.10670  Biso   1.000  C
  C52      1.0000 0.07600  0.01250  0.39330  Biso   1.000  C
  C53      1.0000 0.57600  0.48750  0.89330  Biso   1.000  C
  C54      1.0000 0.42400  0.48750  0.60670  Biso   1.000  C
  C55      1.0000 0.07600  0.98750  0.89330  Biso   1.000  C
  C56      1.0000 0.92400  0.98750  0.60670  Biso   1.000  C
  H57      1.0000 0.48280  0.51410  0.12710  Biso   1.000  H
  H58      1.0000 0.51720  0.51410  0.37290  Biso   1.000  H
  H59      1.0000 0.98280  0.01410  0.12710  Biso   1.000  H
  H60      1.0000 0.01720  0.01410  0.37290  Biso   1.000  H
  H61      1.0000 0.51720  0.48590  0.87290  Biso   1.000  H
  H62      1.0000 0.48280  0.48590  0.62710  Biso   1.000  H
  H63      1.0000 0.01720  0.98590  0.87290  Biso   1.000  H
  H64      1.0000 0.98280  0.98590  0.62710  Biso   1.000  H
  C57      1.0000 0.17280  0.82080  0.21250  Biso   1.000  C
  C58      1.0000 0.82720  0.82080  0.28750  Biso   1.000  C
  C59      1.0000 0.67280  0.32080  0.21250  Biso   1.000  C
  C60      1.0000 0.32720  0.32080  0.28750  Biso   1.000  C
  C61      1.0000 0.82720  0.17920  0.78750  Biso   1.000  C
  C62      1.0000 0.17280  0.17920  0.71250  Biso   1.000  C
  C63      1.0000 0.32720  0.67920  0.78750  Biso   1.000  C
  C64      1.0000 0.67280  0.67920  0.71250  Biso   1.000  C
  H65      1.0000 0.18270  0.87890  0.26850  Biso   1.000  H
  H66      1.0000 0.81730  0.87890  0.23150  Biso   1.000  H
  H67      1.0000 0.68270  0.37890  0.26850  Biso   1.000  H
  H68      1.0000 0.31730  0.37890  0.23150  Biso   1.000  H
  H69      1.0000 0.81730  0.12110  0.73150  Biso   1.000  H
  H70      1.0000 0.18270  0.12110  0.76850  Biso   1.000  H
  H71      1.0000 0.31730  0.62110  0.73150  Biso   1.000  H
  H72      1.0000 0.68270  0.62110  0.76850  Biso   1.000  H
  H73      1.0000 0.13910  0.84510  0.14030  Biso   1.000  H
  H74      1.0000 0.86090  0.84510  0.35970  Biso   1.000  H
  H75      1.0000 0.63910  0.34510  0.14030  Biso   1.000  H
  H76      1.0000 0.36090  0.34510  0.35970  Biso   1.000  H
  H77      1.0000 0.86090  0.15490  0.85970  Biso   1.000  H
  H78      1.0000 0.13910  0.15490  0.64030  Biso   1.000  H
  H79      1.0000 0.36090  0.65490  0.85970  Biso   1.000  H
  H80      1.0000 0.63910  0.65490  0.64030  Biso   1.000  H
  C65      1.0000 0.16260  0.63980  0.23270  Biso   1.000  C
  C66      1.0000 0.83740  0.63980  0.26730  Biso   1.000  C
  C67      1.0000 0.66260  0.13980  0.23270  Biso   1.000  C
  C68      1.0000 0.33740  0.13980  0.26730  Biso   1.000  C
  C69      1.0000 0.83740  0.36020  0.76730  Biso   1.000  C
  C70      1.0000 0.16260  0.36020  0.73270  Biso   1.000  C
  C71      1.0000 0.33740  0.86020  0.76730  Biso   1.000  C
  C72      1.0000 0.66260  0.86020  0.73270  Biso   1.000  C
