data_image0
_cell_length_a       10.86
_cell_length_b       11.329
_cell_length_c       22.092
_cell_angle_alpha    90
_cell_angle_beta     94.18
_cell_angle_gamma    90

_symmetry_space_group_name_H-M    "P 1"
_symmetry_int_tables_number       1

loop_
  _symmetry_equiv_pos_as_xyz
  'x, y, z'

loop_
  _atom_site_label
  _atom_site_occupancy
  _atom_site_fract_x
  _atom_site_fract_y
  _atom_site_fract_z
  _atom_site_thermal_displace_type
  _atom_site_B_iso_or_equiv
  _atom_site_type_symbol
  C1       1.0000 0.77800  0.50020  0.86410  Biso   1.000  C
  C2       1.0000 0.22200  0.00020  0.63590  Biso   1.000  C
  C3       1.0000 0.22200  0.49980  0.13590  Biso   1.000  C
  C4       1.0000 0.77800  0.99980  0.36410  Biso   1.000  C
  H1       1.0000 0.81500  0.46340  0.83250  Biso   1.000  H
  H2       1.0000 0.18500  0.96340  0.66750  Biso   1.000  H
  H3       1.0000 0.18500  0.53660  0.16750  Biso   1.000  H
  H4       1.0000 0.81500  0.03660  0.33250  Biso   1.000  H
  C5       1.0000 0.65150  0.50200  0.86340  Biso   1.000  C
  C6       1.0000 0.34850  0.00200  0.63660  Biso   1.000  C
  C7       1.0000 0.34850  0.49800  0.13660  Biso   1.000  C
  C8       1.0000 0.65150  0.99800  0.36340  Biso   1.000  C
  H5       1.0000 0.60480  0.46670  0.83140  Biso   1.000  H
  H6       1.0000 0.39520  0.96670  0.66860  Biso   1.000  H
  H7       1.0000 0.39520  0.53330  0.16860  Biso   1.000  H
  H8       1.0000 0.60480  0.03330  0.33140  Biso   1.000  H
  C9       1.0000 0.59190  0.55600  0.90990  Biso   1.000  C
  C10      1.0000 0.40810  0.05600  0.59010  Biso   1.000  C
  C11      1.0000 0.40810  0.44400  0.09010  Biso   1.000  C
  C12      1.0000 0.59190  0.94400  0.40990  Biso   1.000  C
  C13      1.0000 0.66530  0.60800  0.95560  Biso   1.000  C
  C14      1.0000 0.33470  0.10800  0.54440  Biso   1.000  C
  C15      1.0000 0.33470  0.39200  0.04440  Biso   1.000  C
  C16      1.0000 0.66530  0.89200  0.45560  Biso   1.000  C
  H9       1.0000 0.62940  0.64660  0.98700  Biso   1.000  H
  H10      1.0000 0.37060  0.14660  0.51300  Biso   1.000  H
  H11      1.0000 0.37060  0.35340  0.01300  Biso   1.000  H
  H12      1.0000 0.62940  0.85340  0.48700  Biso   1.000  H
  C17      1.0000 0.79230  0.60310  0.95520  Biso   1.000  C
  C18      1.0000 0.20770  0.10310  0.54480  Biso   1.000  C
  C19      1.0000 0.20770  0.39690  0.04480  Biso   1.000  C
  C20      1.0000 0.79230  0.89690  0.45520  Biso   1.000  C
  H13      1.0000 0.84000  0.63710  0.98730  Biso   1.000  H
  H14      1.0000 0.16000  0.13710  0.51270  Biso   1.000  H
  H15      1.0000 0.16000  0.36290  0.01270  Biso   1.000  H
  H16      1.0000 0.84000  0.86290  0.48730  Biso   1.000  H
  C21      1.0000 0.25960  0.46180  0.88720  Biso   1.000  C
  C22      1.0000 0.74040  0.96180  0.61280  Biso   1.000  C
  C23      1.0000 0.74040  0.53820  0.11280  Biso   1.000  C
  C24      1.0000 0.25960  0.03820  0.38720  Biso   1.000  C
  H17      1.0000 0.21490  0.39570  0.87360  Biso   1.000  H
  H18      1.0000 0.78510  0.89570  0.62640  Biso   1.000  H
  H19      1.0000 0.78510  0.60430  0.12640  Biso   1.000  H
  H20      1.0000 0.21490  0.10430  0.37360  Biso   1.000  H
  C25      1.0000 0.38780  0.46010  0.88590  Biso   1.000  C
  C26      1.0000 0.61220  0.96010  0.61410  Biso   1.000  C
  C27      1.0000 0.61220  0.53990  0.11410  Biso   1.000  C
  C28      1.0000 0.38780  0.03990  0.38590  Biso   1.000  C
  H21      1.0000 0.42720  0.39590  0.86950  Biso   1.000  H
  H22      1.0000 0.57280  0.89590  0.63050  Biso   1.000  H
  H23      1.0000 0.57280  0.60410  0.13050  Biso   1.000  H
  H24      1.0000 0.42720  0.10410  0.36950  Biso   1.000  H
  C29      1.0000 0.45600  0.55600  0.90930  Biso   1.000  C
  C30      1.0000 0.54400  0.05600  0.59070  Biso   1.000  C
  C31      1.0000 0.54400  0.44400  0.09070  Biso   1.000  C
  C32      1.0000 0.45600  0.94400  0.40930  Biso   1.000  C
  C33      1.0000 0.39070  0.64970  0.93290  Biso   1.000  C
  C34      1.0000 0.60930  0.14970  0.56710  Biso   1.000  C
  C35      1.0000 0.60930  0.35030  0.06710  Biso   1.000  C
  C36      1.0000 0.39070  0.85030  0.43290  Biso   1.000  C
  H25      1.0000 0.43280  0.71410  0.95040  Biso   1.000  H
  H26      1.0000 0.56720  0.21410  0.54960  Biso   1.000  H
  H27      1.0000 0.56720  0.28590  0.04960  Biso   1.000  H
  H28      1.0000 0.43280  0.78590  0.45040  Biso   1.000  H
  C37      1.0000 0.26540  0.64620  0.93010  Biso   1.000  C
  C38      1.0000 0.73460  0.14620  0.56990  Biso   1.000  C
  C39      1.0000 0.73460  0.35380  0.06990  Biso   1.000  C
  C40      1.0000 0.26540  0.85380  0.43010  Biso   1.000  C
  H29      1.0000 0.22360  0.71060  0.94470  Biso   1.000  H
  H30      1.0000 0.77640  0.21060  0.55530  Biso   1.000  H
  H31      1.0000 0.77640  0.28940  0.05530  Biso   1.000  H
  H32      1.0000 0.22360  0.78940  0.44470  Biso   1.000  H
  C41      1.0000 0.28730  0.19830  0.18680  Biso   1.000  C
  C42      1.0000 0.71270  0.69830  0.31320  Biso   1.000  C
  C43      1.0000 0.71270  0.80170  0.81320  Biso   1.000  C
  C44      1.0000 0.28730  0.30170  0.68680  Biso   1.000  C
  H33      1.0000 0.24100  0.15860  0.15610  Biso   1.000  H
  H34      1.0000 0.75900  0.65860  0.34390  Biso   1.000  H
  H35      1.0000 0.75900  0.84140  0.84390  Biso   1.000  H
  H36      1.0000 0.24100  0.34140  0.65610  Biso   1.000  H
  C45      1.0000 0.41430  0.19780  0.18650  Biso   1.000  C
  C46      1.0000 0.58570  0.69780  0.31350  Biso   1.000  C
  C47      1.0000 0.58570  0.80220  0.81350  Biso   1.000  C
  C48      1.0000 0.41430  0.30220  0.68650  Biso   1.000  C
  H37      1.0000 0.45230  0.15780  0.15620  Biso   1.000  H
  H38      1.0000 0.54770  0.65780  0.34380  Biso   1.000  H
  H39      1.0000 0.54770  0.84220  0.84380  Biso   1.000  H
  H40      1.0000 0.45230  0.34220  0.65620  Biso   1.000  H
  C49      1.0000 0.48540  0.25760  0.23200  Biso   1.000  C
  C50      1.0000 0.51460  0.75760  0.26800  Biso   1.000  C
  C51      1.0000 0.51460  0.74240  0.76800  Biso   1.000  C
  C52      1.0000 0.48540  0.24240  0.73200  Biso   1.000  C
  C53      1.0000 0.42380  0.31510  0.27600  Biso   1.000  C
  C54      1.0000 0.57620  0.81510  0.22400  Biso   1.000  C
  C55      1.0000 0.57620  0.68490  0.72400  Biso   1.000  C
  C56      1.0000 0.42380  0.18490  0.77600  Biso   1.000  C
  H41      1.0000 0.46790  0.35630  0.30690  Biso   1.000  H
  H42      1.0000 0.53210  0.85630  0.19310  Biso   1.000  H
  H43      1.0000 0.53210  0.64370  0.69310  Biso   1.000  H
  H44      1.0000 0.46790  0.14370  0.80690  Biso   1.000  H
  C57      1.0000 0.29700  0.31100  0.27390  Biso   1.000  C
  C58      1.0000 0.70300  0.81100  0.22610  Biso   1.000  C
  C59      1.0000 0.70300  0.68900  0.72610  Biso   1.000  C
  C60      1.0000 0.29700  0.18900  0.77390  Biso   1.000  C
  H45      1.0000 0.25700  0.34910  0.30420  Biso   1.000  H
  H46      1.0000 0.74300  0.84910  0.19580  Biso   1.000  H
  H47      1.0000 0.74300  0.65090  0.69580  Biso   1.000  H
  H48      1.0000 0.25700  0.15090  0.80420  Biso   1.000  H
  C61      1.0000 0.81700  0.35620  0.24720  Biso   1.000  C
  C62      1.0000 0.18300  0.85620  0.25280  Biso   1.000  C
  C63      1.0000 0.18300  0.64380  0.75280  Biso   1.000  C
  C64      1.0000 0.81700  0.14380  0.74720  Biso   1.000  C
  H49      1.0000 0.86190  0.42280  0.25990  Biso   1.000  H
  H50      1.0000 0.13810  0.92280  0.24010  Biso   1.000  H
  H51      1.0000 0.13810  0.57720  0.74010  Biso   1.000  H
  H52      1.0000 0.86190  0.07720  0.75990  Biso   1.000  H
  C65      1.0000 0.69070  0.35860  0.24920  Biso   1.000  C
  C66      1.0000 0.30930  0.85860  0.25080  Biso   1.000  C
  C67      1.0000 0.30930  0.64140  0.75080  Biso   1.000  C
  C68      1.0000 0.69070  0.14140  0.74920  Biso   1.000  C
  H53      1.0000 0.65130  0.42570  0.26260  Biso   1.000  H
  H54      1.0000 0.34870  0.92570  0.23740  Biso   1.000  H
  H55      1.0000 0.34870  0.57430  0.73740  Biso   1.000  H
  H56      1.0000 0.65130  0.07430  0.76260  Biso   1.000  H
  C69      1.0000 0.62310  0.25910  0.23100  Biso   1.000  C
  C70      1.0000 0.37690  0.75910  0.26900  Biso   1.000  C
  C71      1.0000 0.37690  0.74090  0.76900  Biso   1.000  C
  C72      1.0000 0.62310  0.24090  0.73100  Biso   1.000  C
  C73      1.0000 0.68620  0.16310  0.21110  Biso   1.000  C
  C74      1.0000 0.31380  0.66310  0.28890  Biso   1.000  C
  C75      1.0000 0.31380  0.83690  0.78890  Biso   1.000  C
  C76      1.0000 0.68620  0.33690  0.71110  Biso   1.000  C
  H57      1.0000 0.64350  0.09540  0.19830  Biso   1.000  H
  H58      1.0000 0.35650  0.59540  0.30170  Biso   1.000  H
  H59      1.0000 0.35650  0.90460  0.80170  Biso   1.000  H
  H60      1.0000 0.64350  0.40460  0.69830  Biso   1.000  H
  C77      1.0000 0.81270  0.16750  0.21000  Biso   1.000  C
  C78      1.0000 0.18730  0.66750  0.29000  Biso   1.000  C
  C79      1.0000 0.18730  0.83250  0.79000  Biso   1.000  C
  C80      1.0000 0.81270  0.33250  0.71000  Biso   1.000  C
  H61      1.0000 0.85420  0.10200  0.19630  Biso   1.000  H
  H62      1.0000 0.14580  0.60200  0.30370  Biso   1.000  H
  H63      1.0000 0.14580  0.89800  0.80370  Biso   1.000  H
  H64      1.0000 0.85420  0.39800  0.69630  Biso   1.000  H
  Cu1      1.0000 0.05333  0.26097  0.22618  Biso   1.000  Cu
  Cu2      1.0000 0.94667  0.76097  0.27382  Biso   1.000  Cu
  Cu3      1.0000 0.94667  0.73903  0.77382  Biso   1.000  Cu
  Cu4      1.0000 0.05333  0.23903  0.72618  Biso   1.000  Cu
  Cu5      1.0000 0.02346  0.54991  0.90852  Biso   1.000  Cu
  Cu6      1.0000 0.97654  0.04991  0.59148  Biso   1.000  Cu
  Cu7      1.0000 0.97654  0.45009  0.09148  Biso   1.000  Cu
  Cu8      1.0000 0.02346  0.95009  0.40852  Biso   1.000  Cu
  Mo1      1.0000 0.02825  0.12295  0.04900  Biso   1.000  Mo
  Mo2      1.0000 0.97175  0.62295  0.45100  Biso   1.000  Mo
  Mo3      1.0000 0.97175  0.87705  0.95100  Biso   1.000  Mo
  Mo4      1.0000 0.02825  0.37705  0.54900  Biso   1.000  Mo
  Mo5      1.0000 0.02054  0.18459  0.89291  Biso   1.000  Mo
  Mo6      1.0000 0.97946  0.68459  0.60709  Biso   1.000  Mo
  Mo7      1.0000 0.97946  0.81541  0.10709  Biso   1.000  Mo
  Mo8      1.0000 0.02054  0.31541  0.39291  Biso   1.000  Mo
  Mo9      1.0000 0.70050  0.12659  0.92245  Biso   1.000  Mo
  Mo10     1.0000 0.29950  0.62659  0.57755  Biso   1.000  Mo
  Mo11     1.0000 0.29950  0.87341  0.07755  Biso   1.000  Mo
  Mo12     1.0000 0.70050  0.37341  0.42245  Biso   1.000  Mo
  Mo13     1.0000 0.27951  0.06845  0.95711  Biso   1.000  Mo
  Mo14     1.0000 0.72049  0.56845  0.54289  Biso   1.000  Mo
  Mo15     1.0000 0.72049  0.93155  0.04289  Biso   1.000  Mo
  Mo16     1.0000 0.27951  0.43155  0.45711  Biso   1.000  Mo
  N1       1.0000 0.22820  0.25420  0.22990  Biso   1.000  N
  N2       1.0000 0.77180  0.75420  0.27010  Biso   1.000  N
  N3       1.0000 0.77180  0.74580  0.77010  Biso   1.000  N
  N4       1.0000 0.22820  0.24580  0.72990  Biso   1.000  N
  N5       1.0000 0.87810  0.26330  0.22805  Biso   1.000  N
  N6       1.0000 0.12190  0.76330  0.27195  Biso   1.000  N
  N7       1.0000 0.12190  0.73670  0.77195  Biso   1.000  N
  N8       1.0000 0.87810  0.23670  0.72805  Biso   1.000  N
  N9       1.0000 0.19860  0.55410  0.90730  Biso   1.000  N
  N10      1.0000 0.80140  0.05410  0.59270  Biso   1.000  N
  N11      1.0000 0.80140  0.44590  0.09270  Biso   1.000  N
  N12      1.0000 0.19860  0.94590  0.40730  Biso   1.000  N
  N13      1.0000 0.85080  0.55030  0.90960  Biso   1.000  N
  N14      1.0000 0.14920  0.05030  0.59040  Biso   1.000  N
  N15      1.0000 0.14920  0.44970  0.09040  Biso   1.000  N
  N16      1.0000 0.85080  0.94970  0.40960  Biso   1.000  N
  O1       1.0000 0.99480  0.32670  0.87100  Biso   1.000  O
  O2       1.0000 0.00520  0.82670  0.62900  Biso   1.000  O
  O3       1.0000 0.00520  0.67330  0.12900  Biso   1.000  O
  O4       1.0000 0.99480  0.17330  0.37100  Biso   1.000  O
  O5       1.0000 0.05670  0.11500  0.82797  Biso   1.000  O
  O6       1.0000 0.94330  0.61500  0.67203  Biso   1.000  O
  O7       1.0000 0.94330  0.88500  0.17203  Biso   1.000  O
  O8       1.0000 0.05670  0.38500  0.32797  Biso   1.000  O
  O9       1.0000 0.85170  0.12400  0.88930  Biso   1.000  O
  O10      1.0000 0.14830  0.62400  0.61070  Biso   1.000  O
  O11      1.0000 0.14830  0.87600  0.11070  Biso   1.000  O
  O12      1.0000 0.85170  0.37600  0.38930  Biso   1.000  O
  O13      1.0000 0.60090  0.03950  0.87958  Biso   1.000  O
  O14      1.0000 0.39910  0.53950  0.62042  Biso   1.000  O
  O15      1.0000 0.39910  0.96050  0.12042  Biso   1.000  O
  O16      1.0000 0.60090  0.46050  0.37958  Biso   1.000  O
  O17      1.0000 0.29150  0.91320  0.99683  Biso   1.000  O
  O18      1.0000 0.70850  0.41320  0.50317  Biso   1.000  O
  O19      1.0000 0.70850  0.08680  0.00317  Biso   1.000  O
  O20      1.0000 0.29150  0.58680  0.49683  Biso   1.000  O
  O21      1.0000 0.18960  0.10190  0.04539  Biso   1.000  O
  O22      1.0000 0.81040  0.60190  0.45461  Biso   1.000  O
  O23      1.0000 0.81040  0.89810  0.95461  Biso   1.000  O
  O24      1.0000 0.18960  0.39810  0.54539  Biso   1.000  O
  O25      1.0000 0.01190  0.19750  0.11468  Biso   1.000  O
  O26      1.0000 0.98810  0.69750  0.38532  Biso   1.000  O
  O27      1.0000 0.98810  0.80250  0.88532  Biso   1.000  O
  O28      1.0000 0.01190  0.30250  0.61468  Biso   1.000  O
  O29      1.0000 0.96950  0.21750  0.99000  Biso   1.000  O
  O30      1.0000 0.03050  0.71750  0.51000  Biso   1.000  O
  O31      1.0000 0.03050  0.78250  0.01000  Biso   1.000  O
  O32      1.0000 0.96950  0.28250  0.49000  Biso   1.000  O
  O33      1.0000 0.93890  0.98630  0.05307  Biso   1.000  O
  O34      1.0000 0.06110  0.48630  0.44693  Biso   1.000  O
  O35      1.0000 0.06110  0.01370  0.94693  Biso   1.000  O
  O36      1.0000 0.93890  0.51370  0.55307  Biso   1.000  O
  O37      1.0000 0.18300  0.20440  0.93095  Biso   1.000  O
  O38      1.0000 0.81700  0.70440  0.56905  Biso   1.000  O
  O39      1.0000 0.81700  0.79560  0.06905  Biso   1.000  O
  O40      1.0000 0.18300  0.29560  0.43095  Biso   1.000  O
  O41      1.0000 0.30460  0.01690  0.88775  Biso   1.000  O
  O42      1.0000 0.69540  0.51690  0.61225  Biso   1.000  O
  O43      1.0000 0.69540  0.98310  0.11225  Biso   1.000  O
  O44      1.0000 0.30460  0.48310  0.38775  Biso   1.000  O
  O45      1.0000 0.41300  0.13420  0.98263  Biso   1.000  O
  O46      1.0000 0.58700  0.63420  0.51737  Biso   1.000  O
  O47      1.0000 0.58700  0.86580  0.01737  Biso   1.000  O
  O48      1.0000 0.41300  0.36580  0.48263  Biso   1.000  O
  O49      1.0000 0.64240  0.26590  0.91750  Biso   1.000  O
  O50      1.0000 0.35760  0.76590  0.58250  Biso   1.000  O
  O51      1.0000 0.35760  0.73410  0.08250  Biso   1.000  O
  O52      1.0000 0.64240  0.23410  0.41750  Biso   1.000  O
