data_image0
_cell_length_a       10.8126
_cell_length_b       11.2959
_cell_length_c       22.0229
_cell_angle_alpha    90
_cell_angle_beta     94.11
_cell_angle_gamma    90

_symmetry_space_group_name_H-M    "P 1"
_symmetry_int_tables_number       1

loop_
  _symmetry_equiv_pos_as_xyz
  'x, y, z'

loop_
  _atom_site_label
  _atom_site_occupancy
  _atom_site_fract_x
  _atom_site_fract_y
  _atom_site_fract_z
  _atom_site_thermal_displace_type
  _atom_site_B_iso_or_equiv
  _atom_site_type_symbol
  Mo1      1.0000 0.97168  0.87716  0.45104  Biso   1.000  Mo
  Mo2      1.0000 0.02832  0.37716  0.04896  Biso   1.000  Mo
  Mo3      1.0000 0.02832  0.12284  0.54896  Biso   1.000  Mo
  Mo4      1.0000 0.97168  0.62284  0.95104  Biso   1.000  Mo
  Mo5      1.0000 0.97891  0.81569  0.60703  Biso   1.000  Mo
  Mo6      1.0000 0.02109  0.31569  0.89297  Biso   1.000  Mo
  Mo7      1.0000 0.02109  0.18431  0.39297  Biso   1.000  Mo
  Mo8      1.0000 0.97891  0.68431  0.10703  Biso   1.000  Mo
  Mo9      1.0000 0.29946  0.87380  0.57765  Biso   1.000  Mo
  Mo10     1.0000 0.70054  0.37380  0.92235  Biso   1.000  Mo
  Mo11     1.0000 0.70054  0.12620  0.42235  Biso   1.000  Mo
  Mo12     1.0000 0.29946  0.62620  0.07765  Biso   1.000  Mo
  Mo13     1.0000 0.27970  0.06814  0.45719  Biso   1.000  Mo
  Mo14     1.0000 0.72030  0.56814  0.04281  Biso   1.000  Mo
  Mo15     1.0000 0.72030  0.93186  0.54281  Biso   1.000  Mo
  Mo16     1.0000 0.27970  0.43186  0.95719  Biso   1.000  Mo
  Cu1      1.0000 0.02394  0.94980  0.90844  Biso   1.000  Cu
  Cu2      1.0000 0.97606  0.44980  0.59156  Biso   1.000  Cu
  Cu3      1.0000 0.97606  0.05020  0.09156  Biso   1.000  Cu
  Cu4      1.0000 0.02394  0.55020  0.40844  Biso   1.000  Cu
  Cu5      1.0000 0.94573  0.73900  0.27367  Biso   1.000  Cu
  Cu6      1.0000 0.05427  0.23900  0.22633  Biso   1.000  Cu
  Cu7      1.0000 0.05427  0.26100  0.72633  Biso   1.000  Cu
  Cu8      1.0000 0.94573  0.76100  0.77367  Biso   1.000  Cu
  O1       1.0000 0.02940  0.78270  0.50980  Biso   1.000  O
  O2       1.0000 0.97060  0.28270  0.99020  Biso   1.000  O
  O3       1.0000 0.97060  0.21730  0.49020  Biso   1.000  O
  O4       1.0000 0.02940  0.71730  0.00980  Biso   1.000  O
  O5       1.0000 0.98790  0.80300  0.38430  Biso   1.000  O
  O6       1.0000 0.01210  0.30300  0.11570  Biso   1.000  O
  O7       1.0000 0.01210  0.19700  0.61570  Biso   1.000  O
  O8       1.0000 0.98790  0.69700  0.88430  Biso   1.000  O
  O9       1.0000 0.06310  0.01280  0.44720  Biso   1.000  O
  O10      1.0000 0.93690  0.51280  0.05280  Biso   1.000  O
  O11      1.0000 0.93690  0.98720  0.55280  Biso   1.000  O
  O12      1.0000 0.06310  0.48720  0.94720  Biso   1.000  O
  O13      1.0000 0.00480  0.67180  0.62860  Biso   1.000  O
  O14      1.0000 0.99520  0.17180  0.87140  Biso   1.000  O
  O15      1.0000 0.99520  0.32820  0.37140  Biso   1.000  O
  O16      1.0000 0.00480  0.82820  0.12860  Biso   1.000  O
  O17      1.0000 0.94320  0.88460  0.67250  Biso   1.000  O
  O18      1.0000 0.05680  0.38460  0.82750  Biso   1.000  O
  O19      1.0000 0.05680  0.11540  0.32750  Biso   1.000  O
  O20      1.0000 0.94320  0.61540  0.17250  Biso   1.000  O
  O21      1.0000 0.14860  0.87490  0.61020  Biso   1.000  O
  O22      1.0000 0.85140  0.37490  0.88980  Biso   1.000  O
  O23      1.0000 0.85140  0.12510  0.38980  Biso   1.000  O
  O24      1.0000 0.14860  0.62510  0.11020  Biso   1.000  O
  O25      1.0000 0.35600  0.73400  0.58380  Biso   1.000  O
  O26      1.0000 0.64400  0.23400  0.91620  Biso   1.000  O
  O27      1.0000 0.64400  0.26600  0.41620  Biso   1.000  O
  O28      1.0000 0.35600  0.76600  0.08380  Biso   1.000  O
  O29      1.0000 0.39770  0.96100  0.62040  Biso   1.000  O
  O30      1.0000 0.60230  0.46100  0.87960  Biso   1.000  O
  O31      1.0000 0.60230  0.03900  0.37960  Biso   1.000  O
  O32      1.0000 0.39770  0.53900  0.12040  Biso   1.000  O
  O33      1.0000 0.29180  0.91330  0.49670  Biso   1.000  O
  O34      1.0000 0.70820  0.41330  0.00330  Biso   1.000  O
  O35      1.0000 0.70820  0.08670  0.50330  Biso   1.000  O
  O36      1.0000 0.29180  0.58670  0.99670  Biso   1.000  O
  O37      1.0000 0.41400  0.13560  0.48230  Biso   1.000  O
  O38      1.0000 0.58600  0.63560  0.01770  Biso   1.000  O
  O39      1.0000 0.58600  0.86440  0.51770  Biso   1.000  O
  O40      1.0000 0.41400  0.36440  0.98230  Biso   1.000  O
  O41      1.0000 0.30670  0.01650  0.38730  Biso   1.000  O
  O42      1.0000 0.69330  0.51650  0.11270  Biso   1.000  O
  O43      1.0000 0.69330  0.98350  0.61270  Biso   1.000  O
  O44      1.0000 0.30670  0.48350  0.88730  Biso   1.000  O
  O45      1.0000 0.81650  0.79670  0.56860  Biso   1.000  O
  O46      1.0000 0.18350  0.29670  0.93140  Biso   1.000  O
  O47      1.0000 0.18350  0.20330  0.43140  Biso   1.000  O
  O48      1.0000 0.81650  0.70330  0.06860  Biso   1.000  O
  O49      1.0000 0.81060  0.89870  0.45490  Biso   1.000  O
  O50      1.0000 0.18940  0.39870  0.04510  Biso   1.000  O
  O51      1.0000 0.18940  0.10130  0.54510  Biso   1.000  O
  O52      1.0000 0.81060  0.60130  0.95490  Biso   1.000  O
  N1       1.0000 0.19790  0.94560  0.90730  Biso   1.000  N
  N2       1.0000 0.80210  0.44560  0.59270  Biso   1.000  N
  N3       1.0000 0.80210  0.05440  0.09270  Biso   1.000  N
  N4       1.0000 0.19790  0.55440  0.40730  Biso   1.000  N
  N5       1.0000 0.84980  0.94850  0.91020  Biso   1.000  N
  N6       1.0000 0.15020  0.44850  0.58980  Biso   1.000  N
  N7       1.0000 0.15020  0.05150  0.08980  Biso   1.000  N
  N8       1.0000 0.84980  0.55150  0.41020  Biso   1.000  N
  N9       1.0000 0.12170  0.73590  0.27160  Biso   1.000  N
  N10      1.0000 0.87830  0.23590  0.22840  Biso   1.000  N
  N11      1.0000 0.87830  0.26410  0.72840  Biso   1.000  N
  N12      1.0000 0.12170  0.76410  0.77160  Biso   1.000  N
  N13      1.0000 0.77060  0.74260  0.27030  Biso   1.000  N
  N14      1.0000 0.22940  0.24260  0.22970  Biso   1.000  N
  N15      1.0000 0.22940  0.25740  0.72970  Biso   1.000  N
  N16      1.0000 0.77060  0.75740  0.77030  Biso   1.000  N
  C1       1.0000 0.26410  0.85650  0.93140  Biso   1.000  C
  C2       1.0000 0.73590  0.35650  0.56860  Biso   1.000  C
  C3       1.0000 0.73590  0.14350  0.06860  Biso   1.000  C
  C4       1.0000 0.26410  0.64350  0.43140  Biso   1.000  C
  H1       1.0000 0.22270  0.79400  0.94850  Biso   1.000  H
  H2       1.0000 0.77730  0.29400  0.55150  Biso   1.000  H
  H3       1.0000 0.77730  0.20600  0.05150  Biso   1.000  H
  H4       1.0000 0.22270  0.70600  0.44850  Biso   1.000  H
  C5       1.0000 0.39200  0.85210  0.93220  Biso   1.000  C
  C6       1.0000 0.60800  0.35210  0.56780  Biso   1.000  C
  C7       1.0000 0.60800  0.14790  0.06780  Biso   1.000  C
  C8       1.0000 0.39200  0.64790  0.43220  Biso   1.000  C
  H5       1.0000 0.43450  0.78680  0.94880  Biso   1.000  H
  H6       1.0000 0.56550  0.28680  0.55120  Biso   1.000  H
  H7       1.0000 0.56550  0.21320  0.05120  Biso   1.000  H
  H8       1.0000 0.43450  0.71320  0.44880  Biso   1.000  H
  C9       1.0000 0.45620  0.94400  0.90870  Biso   1.000  C
  C10      1.0000 0.54380  0.44400  0.59130  Biso   1.000  C
  C11      1.0000 0.54380  0.05600  0.09130  Biso   1.000  C
  C12      1.0000 0.45620  0.55600  0.40870  Biso   1.000  C
  C13      1.0000 0.38700  0.04030  0.88630  Biso   1.000  C
  C14      1.0000 0.61300  0.54030  0.61370  Biso   1.000  C
  C15      1.0000 0.61300  0.95970  0.11370  Biso   1.000  C
  C16      1.0000 0.38700  0.45970  0.38630  Biso   1.000  C
  H9       1.0000 0.42600  0.10650  0.87140  Biso   1.000  H
  H10      1.0000 0.57400  0.60650  0.62860  Biso   1.000  H
  H11      1.0000 0.57400  0.89350  0.12860  Biso   1.000  H
  H12      1.0000 0.42600  0.39350  0.37140  Biso   1.000  H
  C17      1.0000 0.25930  0.03600  0.88660  Biso   1.000  C
  C18      1.0000 0.74070  0.53600  0.61340  Biso   1.000  C
  C19      1.0000 0.74070  0.96400  0.11340  Biso   1.000  C
  C20      1.0000 0.25930  0.46400  0.38660  Biso   1.000  C
  H13      1.0000 0.21400  0.10070  0.87120  Biso   1.000  H
  H14      1.0000 0.78600  0.60070  0.62880  Biso   1.000  H
  H15      1.0000 0.78600  0.89930  0.12880  Biso   1.000  H
  H16      1.0000 0.21400  0.39930  0.37120  Biso   1.000  H
  C21      1.0000 0.59230  0.94600  0.90930  Biso   1.000  C
  C22      1.0000 0.40770  0.44600  0.59070  Biso   1.000  C
  C23      1.0000 0.40770  0.05400  0.09070  Biso   1.000  C
  C24      1.0000 0.59230  0.55400  0.40930  Biso   1.000  C
  C25      1.0000 0.66610  0.89130  0.95600  Biso   1.000  C
  C26      1.0000 0.33390  0.39130  0.54400  Biso   1.000  C
  C27      1.0000 0.33390  0.10870  0.04400  Biso   1.000  C
  C28      1.0000 0.66610  0.60870  0.45600  Biso   1.000  C
  H17      1.0000 0.63060  0.85200  0.98750  Biso   1.000  H
  H18      1.0000 0.36940  0.35200  0.51250  Biso   1.000  H
  H19      1.0000 0.36940  0.14800  0.01250  Biso   1.000  H
  H20      1.0000 0.63060  0.64800  0.48750  Biso   1.000  H
  C29      1.0000 0.79180  0.89750  0.95380  Biso   1.000  C
  C30      1.0000 0.20820  0.39750  0.54620  Biso   1.000  C
  C31      1.0000 0.20820  0.10250  0.04620  Biso   1.000  C
  C32      1.0000 0.79180  0.60250  0.45380  Biso   1.000  C
  H21      1.0000 0.84030  0.86300  0.98560  Biso   1.000  H
  H22      1.0000 0.15970  0.36300  0.51440  Biso   1.000  H
  H23      1.0000 0.15970  0.13700  0.01440  Biso   1.000  H
  H24      1.0000 0.84030  0.63700  0.48560  Biso   1.000  H
  C33      1.0000 0.77900  0.00110  0.86450  Biso   1.000  C
  C34      1.0000 0.22100  0.50110  0.63550  Biso   1.000  C
  C35      1.0000 0.22100  0.99890  0.13550  Biso   1.000  C
  C36      1.0000 0.77900  0.49890  0.36450  Biso   1.000  C
  H25      1.0000 0.81730  0.03910  0.83340  Biso   1.000  H
  H26      1.0000 0.18270  0.53910  0.66660  Biso   1.000  H
  H27      1.0000 0.18270  0.96090  0.16660  Biso   1.000  H
  H28      1.0000 0.81730  0.46090  0.33340  Biso   1.000  H
  C37      1.0000 0.65160  0.99920  0.86320  Biso   1.000  C
  C38      1.0000 0.34840  0.49920  0.63680  Biso   1.000  C
  C39      1.0000 0.34840  0.00080  0.13680  Biso   1.000  C
  C40      1.0000 0.65160  0.50080  0.36320  Biso   1.000  C
  H29      1.0000 0.60500  0.03420  0.83090  Biso   1.000  H
  H30      1.0000 0.39500  0.53420  0.66910  Biso   1.000  H
  H31      1.0000 0.39500  0.96580  0.16910  Biso   1.000  H
  H32      1.0000 0.60500  0.46580  0.33090  Biso   1.000  H
  C41      1.0000 0.18330  0.64240  0.25300  Biso   1.000  C
  C42      1.0000 0.81670  0.14240  0.24700  Biso   1.000  C
  C43      1.0000 0.81670  0.35760  0.74700  Biso   1.000  C
  C44      1.0000 0.18330  0.85760  0.75300  Biso   1.000  C
  H33      1.0000 0.13850  0.57500  0.24100  Biso   1.000  H
  H34      1.0000 0.86150  0.07500  0.25900  Biso   1.000  H
  H35      1.0000 0.86150  0.42500  0.75900  Biso   1.000  H
  H36      1.0000 0.13850  0.92500  0.74100  Biso   1.000  H
  C45      1.0000 0.31050  0.64040  0.25050  Biso   1.000  C
  C46      1.0000 0.68950  0.14040  0.24950  Biso   1.000  C
  C47      1.0000 0.68950  0.35960  0.74950  Biso   1.000  C
  C48      1.0000 0.31050  0.85960  0.75050  Biso   1.000  C
  H37      1.0000 0.35060  0.57350  0.23700  Biso   1.000  H
  H38      1.0000 0.64940  0.07350  0.26300  Biso   1.000  H
  H39      1.0000 0.64940  0.42650  0.76300  Biso   1.000  H
  H40      1.0000 0.35060  0.92650  0.73700  Biso   1.000  H
  C49      1.0000 0.37690  0.74070  0.26870  Biso   1.000  C
  C50      1.0000 0.62310  0.24070  0.23130  Biso   1.000  C
  C51      1.0000 0.62310  0.25930  0.73130  Biso   1.000  C
  C52      1.0000 0.37690  0.75930  0.76870  Biso   1.000  C
  C53      1.0000 0.31540  0.83470  0.28880  Biso   1.000  C
  C54      1.0000 0.68460  0.33470  0.21120  Biso   1.000  C
  C55      1.0000 0.68460  0.16530  0.71120  Biso   1.000  C
  C56      1.0000 0.31540  0.66530  0.78880  Biso   1.000  C
  H41      1.0000 0.35910  0.90220  0.30140  Biso   1.000  H
  H42      1.0000 0.64090  0.40220  0.19860  Biso   1.000  H
  H43      1.0000 0.64090  0.09780  0.69860  Biso   1.000  H
  H44      1.0000 0.35910  0.59780  0.80140  Biso   1.000  H
  C57      1.0000 0.18810  0.83200  0.29080  Biso   1.000  C
  C58      1.0000 0.81190  0.33200  0.20920  Biso   1.000  C
  C59      1.0000 0.81190  0.16800  0.70920  Biso   1.000  C
  C60      1.0000 0.18810  0.66800  0.79080  Biso   1.000  C
  H45      1.0000 0.14740  0.89740  0.30550  Biso   1.000  H
  H46      1.0000 0.85260  0.39740  0.19450  Biso   1.000  H
  H47      1.0000 0.85260  0.10260  0.69450  Biso   1.000  H
  H48      1.0000 0.14740  0.60260  0.80550  Biso   1.000  H
  C61      1.0000 0.51340  0.74120  0.26820  Biso   1.000  C
  C62      1.0000 0.48660  0.24120  0.23180  Biso   1.000  C
  C63      1.0000 0.48660  0.25880  0.73180  Biso   1.000  C
  C64      1.0000 0.51340  0.75880  0.76820  Biso   1.000  C
  C65      1.0000 0.57480  0.68420  0.22430  Biso   1.000  C
  C66      1.0000 0.42520  0.18420  0.27570  Biso   1.000  C
  C67      1.0000 0.42520  0.31580  0.77570  Biso   1.000  C
  C68      1.0000 0.57480  0.81580  0.72430  Biso   1.000  C
  H49      1.0000 0.53050  0.64290  0.19330  Biso   1.000  H
  H50      1.0000 0.46950  0.14290  0.30670  Biso   1.000  H
  H51      1.0000 0.46950  0.35710  0.80670  Biso   1.000  H
  H52      1.0000 0.53050  0.85710  0.69330  Biso   1.000  H
  C69      1.0000 0.69860  0.68820  0.22620  Biso   1.000  C
  C70      1.0000 0.30140  0.18820  0.27380  Biso   1.000  C
  C71      1.0000 0.30140  0.31180  0.77380  Biso   1.000  C
  C72      1.0000 0.69860  0.81180  0.72620  Biso   1.000  C
  H53      1.0000 0.73770  0.65090  0.19510  Biso   1.000  H
  H54      1.0000 0.26230  0.15090  0.30490  Biso   1.000  H
  H55      1.0000 0.26230  0.34910  0.80490  Biso   1.000  H
  H56      1.0000 0.73770  0.84910  0.69510  Biso   1.000  H
  C73      1.0000 0.71110  0.80100  0.31250  Biso   1.000  C
  C74      1.0000 0.28890  0.30100  0.18750  Biso   1.000  C
  C75      1.0000 0.28890  0.19900  0.68750  Biso   1.000  C
  C76      1.0000 0.71110  0.69900  0.81250  Biso   1.000  C
  H57      1.0000 0.75760  0.84180  0.34280  Biso   1.000  H
  H58      1.0000 0.24240  0.34180  0.15720  Biso   1.000  H
  H59      1.0000 0.24240  0.15820  0.65720  Biso   1.000  H
  H60      1.0000 0.75760  0.65820  0.84280  Biso   1.000  H
  C77      1.0000 0.58380  0.80310  0.31260  Biso   1.000  C
  C78      1.0000 0.41620  0.30310  0.18740  Biso   1.000  C
  C79      1.0000 0.41620  0.19690  0.68740  Biso   1.000  C
  C80      1.0000 0.58380  0.69690  0.81260  Biso   1.000  C
  H61      1.0000 0.54550  0.84550  0.34230  Biso   1.000  H
  H62      1.0000 0.45450  0.34550  0.15770  Biso   1.000  H
  H63      1.0000 0.45450  0.15450  0.65770  Biso   1.000  H
  H64      1.0000 0.54550  0.65450  0.84230  Biso   1.000  H
