data_image0
_cell_length_a       12.3934
_cell_length_b       7.616
_cell_length_c       12.7958
_cell_angle_alpha    90
_cell_angle_beta     90
_cell_angle_gamma    90

_symmetry_space_group_name_H-M    "P 1"
_symmetry_int_tables_number       1

loop_
  _symmetry_equiv_pos_as_xyz
  'x, y, z'

loop_
  _atom_site_label
  _atom_site_occupancy
  _atom_site_fract_x
  _atom_site_fract_y
  _atom_site_fract_z
  _atom_site_thermal_displace_type
  _atom_site_B_iso_or_equiv
  _atom_site_type_symbol
  Cu1      1.0000 0.23650  0.75000  0.21498  Biso   1.000  Cu
  Cu2      1.0000 0.26350  0.25000  0.71498  Biso   1.000  Cu
  Cu3      1.0000 0.76350  0.25000  0.78502  Biso   1.000  Cu
  Cu4      1.0000 0.73650  0.75000  0.28502  Biso   1.000  Cu
  Cu5      1.0000 0.61350  0.75000  0.82456  Biso   1.000  Cu
  Cu6      1.0000 0.88650  0.25000  0.32456  Biso   1.000  Cu
  Cu7      1.0000 0.38650  0.25000  0.17544  Biso   1.000  Cu
  Cu8      1.0000 0.11350  0.75000  0.67544  Biso   1.000  Cu
  Mo1      1.0000 0.33800  0.75000  0.48574  Biso   1.000  Mo
  Mo2      1.0000 0.16200  0.25000  0.98574  Biso   1.000  Mo
  Mo3      1.0000 0.66200  0.25000  0.51426  Biso   1.000  Mo
  Mo4      1.0000 0.83800  0.75000  0.01426  Biso   1.000  Mo
  Mo5      1.0000 0.01236  0.00094  0.13622  Biso   1.000  Mo
  Mo6      1.0000 0.48764  0.99906  0.63622  Biso   1.000  Mo
  Mo7      1.0000 0.98764  0.50094  0.86378  Biso   1.000  Mo
  Mo8      1.0000 0.51236  0.49906  0.36378  Biso   1.000  Mo
  Mo9      1.0000 0.98764  0.99906  0.86378  Biso   1.000  Mo
  Mo10     1.0000 0.51236  0.00094  0.36378  Biso   1.000  Mo
  Mo11     1.0000 0.01236  0.49906  0.13622  Biso   1.000  Mo
  Mo12     1.0000 0.48764  0.50094  0.63622  Biso   1.000  Mo
  N1       1.0000 0.33730  0.75000  0.09410  Biso   1.000  N
  N2       1.0000 0.16270  0.25000  0.59410  Biso   1.000  N
  N3       1.0000 0.66270  0.25000  0.90590  Biso   1.000  N
  N4       1.0000 0.83730  0.75000  0.40590  Biso   1.000  N
  N5       1.0000 0.48740  0.75000  0.93190  Biso   1.000  N
  N6       1.0000 0.01260  0.25000  0.43190  Biso   1.000  N
  N7       1.0000 0.51260  0.25000  0.06810  Biso   1.000  N
  N8       1.0000 0.98740  0.75000  0.56810  Biso   1.000  N
  O1       1.0000 0.48420  0.75000  0.38700  Biso   1.000  O
  O2       1.0000 0.01580  0.25000  0.88700  Biso   1.000  O
  O3       1.0000 0.51580  0.25000  0.61300  Biso   1.000  O
  O4       1.0000 0.98420  0.75000  0.11300  Biso   1.000  O
  O5       1.0000 0.39360  0.51280  0.49166  Biso   1.000  O
  O6       1.0000 0.10640  0.48720  0.99166  Biso   1.000  O
  O7       1.0000 0.60640  0.01280  0.50834  Biso   1.000  O
  O8       1.0000 0.89360  0.98720  0.00834  Biso   1.000  O
  O9       1.0000 0.60640  0.48720  0.50834  Biso   1.000  O
  O10      1.0000 0.89360  0.51280  0.00834  Biso   1.000  O
  O11      1.0000 0.39360  0.98720  0.49166  Biso   1.000  O
  O12      1.0000 0.10640  0.01280  0.99166  Biso   1.000  O
  O13      1.0000 0.46420  0.75000  0.60670  Biso   1.000  O
  O14      1.0000 0.03580  0.25000  0.10670  Biso   1.000  O
  O15      1.0000 0.53580  0.25000  0.39330  Biso   1.000  O
  O16      1.0000 0.96420  0.75000  0.89330  Biso   1.000  O
  O17      1.0000 0.26440  0.75000  0.37090  Biso   1.000  O
  O18      1.0000 0.23560  0.25000  0.87090  Biso   1.000  O
  O19      1.0000 0.73560  0.25000  0.62910  Biso   1.000  O
  O20      1.0000 0.76440  0.75000  0.12910  Biso   1.000  O
  O21      1.0000 0.74030  0.75000  0.91810  Biso   1.000  O
  O22      1.0000 0.75970  0.25000  0.41810  Biso   1.000  O
  O23      1.0000 0.25970  0.25000  0.08190  Biso   1.000  O
  O24      1.0000 0.24030  0.75000  0.58190  Biso   1.000  O
  O25      1.0000 0.12410  0.95380  0.21090  Biso   1.000  O
  O26      1.0000 0.37590  0.04620  0.71090  Biso   1.000  O
  O27      1.0000 0.87590  0.45380  0.78910  Biso   1.000  O
  O28      1.0000 0.62410  0.54620  0.28910  Biso   1.000  O
  O29      1.0000 0.87590  0.04620  0.78910  Biso   1.000  O
  O30      1.0000 0.62410  0.95380  0.28910  Biso   1.000  O
  O31      1.0000 0.12410  0.54620  0.21090  Biso   1.000  O
  O32      1.0000 0.37590  0.45380  0.71090  Biso   1.000  O
  O33      1.0000 0.58690  0.94920  0.72620  Biso   1.000  O
  O34      1.0000 0.91310  0.05080  0.22620  Biso   1.000  O
  O35      1.0000 0.41310  0.44920  0.27380  Biso   1.000  O
  O36      1.0000 0.08690  0.55080  0.77380  Biso   1.000  O
  O37      1.0000 0.41310  0.05080  0.27380  Biso   1.000  O
  O38      1.0000 0.08690  0.94920  0.77380  Biso   1.000  O
  O39      1.0000 0.58690  0.55080  0.72620  Biso   1.000  O
  O40      1.0000 0.91310  0.44920  0.22620  Biso   1.000  O
  C1       1.0000 0.44320  0.75000  0.11330  Biso   1.000  C
  C2       1.0000 0.05680  0.25000  0.61330  Biso   1.000  C
  C3       1.0000 0.55680  0.25000  0.88670  Biso   1.000  C
  C4       1.0000 0.94320  0.75000  0.38670  Biso   1.000  C
  H1       1.0000 0.46750  0.75000  0.18200  Biso   1.000  H
  H2       1.0000 0.03250  0.25000  0.68200  Biso   1.000  H
  H3       1.0000 0.53250  0.25000  0.81800  Biso   1.000  H
  H4       1.0000 0.96750  0.75000  0.31800  Biso   1.000  H
  C5       1.0000 0.51700  0.75000  0.03260  Biso   1.000  C
  C6       1.0000 0.98300  0.25000  0.53260  Biso   1.000  C
  C7       1.0000 0.48300  0.25000  0.96740  Biso   1.000  C
  C8       1.0000 0.01700  0.75000  0.46740  Biso   1.000  C
  H5       1.0000 0.59020  0.75000  0.04880  Biso   1.000  H
  H6       1.0000 0.90980  0.25000  0.54880  Biso   1.000  H
  H7       1.0000 0.40980  0.25000  0.95120  Biso   1.000  H
  H8       1.0000 0.09020  0.75000  0.45120  Biso   1.000  H
  C9       1.0000 0.38160  0.75000  0.91400  Biso   1.000  C
  C10      1.0000 0.11840  0.25000  0.41400  Biso   1.000  C
  C11      1.0000 0.61840  0.25000  0.08600  Biso   1.000  C
  C12      1.0000 0.88160  0.75000  0.58600  Biso   1.000  C
  H9       1.0000 0.35740  0.75000  0.84530  Biso   1.000  H
  H10      1.0000 0.14260  0.25000  0.34530  Biso   1.000  H
  H11      1.0000 0.64260  0.25000  0.15470  Biso   1.000  H
  H12      1.0000 0.85740  0.75000  0.65470  Biso   1.000  H
  C13      1.0000 0.30670  0.75000  0.99340  Biso   1.000  C
  C14      1.0000 0.19330  0.25000  0.49340  Biso   1.000  C
  C15      1.0000 0.69330  0.25000  0.00660  Biso   1.000  C
  C16      1.0000 0.80670  0.75000  0.50660  Biso   1.000  C
  H13      1.0000 0.23350  0.75000  0.97710  Biso   1.000  H
  H14      1.0000 0.26650  0.25000  0.47710  Biso   1.000  H
  H15      1.0000 0.76650  0.25000  0.02290  Biso   1.000  H
  H16      1.0000 0.73350  0.75000  0.52290  Biso   1.000  H
