data_image0
_cell_length_a       14.303
_cell_length_b       11.268
_cell_length_c       20.26
_cell_angle_alpha    90
_cell_angle_beta     103.37
_cell_angle_gamma    90

_symmetry_space_group_name_H-M    "P 1"
_symmetry_int_tables_number       1

loop_
  _symmetry_equiv_pos_as_xyz
  'x, y, z'

loop_
  _atom_site_label
  _atom_site_occupancy
  _atom_site_fract_x
  _atom_site_fract_y
  _atom_site_fract_z
  _atom_site_thermal_displace_type
  _atom_site_B_iso_or_equiv
  _atom_site_type_symbol
  Cu1      1.0000 0.71425  0.13243  0.52210  Biso   1.000  Cu
  Cu2      1.0000 0.21425  0.63243  0.52210  Biso   1.000  Cu
  Cu3      1.0000 0.28575  0.13243  0.97790  Biso   1.000  Cu
  Cu4      1.0000 0.78575  0.63243  0.97790  Biso   1.000  Cu
  Cu5      1.0000 0.28575  0.86757  0.47790  Biso   1.000  Cu
  Cu6      1.0000 0.78575  0.36757  0.47790  Biso   1.000  Cu
  Cu7      1.0000 0.71425  0.86757  0.02210  Biso   1.000  Cu
  Cu8      1.0000 0.21425  0.36757  0.02210  Biso   1.000  Cu
  Br1      1.0000 0.63392  0.26767  0.42165  Biso   1.000  Br
  Br2      1.0000 0.13392  0.76767  0.42165  Biso   1.000  Br
  Br3      1.0000 0.36608  0.26767  0.07835  Biso   1.000  Br
  Br4      1.0000 0.86608  0.76767  0.07835  Biso   1.000  Br
  Br5      1.0000 0.36608  0.73233  0.57835  Biso   1.000  Br
  Br6      1.0000 0.86608  0.23233  0.57835  Biso   1.000  Br
  Br7      1.0000 0.63392  0.73233  0.92165  Biso   1.000  Br
  Br8      1.0000 0.13392  0.23233  0.92165  Biso   1.000  Br
  P1       1.0000 0.60857  0.08447  0.58331  Biso   1.000  P
  P2       1.0000 0.10857  0.58447  0.58331  Biso   1.000  P
  P3       1.0000 0.39143  0.08447  0.91669  Biso   1.000  P
  P4       1.0000 0.89143  0.58447  0.91669  Biso   1.000  P
  P5       1.0000 0.39143  0.91553  0.41669  Biso   1.000  P
  P6       1.0000 0.89143  0.41553  0.41669  Biso   1.000  P
  P7       1.0000 0.60857  0.91553  0.08331  Biso   1.000  P
  P8       1.0000 0.10857  0.41553  0.08331  Biso   1.000  P
  C1       1.0000 0.51980  0.97950  0.53630  Biso   1.000  C
  C2       1.0000 0.01980  0.47950  0.53630  Biso   1.000  C
  C3       1.0000 0.48020  0.97950  0.96370  Biso   1.000  C
  C4       1.0000 0.98020  0.47950  0.96370  Biso   1.000  C
  C5       1.0000 0.48020  0.02050  0.46370  Biso   1.000  C
  C6       1.0000 0.98020  0.52050  0.46370  Biso   1.000  C
  C7       1.0000 0.51980  0.02050  0.03630  Biso   1.000  C
  C8       1.0000 0.01980  0.52050  0.03630  Biso   1.000  C
  C9       1.0000 0.65350  0.00910  0.66449  Biso   1.000  C
  C10      1.0000 0.15350  0.50910  0.66449  Biso   1.000  C
  C11      1.0000 0.34650  0.00910  0.83551  Biso   1.000  C
  C12      1.0000 0.84650  0.50910  0.83551  Biso   1.000  C
  C13      1.0000 0.34650  0.99090  0.33551  Biso   1.000  C
  C14      1.0000 0.84650  0.49090  0.33551  Biso   1.000  C
  C15      1.0000 0.65350  0.99090  0.16449  Biso   1.000  C
  C16      1.0000 0.15350  0.49090  0.16449  Biso   1.000  C
  C17      1.0000 0.60470  0.91860  0.68870  Biso   1.000  C
  C18      1.0000 0.10470  0.41860  0.68870  Biso   1.000  C
  C19      1.0000 0.39530  0.91860  0.81130  Biso   1.000  C
  C20      1.0000 0.89530  0.41860  0.81130  Biso   1.000  C
  C21      1.0000 0.39530  0.08140  0.31130  Biso   1.000  C
  C22      1.0000 0.89530  0.58140  0.31130  Biso   1.000  C
  C23      1.0000 0.60470  0.08140  0.18870  Biso   1.000  C
  C24      1.0000 0.10470  0.58140  0.18870  Biso   1.000  C
  C25      1.0000 0.64360  0.86620  0.75130  Biso   1.000  C
  C26      1.0000 0.14360  0.36620  0.75130  Biso   1.000  C
  C27      1.0000 0.35640  0.86620  0.74870  Biso   1.000  C
  C28      1.0000 0.85640  0.36620  0.74870  Biso   1.000  C
  C29      1.0000 0.35640  0.13380  0.24870  Biso   1.000  C
  C30      1.0000 0.85640  0.63380  0.24870  Biso   1.000  C
  C31      1.0000 0.64360  0.13380  0.25130  Biso   1.000  C
  C32      1.0000 0.14360  0.63380  0.25130  Biso   1.000  C
  C33      1.0000 0.73010  0.90280  0.78890  Biso   1.000  C
  C34      1.0000 0.23010  0.40280  0.78890  Biso   1.000  C
  C35      1.0000 0.26990  0.90280  0.71110  Biso   1.000  C
  C36      1.0000 0.76990  0.40280  0.71110  Biso   1.000  C
  C37      1.0000 0.26990  0.09720  0.21110  Biso   1.000  C
  C38      1.0000 0.76990  0.59720  0.21110  Biso   1.000  C
  C39      1.0000 0.73010  0.09720  0.28890  Biso   1.000  C
  C40      1.0000 0.23010  0.59720  0.28890  Biso   1.000  C
  C41      1.0000 0.78000  0.99170  0.76530  Biso   1.000  C
  C42      1.0000 0.28000  0.49170  0.76530  Biso   1.000  C
  C43      1.0000 0.22000  0.99170  0.73470  Biso   1.000  C
  C44      1.0000 0.72000  0.49170  0.73470  Biso   1.000  C
  C45      1.0000 0.22000  0.00830  0.23470  Biso   1.000  C
  C46      1.0000 0.72000  0.50830  0.23470  Biso   1.000  C
  C47      1.0000 0.78000  0.00830  0.26530  Biso   1.000  C
  C48      1.0000 0.28000  0.50830  0.26530  Biso   1.000  C
  C49      1.0000 0.74170  0.04580  0.70286  Biso   1.000  C
  C50      1.0000 0.24170  0.54580  0.70286  Biso   1.000  C
  C51      1.0000 0.25830  0.04580  0.79714  Biso   1.000  C
  C52      1.0000 0.75830  0.54580  0.79714  Biso   1.000  C
  C53      1.0000 0.25830  0.95420  0.29714  Biso   1.000  C
  C54      1.0000 0.75830  0.45420  0.29714  Biso   1.000  C
  C55      1.0000 0.74170  0.95420  0.20286  Biso   1.000  C
  C56      1.0000 0.24170  0.45420  0.20286  Biso   1.000  C
  C57      1.0000 0.53510  0.20470  0.60527  Biso   1.000  C
  C58      1.0000 0.03510  0.70470  0.60527  Biso   1.000  C
  C59      1.0000 0.46490  0.20470  0.89473  Biso   1.000  C
  C60      1.0000 0.96490  0.70470  0.89473  Biso   1.000  C
  C61      1.0000 0.46490  0.79530  0.39473  Biso   1.000  C
  C62      1.0000 0.96490  0.29530  0.39473  Biso   1.000  C
  C63      1.0000 0.53510  0.79530  0.10527  Biso   1.000  C
  C64      1.0000 0.03510  0.29530  0.10527  Biso   1.000  C
  C65      1.0000 0.54130  0.31570  0.57800  Biso   1.000  C
  C66      1.0000 0.04130  0.81570  0.57800  Biso   1.000  C
  C67      1.0000 0.45870  0.31570  0.92200  Biso   1.000  C
  C68      1.0000 0.95870  0.81570  0.92200  Biso   1.000  C
  C69      1.0000 0.45870  0.68430  0.42200  Biso   1.000  C
  C70      1.0000 0.95870  0.18430  0.42200  Biso   1.000  C
  C71      1.0000 0.54130  0.68430  0.07800  Biso   1.000  C
  C72      1.0000 0.04130  0.18430  0.07800  Biso   1.000  C
  C73      1.0000 0.48720  0.41000  0.59310  Biso   1.000  C
  C74      1.0000 0.98720  0.91000  0.59310  Biso   1.000  C
  C75      1.0000 0.51280  0.41000  0.90690  Biso   1.000  C
  C76      1.0000 0.01280  0.91000  0.90690  Biso   1.000  C
  C77      1.0000 0.51280  0.59000  0.40690  Biso   1.000  C
  C78      1.0000 0.01280  0.09000  0.40690  Biso   1.000  C
  C79      1.0000 0.48720  0.59000  0.09310  Biso   1.000  C
  C80      1.0000 0.98720  0.09000  0.09310  Biso   1.000  C
  C81      1.0000 0.42740  0.39300  0.63530  Biso   1.000  C
  C82      1.0000 0.92740  0.89300  0.63530  Biso   1.000  C
  C83      1.0000 0.57260  0.39300  0.86470  Biso   1.000  C
  C84      1.0000 0.07260  0.89300  0.86470  Biso   1.000  C
  C85      1.0000 0.57260  0.60700  0.36470  Biso   1.000  C
  C86      1.0000 0.07260  0.10700  0.36470  Biso   1.000  C
  C87      1.0000 0.42740  0.60700  0.13530  Biso   1.000  C
  C88      1.0000 0.92740  0.10700  0.13530  Biso   1.000  C
  C89      1.0000 0.42030  0.28450  0.66390  Biso   1.000  C
  C90      1.0000 0.92030  0.78450  0.66390  Biso   1.000  C
  C91      1.0000 0.57970  0.28450  0.83610  Biso   1.000  C
  C92      1.0000 0.07970  0.78450  0.83610  Biso   1.000  C
  C93      1.0000 0.57970  0.71550  0.33610  Biso   1.000  C
  C94      1.0000 0.07970  0.21550  0.33610  Biso   1.000  C
  C95      1.0000 0.42030  0.71550  0.16390  Biso   1.000  C
  C96      1.0000 0.92030  0.21550  0.16390  Biso   1.000  C
  C97      1.0000 0.47380  0.18830  0.64840  Biso   1.000  C
  C98      1.0000 0.97380  0.68830  0.64840  Biso   1.000  C
  C99      1.0000 0.52620  0.18830  0.85160  Biso   1.000  C
  C100     1.0000 0.02620  0.68830  0.85160  Biso   1.000  C
  C101     1.0000 0.52620  0.81170  0.35160  Biso   1.000  C
  C102     1.0000 0.02620  0.31170  0.35160  Biso   1.000  C
  C103     1.0000 0.47380  0.81170  0.14840  Biso   1.000  C
  C104     1.0000 0.97380  0.31170  0.14840  Biso   1.000  C
  N1       1.0000 0.75810  0.99220  0.47327  Biso   1.000  N
  N2       1.0000 0.25810  0.49220  0.47327  Biso   1.000  N
  N3       1.0000 0.24190  0.99220  0.02673  Biso   1.000  N
  N4       1.0000 0.74190  0.49220  0.02673  Biso   1.000  N
  N5       1.0000 0.24190  0.00780  0.52673  Biso   1.000  N
  N6       1.0000 0.74190  0.50780  0.52673  Biso   1.000  N
  N7       1.0000 0.75810  0.00780  0.97327  Biso   1.000  N
  N8       1.0000 0.25810  0.50780  0.97327  Biso   1.000  N
  C105     1.0000 0.78680  0.91290  0.45150  Biso   1.000  C
  C106     1.0000 0.28680  0.41290  0.45150  Biso   1.000  C
  C107     1.0000 0.21320  0.91290  0.04850  Biso   1.000  C
  C108     1.0000 0.71320  0.41290  0.04850  Biso   1.000  C
  C109     1.0000 0.21320  0.08710  0.54850  Biso   1.000  C
  C110     1.0000 0.71320  0.58710  0.54850  Biso   1.000  C
  C111     1.0000 0.78680  0.08710  0.95150  Biso   1.000  C
  C112     1.0000 0.28680  0.58710  0.95150  Biso   1.000  C
  C113     1.0000 0.82690  0.80880  0.42370  Biso   1.000  C
  C114     1.0000 0.32690  0.30880  0.42370  Biso   1.000  C
  C115     1.0000 0.17310  0.80880  0.07630  Biso   1.000  C
  C116     1.0000 0.67310  0.30880  0.07630  Biso   1.000  C
  C117     1.0000 0.17310  0.19120  0.57630  Biso   1.000  C
  C118     1.0000 0.67310  0.69120  0.57630  Biso   1.000  C
  C119     1.0000 0.82690  0.19120  0.92370  Biso   1.000  C
  C120     1.0000 0.32690  0.69120  0.92370  Biso   1.000  C
  H1       1.0000 0.54211  0.89850  0.54550  Biso   1.000  H
  H2       1.0000 0.04211  0.39850  0.54550  Biso   1.000  H
  H3       1.0000 0.45789  0.89850  0.95450  Biso   1.000  H
  H4       1.0000 0.95789  0.39850  0.95450  Biso   1.000  H
  H5       1.0000 0.45789  0.10150  0.45450  Biso   1.000  H
  H6       1.0000 0.95789  0.60150  0.45450  Biso   1.000  H
  H7       1.0000 0.54211  0.10150  0.04550  Biso   1.000  H
  H8       1.0000 0.04211  0.60150  0.04550  Biso   1.000  H
  H9       1.0000 0.46000  0.98540  0.55071  Biso   1.000  H
  H10      1.0000 0.96000  0.48540  0.55071  Biso   1.000  H
  H11      1.0000 0.54000  0.98540  0.94929  Biso   1.000  H
  H12      1.0000 0.04000  0.48540  0.94929  Biso   1.000  H
  H13      1.0000 0.54000  0.01460  0.44929  Biso   1.000  H
  H14      1.0000 0.04000  0.51460  0.44929  Biso   1.000  H
  H15      1.0000 0.46000  0.01460  0.05071  Biso   1.000  H
  H16      1.0000 0.96000  0.51460  0.05071  Biso   1.000  H
  H17      1.0000 0.54025  0.89258  0.66165  Biso   1.000  H
  H18      1.0000 0.04025  0.39258  0.66165  Biso   1.000  H
  H19      1.0000 0.45975  0.89258  0.83835  Biso   1.000  H
  H20      1.0000 0.95975  0.39258  0.83835  Biso   1.000  H
  H21      1.0000 0.45975  0.10742  0.33835  Biso   1.000  H
  H22      1.0000 0.95975  0.60742  0.33835  Biso   1.000  H
  H23      1.0000 0.54025  0.10742  0.16165  Biso   1.000  H
  H24      1.0000 0.04025  0.60742  0.16165  Biso   1.000  H
  H25      1.0000 0.60502  0.80141  0.76868  Biso   1.000  H
  H26      1.0000 0.10502  0.30141  0.76868  Biso   1.000  H
  H27      1.0000 0.39498  0.80141  0.73132  Biso   1.000  H
  H28      1.0000 0.89498  0.30141  0.73132  Biso   1.000  H
  H29      1.0000 0.39498  0.19859  0.23132  Biso   1.000  H
  H30      1.0000 0.89498  0.69859  0.23132  Biso   1.000  H
  H31      1.0000 0.60502  0.19859  0.26868  Biso   1.000  H
  H32      1.0000 0.10502  0.69859  0.26868  Biso   1.000  H
  H33      1.0000 0.75452  0.86836  0.83591  Biso   1.000  H
  H34      1.0000 0.25452  0.36836  0.83591  Biso   1.000  H
  H35      1.0000 0.24548  0.86836  0.66409  Biso   1.000  H
  H36      1.0000 0.74548  0.36836  0.66409  Biso   1.000  H
  H37      1.0000 0.24548  0.13164  0.16409  Biso   1.000  H
  H38      1.0000 0.74548  0.63164  0.16409  Biso   1.000  H
  H39      1.0000 0.75452  0.13164  0.33591  Biso   1.000  H
  H40      1.0000 0.25452  0.63164  0.33591  Biso   1.000  H
  H41      1.0000 0.84649  0.01646  0.79227  Biso   1.000  H
  H42      1.0000 0.34649  0.51646  0.79227  Biso   1.000  H
  H43      1.0000 0.15351  0.01646  0.70773  Biso   1.000  H
  H44      1.0000 0.65351  0.51646  0.70773  Biso   1.000  H
  H45      1.0000 0.15351  0.98354  0.20773  Biso   1.000  H
  H46      1.0000 0.65351  0.48354  0.20773  Biso   1.000  H
  H47      1.0000 0.84649  0.98354  0.29227  Biso   1.000  H
  H48      1.0000 0.34649  0.48354  0.29227  Biso   1.000  H
  H49      1.0000 0.77615  0.11174  0.68556  Biso   1.000  H
  H50      1.0000 0.27615  0.61174  0.68556  Biso   1.000  H
  H51      1.0000 0.22385  0.11174  0.81444  Biso   1.000  H
  H52      1.0000 0.72385  0.61174  0.81444  Biso   1.000  H
  H53      1.0000 0.22385  0.88826  0.31444  Biso   1.000  H
  H54      1.0000 0.72385  0.38826  0.31444  Biso   1.000  H
  H55      1.0000 0.77615  0.88826  0.18556  Biso   1.000  H
  H56      1.0000 0.27615  0.38826  0.18556  Biso   1.000  H
  H57      1.0000 0.58475  0.32905  0.54625  Biso   1.000  H
  H58      1.0000 0.08475  0.82905  0.54625  Biso   1.000  H
  H59      1.0000 0.41525  0.32905  0.95375  Biso   1.000  H
  H60      1.0000 0.91525  0.82905  0.95375  Biso   1.000  H
  H61      1.0000 0.41525  0.67095  0.45375  Biso   1.000  H
  H62      1.0000 0.91525  0.17095  0.45375  Biso   1.000  H
  H63      1.0000 0.58475  0.67095  0.04625  Biso   1.000  H
  H64      1.0000 0.08475  0.17095  0.04625  Biso   1.000  H
  H65      1.0000 0.48723  0.49165  0.56974  Biso   1.000  H
  H66      1.0000 0.98723  0.99165  0.56974  Biso   1.000  H
  H67      1.0000 0.51277  0.49165  0.93026  Biso   1.000  H
  H68      1.0000 0.01277  0.99165  0.93026  Biso   1.000  H
  H69      1.0000 0.51277  0.50835  0.43026  Biso   1.000  H
  H70      1.0000 0.01277  0.00835  0.43026  Biso   1.000  H
  H71      1.0000 0.48723  0.50835  0.06974  Biso   1.000  H
  H72      1.0000 0.98723  0.00835  0.06974  Biso   1.000  H
  H73      1.0000 0.39434  0.46445  0.65145  Biso   1.000  H
  H74      1.0000 0.89434  0.96445  0.65145  Biso   1.000  H
  H75      1.0000 0.60566  0.46445  0.84855  Biso   1.000  H
  H76      1.0000 0.10566  0.96445  0.84855  Biso   1.000  H
  H77      1.0000 0.60566  0.53555  0.34855  Biso   1.000  H
  H78      1.0000 0.10566  0.03555  0.34855  Biso   1.000  H
  H79      1.0000 0.39434  0.53555  0.15145  Biso   1.000  H
  H80      1.0000 0.89434  0.03555  0.15145  Biso   1.000  H
  H81      1.0000 0.37127  0.27509  0.69772  Biso   1.000  H
  H82      1.0000 0.87127  0.77509  0.69772  Biso   1.000  H
  H83      1.0000 0.62873  0.27509  0.80228  Biso   1.000  H
  H84      1.0000 0.12873  0.77509  0.80228  Biso   1.000  H
  H85      1.0000 0.62873  0.72491  0.30228  Biso   1.000  H
  H86      1.0000 0.12873  0.22491  0.30228  Biso   1.000  H
  H87      1.0000 0.37127  0.72491  0.19772  Biso   1.000  H
  H88      1.0000 0.87127  0.22491  0.19772  Biso   1.000  H
  H89      1.0000 0.47132  0.10457  0.66998  Biso   1.000  H
  H90      1.0000 0.97132  0.60457  0.66998  Biso   1.000  H
  H91      1.0000 0.52868  0.10457  0.83002  Biso   1.000  H
  H92      1.0000 0.02868  0.60457  0.83002  Biso   1.000  H
  H93      1.0000 0.52868  0.89543  0.33002  Biso   1.000  H
  H94      1.0000 0.02868  0.39543  0.33002  Biso   1.000  H
  H95      1.0000 0.47132  0.89543  0.16998  Biso   1.000  H
  H96      1.0000 0.97132  0.39543  0.16998  Biso   1.000  H
  H97      1.0000 0.83285  0.82596  0.37807  Biso   1.000  H
  H98      1.0000 0.33285  0.32596  0.37807  Biso   1.000  H
  H99      1.0000 0.16715  0.82596  0.12193  Biso   1.000  H
  H100     1.0000 0.66715  0.32596  0.12193  Biso   1.000  H
  H101     1.0000 0.16715  0.17404  0.62193  Biso   1.000  H
  H102     1.0000 0.66715  0.67404  0.62193  Biso   1.000  H
  H103     1.0000 0.83285  0.17404  0.87807  Biso   1.000  H
  H104     1.0000 0.33285  0.67404  0.87807  Biso   1.000  H
  H105     1.0000 0.78821  0.74125  0.42278  Biso   1.000  H
  H106     1.0000 0.28821  0.24125  0.42278  Biso   1.000  H
  H107     1.0000 0.21179  0.74125  0.07722  Biso   1.000  H
  H108     1.0000 0.71179  0.24125  0.07722  Biso   1.000  H
  H109     1.0000 0.21179  0.25875  0.57722  Biso   1.000  H
  H110     1.0000 0.71179  0.75875  0.57722  Biso   1.000  H
  H111     1.0000 0.78821  0.25875  0.92278  Biso   1.000  H
  H112     1.0000 0.28821  0.75875  0.92278  Biso   1.000  H
  H113     1.0000 0.89052  0.79234  0.45029  Biso   1.000  H
  H114     1.0000 0.39052  0.29234  0.45029  Biso   1.000  H
  H115     1.0000 0.10948  0.79234  0.04971  Biso   1.000  H
  H116     1.0000 0.60948  0.29234  0.04971  Biso   1.000  H
  H117     1.0000 0.10948  0.20766  0.54971  Biso   1.000  H
  H118     1.0000 0.60948  0.70766  0.54971  Biso   1.000  H
  H119     1.0000 0.89052  0.20766  0.95029  Biso   1.000  H
  H120     1.0000 0.39052  0.70766  0.95029  Biso   1.000  H
