data_image0
_cell_length_a       21.595
_cell_length_b       17.045
_cell_length_c       17.541
_cell_angle_alpha    90
_cell_angle_beta     95.155
_cell_angle_gamma    90

_symmetry_space_group_name_H-M    "P 1"
_symmetry_int_tables_number       1

loop_
  _symmetry_equiv_pos_as_xyz
  'x, y, z'

loop_
  _atom_site_label
  _atom_site_occupancy
  _atom_site_fract_x
  _atom_site_fract_y
  _atom_site_fract_z
  _atom_site_thermal_displace_type
  _atom_site_B_iso_or_equiv
  _atom_site_type_symbol
  Cu1      1.0000 0.97393  0.52174  0.80803  Biso   1.000  Cu
  Cu2      1.0000 0.02607  0.02174  0.69197  Biso   1.000  Cu
  Cu3      1.0000 0.02607  0.47826  0.19197  Biso   1.000  Cu
  Cu4      1.0000 0.97393  0.97826  0.30803  Biso   1.000  Cu
  Cl1      1.0000 0.06626  0.44360  0.81571  Biso   1.000  Cl
  Cl2      1.0000 0.93374  0.94360  0.68429  Biso   1.000  Cl
  Cl3      1.0000 0.93374  0.55640  0.18429  Biso   1.000  Cl
  Cl4      1.0000 0.06626  0.05640  0.31571  Biso   1.000  Cl
  N1       1.0000 0.00530  0.62760  0.77060  Biso   1.000  N
  N2       1.0000 0.99470  0.12760  0.72940  Biso   1.000  N
  N3       1.0000 0.99470  0.37240  0.22940  Biso   1.000  N
  N4       1.0000 0.00530  0.87240  0.27060  Biso   1.000  N
  C1       1.0000 0.01830  0.68990  0.75940  Biso   1.000  C
  C2       1.0000 0.98170  0.18990  0.74060  Biso   1.000  C
  C3       1.0000 0.98170  0.31010  0.24060  Biso   1.000  C
  C4       1.0000 0.01830  0.81010  0.25940  Biso   1.000  C
  C5       1.0000 0.03700  0.77140  0.74600  Biso   1.000  C
  C6       1.0000 0.96300  0.27140  0.75400  Biso   1.000  C
  C7       1.0000 0.96300  0.22860  0.25400  Biso   1.000  C
  C8       1.0000 0.03700  0.72860  0.24600  Biso   1.000  C
  P1       1.0000 0.90763  0.53027  0.89594  Biso   1.000  P
  P2       1.0000 0.09237  0.03027  0.60406  Biso   1.000  P
  P3       1.0000 0.09237  0.46973  0.10406  Biso   1.000  P
  P4       1.0000 0.90763  0.96973  0.39594  Biso   1.000  P
  C9       1.0000 0.88060  0.44010  0.93700  Biso   1.000  C
  C10      1.0000 0.11940  0.94010  0.56300  Biso   1.000  C
  C11      1.0000 0.11940  0.55990  0.06300  Biso   1.000  C
  C12      1.0000 0.88060  0.05990  0.43700  Biso   1.000  C
  C13      1.0000 0.87890  0.42670  0.01520  Biso   1.000  C
  C14      1.0000 0.12110  0.92670  0.48480  Biso   1.000  C
  C15      1.0000 0.12110  0.57330  0.98480  Biso   1.000  C
  C16      1.0000 0.87890  0.07330  0.51520  Biso   1.000  C
  C17      1.0000 0.85720  0.35580  0.04180  Biso   1.000  C
  C18      1.0000 0.14280  0.85580  0.45820  Biso   1.000  C
  C19      1.0000 0.14280  0.64420  0.95820  Biso   1.000  C
  C20      1.0000 0.85720  0.14420  0.54180  Biso   1.000  C
  C21      1.0000 0.83710  0.29780  0.99020  Biso   1.000  C
  C22      1.0000 0.16290  0.79780  0.50980  Biso   1.000  C
  C23      1.0000 0.16290  0.70220  0.00980  Biso   1.000  C
  C24      1.0000 0.83710  0.20220  0.49020  Biso   1.000  C
  C25      1.0000 0.83840  0.30990  0.91210  Biso   1.000  C
  C26      1.0000 0.16160  0.80990  0.58790  Biso   1.000  C
  C27      1.0000 0.16160  0.69010  0.08790  Biso   1.000  C
  C28      1.0000 0.83840  0.19010  0.41210  Biso   1.000  C
  C29      1.0000 0.86030  0.38030  0.88610  Biso   1.000  C
  C30      1.0000 0.13970  0.88030  0.61390  Biso   1.000  C
  C31      1.0000 0.13970  0.61970  0.11390  Biso   1.000  C
  C32      1.0000 0.86030  0.11970  0.38610  Biso   1.000  C
  C33      1.0000 0.83510  0.57770  0.85950  Biso   1.000  C
  C34      1.0000 0.16490  0.07770  0.64050  Biso   1.000  C
  C35      1.0000 0.16490  0.42230  0.14050  Biso   1.000  C
  C36      1.0000 0.83510  0.92230  0.35950  Biso   1.000  C
  C37      1.0000 0.78070  0.57170  0.89730  Biso   1.000  C
  C38      1.0000 0.21930  0.07170  0.60270  Biso   1.000  C
  C39      1.0000 0.21930  0.42830  0.10270  Biso   1.000  C
  C40      1.0000 0.78070  0.92830  0.39730  Biso   1.000  C
  C41      1.0000 0.72660  0.61010  0.86990  Biso   1.000  C
  C42      1.0000 0.27340  0.11010  0.63010  Biso   1.000  C
  C43      1.0000 0.27340  0.38990  0.13010  Biso   1.000  C
  C44      1.0000 0.72660  0.88990  0.36990  Biso   1.000  C
  C45      1.0000 0.72560  0.65600  0.80390  Biso   1.000  C
  C46      1.0000 0.27440  0.15600  0.69610  Biso   1.000  C
  C47      1.0000 0.27440  0.34400  0.19610  Biso   1.000  C
  C48      1.0000 0.72560  0.84400  0.30390  Biso   1.000  C
  C49      1.0000 0.77840  0.66190  0.76630  Biso   1.000  C
  C50      1.0000 0.22160  0.16190  0.73370  Biso   1.000  C
  C51      1.0000 0.22160  0.33810  0.23370  Biso   1.000  C
  C52      1.0000 0.77840  0.83810  0.26630  Biso   1.000  C
  C53      1.0000 0.83270  0.62270  0.79320  Biso   1.000  C
  C54      1.0000 0.16730  0.12270  0.70680  Biso   1.000  C
  C55      1.0000 0.16730  0.37730  0.20680  Biso   1.000  C
  C56      1.0000 0.83270  0.87730  0.29320  Biso   1.000  C
  C57      1.0000 0.93250  0.59110  0.97890  Biso   1.000  C
  C58      1.0000 0.06750  0.09110  0.52110  Biso   1.000  C
  C59      1.0000 0.06750  0.40890  0.02110  Biso   1.000  C
  C60      1.0000 0.93250  0.90890  0.47890  Biso   1.000  C
  C61      1.0000 0.95840  0.67020  0.95360  Biso   1.000  C
  C62      1.0000 0.04160  0.17020  0.54640  Biso   1.000  C
  C63      1.0000 0.04160  0.32980  0.04640  Biso   1.000  C
  C64      1.0000 0.95840  0.82980  0.45360  Biso   1.000  C
  C65      1.0000 0.98150  0.72280  0.02060  Biso   1.000  C
  C66      1.0000 0.01850  0.22280  0.47940  Biso   1.000  C
  C67      1.0000 0.01850  0.27720  0.97940  Biso   1.000  C
  C68      1.0000 0.98150  0.77720  0.52060  Biso   1.000  C
  Cu5      1.0000 0.04047  0.47485  0.68852  Biso   1.000  Cu
  Cu6      1.0000 0.95953  0.97485  0.81148  Biso   1.000  Cu
  Cu7      1.0000 0.95953  0.52515  0.31148  Biso   1.000  Cu
  Cu8      1.0000 0.04047  0.02515  0.18852  Biso   1.000  Cu
  Cl5      1.0000 0.93529  0.46212  0.68592  Biso   1.000  Cl
  Cl6      1.0000 0.06471  0.96212  0.81408  Biso   1.000  Cl
  Cl7      1.0000 0.06471  0.53788  0.31408  Biso   1.000  Cl
  Cl8      1.0000 0.93529  0.03788  0.18592  Biso   1.000  Cl
  P5       1.0000 0.10163  0.98624  0.10435  Biso   1.000  P
  P6       1.0000 0.89837  0.48624  0.39565  Biso   1.000  P
  P7       1.0000 0.89837  0.01376  0.89565  Biso   1.000  P
  P8       1.0000 0.10163  0.51376  0.60435  Biso   1.000  P
  C69      1.0000 0.13600  0.06700  0.05460  Biso   1.000  C
  C70      1.0000 0.86400  0.56700  0.44540  Biso   1.000  C
  C71      1.0000 0.86400  0.93300  0.94540  Biso   1.000  C
  C72      1.0000 0.13600  0.43300  0.55460  Biso   1.000  C
  C73      1.0000 0.15750  0.13180  0.09700  Biso   1.000  C
  C74      1.0000 0.84250  0.63180  0.40300  Biso   1.000  C
  C75      1.0000 0.84250  0.86820  0.90300  Biso   1.000  C
  C76      1.0000 0.15750  0.36820  0.59700  Biso   1.000  C
  C77      1.0000 0.18340  0.19540  0.06090  Biso   1.000  C
  C78      1.0000 0.81660  0.69540  0.43910  Biso   1.000  C
  C79      1.0000 0.81660  0.80460  0.93910  Biso   1.000  C
  C80      1.0000 0.18340  0.30460  0.56090  Biso   1.000  C
  C81      1.0000 0.18530  0.19480  0.98280  Biso   1.000  C
  C82      1.0000 0.81470  0.69480  0.51720  Biso   1.000  C
  C83      1.0000 0.81470  0.80520  0.01720  Biso   1.000  C
  C84      1.0000 0.18530  0.30520  0.48280  Biso   1.000  C
  C85      1.0000 0.16350  0.13180  0.94010  Biso   1.000  C
  C86      1.0000 0.83650  0.63180  0.55990  Biso   1.000  C
  C87      1.0000 0.83650  0.86820  0.05990  Biso   1.000  C
  C88      1.0000 0.16350  0.36820  0.44010  Biso   1.000  C
  C89      1.0000 0.13850  0.06800  0.97530  Biso   1.000  C
  C90      1.0000 0.86150  0.56800  0.52470  Biso   1.000  C
  C91      1.0000 0.86150  0.93200  0.02470  Biso   1.000  C
  C92      1.0000 0.13850  0.43200  0.47530  Biso   1.000  C
  C93      1.0000 0.16760  0.92790  0.14270  Biso   1.000  C
  C94      1.0000 0.83240  0.42790  0.35730  Biso   1.000  C
  C95      1.0000 0.83240  0.07210  0.85730  Biso   1.000  C
  C96      1.0000 0.16760  0.57210  0.64270  Biso   1.000  C
  C97      1.0000 0.21580  0.90720  0.09770  Biso   1.000  C
  C98      1.0000 0.78420  0.40720  0.40230  Biso   1.000  C
  C99      1.0000 0.78420  0.09280  0.90230  Biso   1.000  C
  C100     1.0000 0.21580  0.59280  0.59770  Biso   1.000  C
  C101     1.0000 0.26420  0.85960  0.12620  Biso   1.000  C
  C102     1.0000 0.73580  0.35960  0.37380  Biso   1.000  C
  C103     1.0000 0.73580  0.14040  0.87380  Biso   1.000  C
  C104     1.0000 0.26420  0.64040  0.62620  Biso   1.000  C
  C105     1.0000 0.26590  0.83030  0.19990  Biso   1.000  C
  C106     1.0000 0.73410  0.33030  0.30010  Biso   1.000  C
  C107     1.0000 0.73410  0.16970  0.80010  Biso   1.000  C
  C108     1.0000 0.26590  0.66970  0.69990  Biso   1.000  C
  C109     1.0000 0.21940  0.85080  0.24530  Biso   1.000  C
  C110     1.0000 0.78060  0.35080  0.25470  Biso   1.000  C
  C111     1.0000 0.78060  0.14920  0.75470  Biso   1.000  C
  C112     1.0000 0.21940  0.64920  0.74530  Biso   1.000  C
  C113     1.0000 0.17050  0.89910  0.21730  Biso   1.000  C
  C114     1.0000 0.82950  0.39910  0.28270  Biso   1.000  C
  C115     1.0000 0.82950  0.10090  0.78270  Biso   1.000  C
  C116     1.0000 0.17050  0.60090  0.71730  Biso   1.000  C
  C117     1.0000 0.06740  0.92360  0.02720  Biso   1.000  C
  C118     1.0000 0.93260  0.42360  0.47280  Biso   1.000  C
  C119     1.0000 0.93260  0.07640  0.97280  Biso   1.000  C
  C120     1.0000 0.06740  0.57640  0.52720  Biso   1.000  C
  C121     1.0000 0.03460  0.85250  0.05810  Biso   1.000  C
  C122     1.0000 0.96540  0.35250  0.44190  Biso   1.000  C
  C123     1.0000 0.96540  0.14750  0.94190  Biso   1.000  C
  C124     1.0000 0.03460  0.64750  0.55810  Biso   1.000  C
  C125     1.0000 0.00870  0.79860  0.99330  Biso   1.000  C
  C126     1.0000 0.99130  0.29860  0.50670  Biso   1.000  C
  C127     1.0000 0.99130  0.20140  0.00670  Biso   1.000  C
  C128     1.0000 0.00870  0.70140  0.49330  Biso   1.000  C
  H1       1.0000 0.89328  0.46730  0.05117  Biso   1.000  H
  H2       1.0000 0.10672  0.96730  0.44883  Biso   1.000  H
  H3       1.0000 0.10672  0.53270  0.94883  Biso   1.000  H
  H4       1.0000 0.89328  0.03270  0.55117  Biso   1.000  H
  H5       1.0000 0.85649  0.34639  0.09661  Biso   1.000  H
  H6       1.0000 0.14351  0.84639  0.40339  Biso   1.000  H
  H7       1.0000 0.14351  0.65361  0.90339  Biso   1.000  H
  H8       1.0000 0.85649  0.15361  0.59661  Biso   1.000  H
  H9       1.0000 0.82221  0.24874  0.00847  Biso   1.000  H
  H10      1.0000 0.17779  0.74874  0.49153  Biso   1.000  H
  H11      1.0000 0.17779  0.75126  0.99153  Biso   1.000  H
  H12      1.0000 0.82221  0.25126  0.50847  Biso   1.000  H
  H13      1.0000 0.82438  0.26914  0.87609  Biso   1.000  H
  H14      1.0000 0.17562  0.76914  0.62391  Biso   1.000  H
  H15      1.0000 0.17562  0.73086  0.12391  Biso   1.000  H
  H16      1.0000 0.82438  0.23086  0.37609  Biso   1.000  H
  H17      1.0000 0.86253  0.38855  0.83158  Biso   1.000  H
  H18      1.0000 0.13747  0.88855  0.66842  Biso   1.000  H
  H19      1.0000 0.13747  0.61145  0.16842  Biso   1.000  H
  H20      1.0000 0.86253  0.11145  0.33158  Biso   1.000  H
  H21      1.0000 0.78108  0.53994  0.94284  Biso   1.000  H
  H22      1.0000 0.21892  0.03994  0.55716  Biso   1.000  H
  H23      1.0000 0.21892  0.46006  0.05716  Biso   1.000  H
  H24      1.0000 0.78108  0.96006  0.44284  Biso   1.000  H
  H25      1.0000 0.68963  0.60401  0.89669  Biso   1.000  H
  H26      1.0000 0.31037  0.10401  0.60331  Biso   1.000  H
  H27      1.0000 0.31037  0.39599  0.10331  Biso   1.000  H
  H28      1.0000 0.68963  0.89599  0.39669  Biso   1.000  H
  H29      1.0000 0.68850  0.68341  0.78627  Biso   1.000  H
  H30      1.0000 0.31150  0.18341  0.71373  Biso   1.000  H
  H31      1.0000 0.31150  0.31659  0.21373  Biso   1.000  H
  H32      1.0000 0.68850  0.81659  0.28627  Biso   1.000  H
  H33      1.0000 0.77883  0.69342  0.72084  Biso   1.000  H
  H34      1.0000 0.22117  0.19342  0.77916  Biso   1.000  H
  H35      1.0000 0.22117  0.30658  0.27916  Biso   1.000  H
  H36      1.0000 0.77883  0.80658  0.22084  Biso   1.000  H
  H37      1.0000 0.86934  0.62825  0.76573  Biso   1.000  H
  H38      1.0000 0.13066  0.12825  0.73427  Biso   1.000  H
  H39      1.0000 0.13066  0.37175  0.23427  Biso   1.000  H
  H40      1.0000 0.86934  0.87175  0.26573  Biso   1.000  H
  H41      1.0000 0.89790  0.60044  0.00801  Biso   1.000  H
  H42      1.0000 0.10210  0.10044  0.49199  Biso   1.000  H
  H43      1.0000 0.10210  0.39956  0.99199  Biso   1.000  H
  H44      1.0000 0.89790  0.89956  0.50801  Biso   1.000  H
  H45      1.0000 0.96399  0.56434  0.01056  Biso   1.000  H
  H46      1.0000 0.03601  0.06434  0.48944  Biso   1.000  H
  H47      1.0000 0.03601  0.43566  0.98944  Biso   1.000  H
  H48      1.0000 0.96399  0.93566  0.51056  Biso   1.000  H
  H49      1.0000 0.92635  0.69745  0.92330  Biso   1.000  H
  H50      1.0000 0.07365  0.19745  0.57670  Biso   1.000  H
  H51      1.0000 0.07365  0.30255  0.07670  Biso   1.000  H
  H52      1.0000 0.92635  0.80255  0.42330  Biso   1.000  H
  H53      1.0000 0.99209  0.66069  0.92356  Biso   1.000  H
  H54      1.0000 0.00791  0.16069  0.57644  Biso   1.000  H
  H55      1.0000 0.00791  0.33931  0.07644  Biso   1.000  H
  H56      1.0000 0.99209  0.83931  0.42356  Biso   1.000  H
  H57      1.0000 0.01239  0.69539  0.05274  Biso   1.000  H
  H58      1.0000 0.98761  0.19539  0.44726  Biso   1.000  H
  H59      1.0000 0.98761  0.30461  0.94726  Biso   1.000  H
  H60      1.0000 0.01239  0.80461  0.55274  Biso   1.000  H
  H61      1.0000 0.94740  0.73454  0.05039  Biso   1.000  H
  H62      1.0000 0.05260  0.23454  0.44961  Biso   1.000  H
  H63      1.0000 0.05260  0.26546  0.94961  Biso   1.000  H
  H64      1.0000 0.94740  0.76546  0.55039  Biso   1.000  H
  H65      1.0000 0.04428  0.77880  0.69287  Biso   1.000  H
  H66      1.0000 0.95572  0.27880  0.80713  Biso   1.000  H
  H67      1.0000 0.95572  0.22120  0.30713  Biso   1.000  H
  H68      1.0000 0.04428  0.72120  0.19287  Biso   1.000  H
  H69      1.0000 0.07687  0.78276  0.77527  Biso   1.000  H
  H70      1.0000 0.92313  0.28276  0.72473  Biso   1.000  H
  H71      1.0000 0.92313  0.21724  0.22473  Biso   1.000  H
  H72      1.0000 0.07687  0.71724  0.27527  Biso   1.000  H
  H73      1.0000 0.00798  0.80841  0.75965  Biso   1.000  H
  H74      1.0000 0.99202  0.30841  0.74035  Biso   1.000  H
  H75      1.0000 0.99202  0.19159  0.24035  Biso   1.000  H
  H76      1.0000 0.00798  0.69159  0.25965  Biso   1.000  H
  H77      1.0000 0.15448  0.13270  0.15230  Biso   1.000  H
  H78      1.0000 0.84552  0.63270  0.34770  Biso   1.000  H
  H79      1.0000 0.84552  0.86730  0.84770  Biso   1.000  H
  H80      1.0000 0.15448  0.36730  0.65230  Biso   1.000  H
  H81      1.0000 0.19911  0.24090  0.08920  Biso   1.000  H
  H82      1.0000 0.80089  0.74090  0.41080  Biso   1.000  H
  H83      1.0000 0.80089  0.75910  0.91080  Biso   1.000  H
  H84      1.0000 0.19911  0.25910  0.58920  Biso   1.000  H
  H85      1.0000 0.20268  0.23860  0.95745  Biso   1.000  H
  H86      1.0000 0.79732  0.73860  0.54255  Biso   1.000  H
  H87      1.0000 0.79732  0.76140  0.04255  Biso   1.000  H
  H88      1.0000 0.20268  0.26140  0.45745  Biso   1.000  H
  H89      1.0000 0.16522  0.13300  0.88540  Biso   1.000  H
  H90      1.0000 0.83478  0.63300  0.61460  Biso   1.000  H
  H91      1.0000 0.83478  0.86700  0.11460  Biso   1.000  H
  H92      1.0000 0.16522  0.36700  0.38540  Biso   1.000  H
  H93      1.0000 0.12371  0.02330  0.94470  Biso   1.000  H
  H94      1.0000 0.87629  0.52330  0.55530  Biso   1.000  H
  H95      1.0000 0.87629  0.97670  0.05530  Biso   1.000  H
  H96      1.0000 0.12371  0.47670  0.44470  Biso   1.000  H
  H97      1.0000 0.21495  0.92580  0.04560  Biso   1.000  H
  H98      1.0000 0.78505  0.42580  0.45440  Biso   1.000  H
  H99      1.0000 0.78505  0.07420  0.95440  Biso   1.000  H
  H100     1.0000 0.21495  0.57420  0.54560  Biso   1.000  H
  H101     1.0000 0.29767  0.84900  0.09900  Biso   1.000  H
  H102     1.0000 0.70233  0.34900  0.40100  Biso   1.000  H
  H103     1.0000 0.70233  0.15100  0.90100  Biso   1.000  H
  H104     1.0000 0.29767  0.65100  0.59900  Biso   1.000  H
  H105     1.0000 0.29876  0.79530  0.21830  Biso   1.000  H
  H106     1.0000 0.70124  0.29530  0.28170  Biso   1.000  H
  H107     1.0000 0.70124  0.20470  0.78170  Biso   1.000  H
  H108     1.0000 0.29876  0.70470  0.71830  Biso   1.000  H
  H109     1.0000 0.22032  0.83130  0.29690  Biso   1.000  H
  H110     1.0000 0.77968  0.33130  0.20310  Biso   1.000  H
  H111     1.0000 0.77968  0.16870  0.70310  Biso   1.000  H
  H112     1.0000 0.22032  0.66870  0.79690  Biso   1.000  H
  H113     1.0000 0.13852  0.91290  0.24980  Biso   1.000  H
  H114     1.0000 0.86148  0.41290  0.25020  Biso   1.000  H
  H115     1.0000 0.86148  0.08710  0.75020  Biso   1.000  H
  H116     1.0000 0.13852  0.58710  0.74980  Biso   1.000  H
  H117     1.0000 0.09960  0.90660  0.99723  Biso   1.000  H
  H118     1.0000 0.90040  0.40660  0.50277  Biso   1.000  H
  H119     1.0000 0.90040  0.09340  0.00277  Biso   1.000  H
  H120     1.0000 0.09960  0.59340  0.49723  Biso   1.000  H
  H121     1.0000 0.03809  0.95390  0.99552  Biso   1.000  H
  H122     1.0000 0.96191  0.45390  0.50448  Biso   1.000  H
  H123     1.0000 0.96191  0.04610  0.00448  Biso   1.000  H
  H124     1.0000 0.03809  0.54610  0.49552  Biso   1.000  H
  H125     1.0000 0.00267  0.86940  0.08824  Biso   1.000  H
  H126     1.0000 0.99733  0.36940  0.41176  Biso   1.000  H
  H127     1.0000 0.99733  0.13060  0.91176  Biso   1.000  H
  H128     1.0000 0.00267  0.63060  0.58824  Biso   1.000  H
  H129     1.0000 0.06420  0.82220  0.08995  Biso   1.000  H
  H130     1.0000 0.93580  0.32220  0.41005  Biso   1.000  H
  H131     1.0000 0.93580  0.17780  0.91005  Biso   1.000  H
  H132     1.0000 0.06420  0.67780  0.58995  Biso   1.000  H
  H133     1.0000 0.04258  0.78720  0.96405  Biso   1.000  H
  H134     1.0000 0.95742  0.28720  0.53595  Biso   1.000  H
  H135     1.0000 0.95742  0.21280  0.03595  Biso   1.000  H
  H136     1.0000 0.04258  0.71280  0.46405  Biso   1.000  H
  H137     1.0000 0.97759  0.82640  0.96170  Biso   1.000  H
  H138     1.0000 0.02241  0.32640  0.53830  Biso   1.000  H
  H139     1.0000 0.02241  0.17360  0.03830  Biso   1.000  H
  H140     1.0000 0.97759  0.67360  0.46170  Biso   1.000  H
  Cu9      1.0000 0.53313  0.26864  0.70124  Biso   1.000  Cu
  Cu10     1.0000 0.46687  0.76864  0.79876  Biso   1.000  Cu
  Cu11     1.0000 0.46687  0.73136  0.29876  Biso   1.000  Cu
  Cu12     1.0000 0.53313  0.23136  0.20124  Biso   1.000  Cu
  Cl9      1.0000 0.44109  0.19091  0.69467  Biso   1.000  Cl
  Cl10     1.0000 0.55891  0.69091  0.80533  Biso   1.000  Cl
  Cl11     1.0000 0.55891  0.80909  0.30533  Biso   1.000  Cl
  Cl12     1.0000 0.44109  0.30909  0.19467  Biso   1.000  Cl
  N5       1.0000 0.49940  0.37530  0.73840  Biso   1.000  N
  N6       1.0000 0.50060  0.87530  0.76160  Biso   1.000  N
  N7       1.0000 0.50060  0.62470  0.26160  Biso   1.000  N
  N8       1.0000 0.49940  0.12470  0.23840  Biso   1.000  N
  C129     1.0000 0.48340  0.43720  0.74540  Biso   1.000  C
  C130     1.0000 0.51660  0.93720  0.75460  Biso   1.000  C
  C131     1.0000 0.51660  0.56280  0.25460  Biso   1.000  C
  C132     1.0000 0.48340  0.06280  0.24540  Biso   1.000  C
  C133     1.0000 0.46060  0.51710  0.75280  Biso   1.000  C
  C134     1.0000 0.53940  0.01710  0.74720  Biso   1.000  C
  C135     1.0000 0.53940  0.48290  0.24720  Biso   1.000  C
  C136     1.0000 0.46060  0.98290  0.25280  Biso   1.000  C
  P9       1.0000 0.59870  0.27744  0.61213  Biso   1.000  P
  P10      1.0000 0.40130  0.77744  0.88787  Biso   1.000  P
  P11      1.0000 0.40130  0.72256  0.38787  Biso   1.000  P
  P12      1.0000 0.59870  0.22256  0.11213  Biso   1.000  P
  C137     1.0000 0.62800  0.18720  0.57210  Biso   1.000  C
  C138     1.0000 0.37200  0.68720  0.92790  Biso   1.000  C
  C139     1.0000 0.37200  0.81280  0.42790  Biso   1.000  C
  C140     1.0000 0.62800  0.31280  0.07210  Biso   1.000  C
  C141     1.0000 0.63420  0.17780  0.49460  Biso   1.000  C
  C142     1.0000 0.36580  0.67780  0.00540  Biso   1.000  C
  C143     1.0000 0.36580  0.82220  0.50540  Biso   1.000  C
  C144     1.0000 0.63420  0.32220  0.99460  Biso   1.000  C
  C145     1.0000 0.65670  0.10650  0.46940  Biso   1.000  C
  C146     1.0000 0.34330  0.60650  0.03060  Biso   1.000  C
  C147     1.0000 0.34330  0.89350  0.53060  Biso   1.000  C
  C148     1.0000 0.65670  0.39350  0.96940  Biso   1.000  C
  C149     1.0000 0.67390  0.04750  0.52100  Biso   1.000  C
  C150     1.0000 0.32610  0.54750  0.97900  Biso   1.000  C
  C151     1.0000 0.32610  0.95250  0.47900  Biso   1.000  C
  C152     1.0000 0.67390  0.45250  0.02100  Biso   1.000  C
  C153     1.0000 0.66710  0.05710  0.59770  Biso   1.000  C
  C154     1.0000 0.33290  0.55710  0.90230  Biso   1.000  C
  C155     1.0000 0.33290  0.94290  0.40230  Biso   1.000  C
  C156     1.0000 0.66710  0.44290  0.09770  Biso   1.000  C
  C157     1.0000 0.64300  0.12650  0.62330  Biso   1.000  C
  C158     1.0000 0.35700  0.62650  0.87670  Biso   1.000  C
  C159     1.0000 0.35700  0.87350  0.37670  Biso   1.000  C
  C160     1.0000 0.64300  0.37350  0.12330  Biso   1.000  C
  C161     1.0000 0.66990  0.33010  0.64600  Biso   1.000  C
  C162     1.0000 0.33010  0.83010  0.85400  Biso   1.000  C
  C163     1.0000 0.33010  0.66990  0.35400  Biso   1.000  C
  C164     1.0000 0.66990  0.16990  0.14600  Biso   1.000  C
  C165     1.0000 0.72350  0.32780  0.60790  Biso   1.000  C
  C166     1.0000 0.27650  0.82780  0.89210  Biso   1.000  C
  C167     1.0000 0.27650  0.67220  0.39210  Biso   1.000  C
  C168     1.0000 0.72350  0.17220  0.10790  Biso   1.000  C
  C169     1.0000 0.77530  0.37230  0.63330  Biso   1.000  C
  C170     1.0000 0.22470  0.87230  0.86670  Biso   1.000  C
  C171     1.0000 0.22470  0.62770  0.36670  Biso   1.000  C
  C172     1.0000 0.77530  0.12770  0.13330  Biso   1.000  C
  C173     1.0000 0.77410  0.41990  0.69680  Biso   1.000  C
  C174     1.0000 0.22590  0.91990  0.80320  Biso   1.000  C
  C175     1.0000 0.22590  0.58010  0.30320  Biso   1.000  C
  C176     1.0000 0.77410  0.08010  0.19680  Biso   1.000  C
  C177     1.0000 0.72140  0.42200  0.73590  Biso   1.000  C
  C178     1.0000 0.27860  0.92200  0.76410  Biso   1.000  C
  C179     1.0000 0.27860  0.57800  0.26410  Biso   1.000  C
  C180     1.0000 0.72140  0.07800  0.23590  Biso   1.000  C
  C181     1.0000 0.67020  0.37670  0.71150  Biso   1.000  C
  C182     1.0000 0.32980  0.87670  0.78850  Biso   1.000  C
  C183     1.0000 0.32980  0.62330  0.28850  Biso   1.000  C
  C184     1.0000 0.67020  0.12330  0.21150  Biso   1.000  C
  C185     1.0000 0.57070  0.33680  0.52890  Biso   1.000  C
  C186     1.0000 0.42930  0.83680  0.97110  Biso   1.000  C
  C187     1.0000 0.42930  0.66320  0.47110  Biso   1.000  C
  C188     1.0000 0.57070  0.16320  0.02890  Biso   1.000  C
  C189     1.0000 0.54020  0.41210  0.55280  Biso   1.000  C
  C190     1.0000 0.45980  0.91210  0.94720  Biso   1.000  C
  C191     1.0000 0.45980  0.58790  0.44720  Biso   1.000  C
  C192     1.0000 0.54020  0.08790  0.05280  Biso   1.000  C
  C193     1.0000 0.51460  0.46180  0.48670  Biso   1.000  C
  C194     1.0000 0.48540  0.96180  0.01330  Biso   1.000  C
  C195     1.0000 0.48540  0.53820  0.51330  Biso   1.000  C
  C196     1.0000 0.51460  0.03820  0.98670  Biso   1.000  C
  Cu13     1.0000 0.46820  0.22573  0.82194  Biso   1.000  Cu
  Cu14     1.0000 0.53180  0.72573  0.67806  Biso   1.000  Cu
  Cu15     1.0000 0.53180  0.77427  0.17806  Biso   1.000  Cu
  Cu16     1.0000 0.46820  0.27427  0.32194  Biso   1.000  Cu
  Cl13     1.0000 0.57281  0.21048  0.82289  Biso   1.000  Cl
  Cl14     1.0000 0.42719  0.71048  0.67711  Biso   1.000  Cl
  Cl15     1.0000 0.42719  0.78952  0.17711  Biso   1.000  Cl
  Cl16     1.0000 0.57281  0.28952  0.32289  Biso   1.000  Cl
  P13      1.0000 0.40585  0.26453  0.90489  Biso   1.000  P
  P14      1.0000 0.59415  0.76453  0.59511  Biso   1.000  P
  P15      1.0000 0.59415  0.73547  0.09511  Biso   1.000  P
  P16      1.0000 0.40585  0.23547  0.40489  Biso   1.000  P
  C197     1.0000 0.37440  0.18200  0.95470  Biso   1.000  C
  C198     1.0000 0.62560  0.68200  0.54530  Biso   1.000  C
  C199     1.0000 0.62560  0.81800  0.04530  Biso   1.000  C
  C200     1.0000 0.37440  0.31800  0.45470  Biso   1.000  C
  C201     1.0000 0.34650  0.12050  0.91120  Biso   1.000  C
  C202     1.0000 0.65350  0.62050  0.58880  Biso   1.000  C
  C203     1.0000 0.65350  0.87950  0.08880  Biso   1.000  C
  C204     1.0000 0.34650  0.37950  0.41120  Biso   1.000  C
  C205     1.0000 0.32370  0.05630  0.94670  Biso   1.000  C
  C206     1.0000 0.67630  0.55630  0.55330  Biso   1.000  C
  C207     1.0000 0.67630  0.94370  0.05330  Biso   1.000  C
  C208     1.0000 0.32370  0.44370  0.44670  Biso   1.000  C
  C209     1.0000 0.32810  0.05080  0.02500  Biso   1.000  C
  C210     1.0000 0.67190  0.55080  0.47500  Biso   1.000  C
  C211     1.0000 0.67190  0.94920  0.97500  Biso   1.000  C
  C212     1.0000 0.32810  0.44920  0.52500  Biso   1.000  C
  C213     1.0000 0.35530  0.11050  0.06840  Biso   1.000  C
  C214     1.0000 0.64470  0.61050  0.43160  Biso   1.000  C
  C215     1.0000 0.64470  0.88950  0.93160  Biso   1.000  C
  C216     1.0000 0.35530  0.38950  0.56840  Biso   1.000  C
  C217     1.0000 0.37770  0.17710  0.03410  Biso   1.000  C
  C218     1.0000 0.62230  0.67710  0.46590  Biso   1.000  C
  C219     1.0000 0.62230  0.82290  0.96590  Biso   1.000  C
  C220     1.0000 0.37770  0.32290  0.53410  Biso   1.000  C
  C221     1.0000 0.33670  0.31850  0.86550  Biso   1.000  C
  C222     1.0000 0.66330  0.81850  0.63450  Biso   1.000  C
  C223     1.0000 0.66330  0.68150  0.13450  Biso   1.000  C
  C224     1.0000 0.33670  0.18150  0.36550  Biso   1.000  C
  C225     1.0000 0.28940  0.33770  0.91050  Biso   1.000  C
  C226     1.0000 0.71060  0.83770  0.58950  Biso   1.000  C
  C227     1.0000 0.71060  0.66230  0.08950  Biso   1.000  C
  C228     1.0000 0.28940  0.16230  0.41050  Biso   1.000  C
  C229     1.0000 0.23740  0.37840  0.88000  Biso   1.000  C
  C230     1.0000 0.76260  0.87840  0.62000  Biso   1.000  C
  C231     1.0000 0.76260  0.62160  0.12000  Biso   1.000  C
  C232     1.0000 0.23740  0.12160  0.38000  Biso   1.000  C
  C233     1.0000 0.23190  0.40120  0.80390  Biso   1.000  C
  C234     1.0000 0.76810  0.90120  0.69610  Biso   1.000  C
  C235     1.0000 0.76810  0.59880  0.19610  Biso   1.000  C
  C236     1.0000 0.23190  0.09880  0.30390  Biso   1.000  C
  C237     1.0000 0.27960  0.38180  0.75870  Biso   1.000  C
  C238     1.0000 0.72040  0.88180  0.74130  Biso   1.000  C
  C239     1.0000 0.72040  0.61820  0.24130  Biso   1.000  C
  C240     1.0000 0.27960  0.11820  0.25870  Biso   1.000  C
  C241     1.0000 0.33100  0.34070  0.78880  Biso   1.000  C
  C242     1.0000 0.66900  0.84070  0.71120  Biso   1.000  C
  C243     1.0000 0.66900  0.65930  0.21120  Biso   1.000  C
  C244     1.0000 0.33100  0.15930  0.28880  Biso   1.000  C
  C245     1.0000 0.43810  0.33090  0.98160  Biso   1.000  C
  C246     1.0000 0.56190  0.83090  0.51840  Biso   1.000  C
  C247     1.0000 0.56190  0.66910  0.01840  Biso   1.000  C
  C248     1.0000 0.43810  0.16910  0.48160  Biso   1.000  C
  C249     1.0000 0.46460  0.40600  0.95120  Biso   1.000  C
  C250     1.0000 0.53540  0.90600  0.54880  Biso   1.000  C
  C251     1.0000 0.53540  0.59400  0.04880  Biso   1.000  C
  C252     1.0000 0.46460  0.09400  0.45120  Biso   1.000  C
  C253     1.0000 0.48800  0.46100  0.01460  Biso   1.000  C
  C254     1.0000 0.51200  0.96100  0.48540  Biso   1.000  C
  C255     1.0000 0.51200  0.53900  0.98540  Biso   1.000  C
  C256     1.0000 0.48800  0.03900  0.51460  Biso   1.000  C
  H141     1.0000 0.62402  0.22042  0.45849  Biso   1.000  H
  H142     1.0000 0.37598  0.72042  0.04151  Biso   1.000  H
  H143     1.0000 0.37598  0.77958  0.54151  Biso   1.000  H
  H144     1.0000 0.62402  0.27958  0.95849  Biso   1.000  H
  H145     1.0000 0.66081  0.09896  0.41534  Biso   1.000  H
  H146     1.0000 0.33919  0.59896  0.08466  Biso   1.000  H
  H147     1.0000 0.33919  0.90104  0.58466  Biso   1.000  H
  H148     1.0000 0.66081  0.40104  0.91534  Biso   1.000  H
  H149     1.0000 0.68993  0.99900  0.50147  Biso   1.000  H
  H150     1.0000 0.31007  0.49900  0.99853  Biso   1.000  H
  H151     1.0000 0.31007  0.00100  0.49853  Biso   1.000  H
  H152     1.0000 0.68993  0.50100  0.00147  Biso   1.000  H
  H153     1.0000 0.67900  0.01525  0.63331  Biso   1.000  H
  H154     1.0000 0.32100  0.51525  0.86669  Biso   1.000  H
  H155     1.0000 0.32100  0.98475  0.36669  Biso   1.000  H
  H156     1.0000 0.67900  0.48475  0.13331  Biso   1.000  H
  H157     1.0000 0.63642  0.13305  0.67669  Biso   1.000  H
  H158     1.0000 0.36358  0.63305  0.82331  Biso   1.000  H
  H159     1.0000 0.36358  0.86695  0.32331  Biso   1.000  H
  H160     1.0000 0.63642  0.36695  0.17669  Biso   1.000  H
  H161     1.0000 0.72532  0.29338  0.56510  Biso   1.000  H
  H162     1.0000 0.27468  0.79338  0.93490  Biso   1.000  H
  H163     1.0000 0.27468  0.70662  0.43490  Biso   1.000  H
  H164     1.0000 0.72532  0.20662  0.06510  Biso   1.000  H
  H165     1.0000 0.81195  0.36972  0.60570  Biso   1.000  H
  H166     1.0000 0.18805  0.86972  0.89430  Biso   1.000  H
  H167     1.0000 0.18805  0.63028  0.39430  Biso   1.000  H
  H168     1.0000 0.81195  0.13028  0.10570  Biso   1.000  H
  H169     1.0000 0.80937  0.45202  0.71208  Biso   1.000  H
  H170     1.0000 0.19063  0.95202  0.78792  Biso   1.000  H
  H171     1.0000 0.19063  0.54798  0.28792  Biso   1.000  H
  H172     1.0000 0.80937  0.04798  0.21208  Biso   1.000  H
  H173     1.0000 0.71972  0.45530  0.78007  Biso   1.000  H
  H174     1.0000 0.28028  0.95530  0.71993  Biso   1.000  H
  H175     1.0000 0.28028  0.54470  0.21993  Biso   1.000  H
  H176     1.0000 0.71972  0.04470  0.28007  Biso   1.000  H
  H177     1.0000 0.63313  0.37951  0.73966  Biso   1.000  H
  H178     1.0000 0.36687  0.87951  0.76034  Biso   1.000  H
  H179     1.0000 0.36687  0.62049  0.26034  Biso   1.000  H
  H180     1.0000 0.63313  0.12049  0.23966  Biso   1.000  H
  H181     1.0000 0.60546  0.35061  0.50077  Biso   1.000  H
  H182     1.0000 0.39454  0.85061  0.99923  Biso   1.000  H
  H183     1.0000 0.39454  0.64939  0.49923  Biso   1.000  H
  H184     1.0000 0.60546  0.14939  0.00077  Biso   1.000  H
  H185     1.0000 0.54206  0.30729  0.49621  Biso   1.000  H
  H186     1.0000 0.45794  0.80729  0.00379  Biso   1.000  H
  H187     1.0000 0.45794  0.69271  0.50379  Biso   1.000  H
  H188     1.0000 0.54206  0.19271  0.99621  Biso   1.000  H
  H189     1.0000 0.56931  0.44159  0.58428  Biso   1.000  H
  H190     1.0000 0.43069  0.94159  0.91572  Biso   1.000  H
  H191     1.0000 0.43069  0.55841  0.41572  Biso   1.000  H
  H192     1.0000 0.56931  0.05841  0.08428  Biso   1.000  H
  H193     1.0000 0.50626  0.39763  0.58198  Biso   1.000  H
  H194     1.0000 0.49374  0.89763  0.91802  Biso   1.000  H
  H195     1.0000 0.49374  0.60237  0.41802  Biso   1.000  H
  H196     1.0000 0.50626  0.10237  0.08198  Biso   1.000  H
  H197     1.0000 0.54798  0.47618  0.45706  Biso   1.000  H
  H198     1.0000 0.45202  0.97618  0.04294  Biso   1.000  H
  H199     1.0000 0.45202  0.52382  0.54294  Biso   1.000  H
  H200     1.0000 0.54798  0.02382  0.95706  Biso   1.000  H
  H201     1.0000 0.48493  0.43222  0.45476  Biso   1.000  H
  H202     1.0000 0.51507  0.93222  0.04524  Biso   1.000  H
  H203     1.0000 0.51507  0.56778  0.54524  Biso   1.000  H
  H204     1.0000 0.48493  0.06778  0.95476  Biso   1.000  H
  H205     1.0000 0.41586  0.52015  0.74671  Biso   1.000  H
  H206     1.0000 0.58414  0.02015  0.75329  Biso   1.000  H
  H207     1.0000 0.58414  0.47985  0.25329  Biso   1.000  H
  H208     1.0000 0.41586  0.97985  0.24671  Biso   1.000  H
  H209     1.0000 0.47647  0.55278  0.71747  Biso   1.000  H
  H210     1.0000 0.52353  0.05278  0.78253  Biso   1.000  H
  H211     1.0000 0.52353  0.44722  0.28253  Biso   1.000  H
  H212     1.0000 0.47647  0.94722  0.21747  Biso   1.000  H
  H213     1.0000 0.47406  0.53386  0.80366  Biso   1.000  H
  H214     1.0000 0.52594  0.03386  0.69634  Biso   1.000  H
  H215     1.0000 0.52594  0.46614  0.19634  Biso   1.000  H
  H216     1.0000 0.47406  0.96614  0.30366  Biso   1.000  H
  H217     1.0000 0.34326  0.12368  0.85572  Biso   1.000  H
  H218     1.0000 0.65674  0.62368  0.64428  Biso   1.000  H
  H219     1.0000 0.65674  0.87632  0.14428  Biso   1.000  H
  H220     1.0000 0.34326  0.37632  0.35572  Biso   1.000  H
  H221     1.0000 0.30496  0.01419  0.91620  Biso   1.000  H
  H222     1.0000 0.69504  0.51419  0.58380  Biso   1.000  H
  H223     1.0000 0.69504  0.98581  0.08380  Biso   1.000  H
  H224     1.0000 0.30496  0.48581  0.41620  Biso   1.000  H
  H225     1.0000 0.31165  0.00528  0.04802  Biso   1.000  H
  H226     1.0000 0.68835  0.50528  0.45198  Biso   1.000  H
  H227     1.0000 0.68835  0.99472  0.95198  Biso   1.000  H
  H228     1.0000 0.31165  0.49472  0.54802  Biso   1.000  H
  H229     1.0000 0.36064  0.10476  0.12340  Biso   1.000  H
  H230     1.0000 0.63936  0.60476  0.37660  Biso   1.000  H
  H231     1.0000 0.63936  0.89524  0.87660  Biso   1.000  H
  H232     1.0000 0.36064  0.39524  0.62340  Biso   1.000  H
  H233     1.0000 0.39462  0.21984  0.06547  Biso   1.000  H
  H234     1.0000 0.60538  0.71984  0.43453  Biso   1.000  H
  H235     1.0000 0.60538  0.78016  0.93453  Biso   1.000  H
  H236     1.0000 0.39462  0.28016  0.56547  Biso   1.000  H
  H237     1.0000 0.29357  0.32299  0.96340  Biso   1.000  H
  H238     1.0000 0.70643  0.82299  0.53660  Biso   1.000  H
  H239     1.0000 0.70643  0.67701  0.03660  Biso   1.000  H
  H240     1.0000 0.29357  0.17701  0.46340  Biso   1.000  H
  H241     1.0000 0.20445  0.39013  0.91230  Biso   1.000  H
  H242     1.0000 0.79555  0.89013  0.58770  Biso   1.000  H
  H243     1.0000 0.79555  0.60987  0.08770  Biso   1.000  H
  H244     1.0000 0.20445  0.10987  0.41230  Biso   1.000  H
  H245     1.0000 0.19635  0.43058  0.78322  Biso   1.000  H
  H246     1.0000 0.80365  0.93058  0.71678  Biso   1.000  H
  H247     1.0000 0.80365  0.56942  0.21678  Biso   1.000  H
  H248     1.0000 0.19635  0.06942  0.28322  Biso   1.000  H
  H249     1.0000 0.27629  0.39730  0.70575  Biso   1.000  H
  H250     1.0000 0.72371  0.89730  0.79425  Biso   1.000  H
  H251     1.0000 0.72371  0.60270  0.29425  Biso   1.000  H
  H252     1.0000 0.27629  0.10270  0.20575  Biso   1.000  H
  H253     1.0000 0.36383  0.32743  0.75666  Biso   1.000  H
  H254     1.0000 0.63617  0.82743  0.74334  Biso   1.000  H
  H255     1.0000 0.63617  0.67257  0.24334  Biso   1.000  H
  H256     1.0000 0.36383  0.17257  0.25666  Biso   1.000  H
  H257     1.0000 0.40569  0.34420  0.01343  Biso   1.000  H
  H258     1.0000 0.59431  0.84420  0.48657  Biso   1.000  H
  H259     1.0000 0.59431  0.65580  0.98657  Biso   1.000  H
  H260     1.0000 0.40569  0.15580  0.51343  Biso   1.000  H
  H261     1.0000 0.46999  0.30375  0.01258  Biso   1.000  H
  H262     1.0000 0.53001  0.80375  0.48742  Biso   1.000  H
  H263     1.0000 0.53001  0.69625  0.98742  Biso   1.000  H
  H264     1.0000 0.46999  0.19625  0.51258  Biso   1.000  H
  H265     1.0000 0.43318  0.43135  0.91814  Biso   1.000  H
  H266     1.0000 0.56682  0.93135  0.58186  Biso   1.000  H
  H267     1.0000 0.56682  0.56865  0.08186  Biso   1.000  H
  H268     1.0000 0.43318  0.06865  0.41814  Biso   1.000  H
  H269     1.0000 0.49828  0.39238  0.92122  Biso   1.000  H
  H270     1.0000 0.50172  0.89238  0.57878  Biso   1.000  H
  H271     1.0000 0.50172  0.60762  0.07878  Biso   1.000  H
  H272     1.0000 0.49828  0.10762  0.42122  Biso   1.000  H
  H273     1.0000 0.45391  0.47448  0.04504  Biso   1.000  H
  H274     1.0000 0.54609  0.97448  0.45496  Biso   1.000  H
  H275     1.0000 0.54609  0.52552  0.95496  Biso   1.000  H
  H276     1.0000 0.45391  0.02552  0.54504  Biso   1.000  H
  H277     1.0000 0.51959  0.43512  0.04785  Biso   1.000  H
  H278     1.0000 0.48041  0.93512  0.45215  Biso   1.000  H
  H279     1.0000 0.48041  0.56488  0.95215  Biso   1.000  H
  H280     1.0000 0.51959  0.06488  0.54785  Biso   1.000  H
  Cu17     1.0000 0.96870  0.48470  0.81820  Biso   1.000  Cu
  Cu18     1.0000 0.03130  0.98470  0.68180  Biso   1.000  Cu
  Cu19     1.0000 0.03130  0.51530  0.18180  Biso   1.000  Cu
  Cu20     1.0000 0.96870  0.01530  0.31820  Biso   1.000  Cu
  Cu21     1.0000 0.03280  0.51600  0.69770  Biso   1.000  Cu
  Cu22     1.0000 0.96720  0.01600  0.80230  Biso   1.000  Cu
  Cu23     1.0000 0.96720  0.48400  0.30230  Biso   1.000  Cu
  Cu24     1.0000 0.03280  0.98400  0.19770  Biso   1.000  Cu
  Cu25     1.0000 0.54100  0.22400  0.68880  Biso   1.000  Cu
  Cu26     1.0000 0.45900  0.72400  0.81120  Biso   1.000  Cu
  Cu27     1.0000 0.45900  0.77600  0.31120  Biso   1.000  Cu
  Cu28     1.0000 0.54100  0.27600  0.18880  Biso   1.000  Cu
  Cu29     1.0000 0.47480  0.27390  0.80850  Biso   1.000  Cu
  Cu30     1.0000 0.52520  0.77390  0.69150  Biso   1.000  Cu
  Cu31     1.0000 0.52520  0.72610  0.19150  Biso   1.000  Cu
  Cu32     1.0000 0.47480  0.22610  0.30850  Biso   1.000  Cu
