data_image0
_cell_length_a       21.846
_cell_length_b       12.085
_cell_length_c       11.943
_cell_angle_alpha    82.04
_cell_angle_beta     80.19
_cell_angle_gamma    84.2

_symmetry_space_group_name_H-M    "P 1"
_symmetry_int_tables_number       1

loop_
  _symmetry_equiv_pos_as_xyz
  'x, y, z'

loop_
  _atom_site_label
  _atom_site_occupancy
  _atom_site_fract_x
  _atom_site_fract_y
  _atom_site_fract_z
  _atom_site_thermal_displace_type
  _atom_site_B_iso_or_equiv
  _atom_site_type_symbol
  Cu1      1.0000 0.07305  0.98149  0.51578  Biso   1.000  Cu
  Cu2      1.0000 0.92695  0.01851  0.48422  Biso   1.000  Cu
  Cu3      1.0000 0.99264  0.13134  0.68156  Biso   1.000  Cu
  Cu4      1.0000 0.00736  0.86866  0.31844  Biso   1.000  Cu
  Br1      1.0000 0.96397  0.93792  0.66327  Biso   1.000  Br
  Br2      1.0000 0.03603  0.06208  0.33673  Biso   1.000  Br
  Br3      1.0000 0.10047  0.14832  0.58643  Biso   1.000  Br
  Br4      1.0000 0.89953  0.85168  0.41357  Biso   1.000  Br
  P1       1.0000 0.12653  0.81853  0.54710  Biso   1.000  P
  P2       1.0000 0.87347  0.18147  0.45290  Biso   1.000  P
  P3       1.0000 0.07953  0.73018  0.34871  Biso   1.000  P
  P4       1.0000 0.92047  0.26982  0.65129  Biso   1.000  P
  C1       1.0000 0.10190  0.69810  0.49250  Biso   1.000  C
  C2       1.0000 0.89810  0.30190  0.50750  Biso   1.000  C
  C3       1.0000 0.12630  0.76800  0.69880  Biso   1.000  C
  C4       1.0000 0.87370  0.23200  0.30120  Biso   1.000  C
  C5       1.0000 0.11870  0.84820  0.77380  Biso   1.000  C
  C6       1.0000 0.88130  0.15180  0.22620  Biso   1.000  C
  C7       1.0000 0.12120  0.81630  0.88930  Biso   1.000  C
  C8       1.0000 0.87880  0.18370  0.11070  Biso   1.000  C
  C9       1.0000 0.13010  0.70620  0.93050  Biso   1.000  C
  C10      1.0000 0.86990  0.29380  0.06950  Biso   1.000  C
  C11      1.0000 0.13650  0.62450  0.85780  Biso   1.000  C
  C12      1.0000 0.86350  0.37550  0.14220  Biso   1.000  C
  C13      1.0000 0.13410  0.65640  0.74210  Biso   1.000  C
  C14      1.0000 0.86590  0.34360  0.25790  Biso   1.000  C
  C15      1.0000 0.20920  0.81680  0.49000  Biso   1.000  C
  C16      1.0000 0.79080  0.18320  0.51000  Biso   1.000  C
  C17      1.0000 0.23060  0.90530  0.41380  Biso   1.000  C
  C18      1.0000 0.76940  0.09470  0.58620  Biso   1.000  C
  C19      1.0000 0.29240  0.90490  0.36400  Biso   1.000  C
  C20      1.0000 0.70760  0.09510  0.63600  Biso   1.000  C
  C21      1.0000 0.33330  0.81960  0.39350  Biso   1.000  C
  C22      1.0000 0.66670  0.18040  0.60650  Biso   1.000  C
  C23      1.0000 0.31420  0.73120  0.46930  Biso   1.000  C
  C24      1.0000 0.68580  0.26880  0.53070  Biso   1.000  C
  C25      1.0000 0.25150  0.72860  0.51780  Biso   1.000  C
  C26      1.0000 0.74850  0.27140  0.48220  Biso   1.000  C
  C27      1.0000 0.05890  0.59470  0.32120  Biso   1.000  C
  C28      1.0000 0.94110  0.40530  0.67880  Biso   1.000  C
  C29      1.0000 0.06910  0.49380  0.38600  Biso   1.000  C
  C30      1.0000 0.93090  0.50620  0.61400  Biso   1.000  C
  C31      1.0000 0.05250  0.39480  0.35720  Biso   1.000  C
  C32      1.0000 0.94750  0.60520  0.64280  Biso   1.000  C
  C33      1.0000 0.02440  0.39660  0.26320  Biso   1.000  C
  C34      1.0000 0.97560  0.60340  0.73680  Biso   1.000  C
  C35      1.0000 0.01390  0.49600  0.19880  Biso   1.000  C
  C36      1.0000 0.98610  0.50400  0.80120  Biso   1.000  C
  C37      1.0000 0.03070  0.59400  0.22500  Biso   1.000  C
  C38      1.0000 0.96930  0.40600  0.77500  Biso   1.000  C
  C39      1.0000 0.15380  0.74700  0.25460  Biso   1.000  C
  C40      1.0000 0.84620  0.25300  0.74540  Biso   1.000  C
  C41      1.0000 0.16380  0.84790  0.18630  Biso   1.000  C
  C42      1.0000 0.83620  0.15210  0.81370  Biso   1.000  C
  C43      1.0000 0.22070  0.86390  0.11760  Biso   1.000  C
  C44      1.0000 0.77930  0.13610  0.88240  Biso   1.000  C
  C45      1.0000 0.26840  0.78130  0.11650  Biso   1.000  C
  C46      1.0000 0.73160  0.21870  0.88350  Biso   1.000  C
  C47      1.0000 0.25880  0.68140  0.18290  Biso   1.000  C
  C48      1.0000 0.74120  0.31860  0.81710  Biso   1.000  C
  C49      1.0000 0.20210  0.66230  0.25110  Biso   1.000  C
  C50      1.0000 0.79790  0.33770  0.74890  Biso   1.000  C
  N1       1.0000 0.01190  0.10990  0.85580  Biso   1.000  N
  N2       1.0000 0.98810  0.89010  0.14420  Biso   1.000  N
  C51      1.0000 0.03110  0.12630  0.93250  Biso   1.000  C
  C52      1.0000 0.96890  0.87370  0.06750  Biso   1.000  C
  C53      1.0000 0.05610  0.15210  0.02810  Biso   1.000  C
  C54      1.0000 0.94390  0.84790  0.97190  Biso   1.000  C
  H1       1.0000 0.13523  0.63954  0.49029  Biso   1.000  H
  H2       1.0000 0.86477  0.36046  0.50971  Biso   1.000  H
  H3       1.0000 0.06694  0.66915  0.54513  Biso   1.000  H
  H4       1.0000 0.93306  0.33085  0.45487  Biso   1.000  H
  H5       1.0000 0.11052  0.92749  0.74468  Biso   1.000  H
  H6       1.0000 0.88948  0.07251  0.25532  Biso   1.000  H
  H7       1.0000 0.11811  0.87321  0.94044  Biso   1.000  H
  H8       1.0000 0.88189  0.12679  0.05956  Biso   1.000  H
  H9       1.0000 0.13104  0.68648  0.01225  Biso   1.000  H
  H10      1.0000 0.86896  0.31352  0.98775  Biso   1.000  H
  H11      1.0000 0.14246  0.54534  0.88856  Biso   1.000  H
  H12      1.0000 0.85754  0.45466  0.11144  Biso   1.000  H
  H13      1.0000 0.13714  0.59980  0.69141  Biso   1.000  H
  H14      1.0000 0.86286  0.40020  0.30859  Biso   1.000  H
  H15      1.0000 0.20053  0.96958  0.39499  Biso   1.000  H
  H16      1.0000 0.79947  0.03042  0.60501  Biso   1.000  H
  H17      1.0000 0.30627  0.97070  0.31067  Biso   1.000  H
  H18      1.0000 0.69373  0.02930  0.68933  Biso   1.000  H
  H19      1.0000 0.37692  0.82297  0.35797  Biso   1.000  H
  H20      1.0000 0.62308  0.17703  0.64203  Biso   1.000  H
  H21      1.0000 0.34483  0.66689  0.48789  Biso   1.000  H
  H22      1.0000 0.65517  0.33311  0.51211  Biso   1.000  H
  H23      1.0000 0.23642  0.66534  0.57277  Biso   1.000  H
  H24      1.0000 0.76358  0.33466  0.42723  Biso   1.000  H
  H25      1.0000 0.08813  0.49277  0.45304  Biso   1.000  H
  H26      1.0000 0.91187  0.50723  0.54696  Biso   1.000  H
  H27      1.0000 0.06220  0.32451  0.40409  Biso   1.000  H
  H28      1.0000 0.93780  0.67549  0.59591  Biso   1.000  H
  H29      1.0000 0.01189  0.32848  0.24451  Biso   1.000  H
  H30      1.0000 0.98811  0.67152  0.75549  Biso   1.000  H
  H31      1.0000 0.99326  0.49821  0.13109  Biso   1.000  H
  H32      1.0000 0.00674  0.50179  0.86891  Biso   1.000  H
  H33      1.0000 0.02257  0.66471  0.17938  Biso   1.000  H
  H34      1.0000 0.97743  0.33529  0.82062  Biso   1.000  H
  H35      1.0000 0.12996  0.90793  0.18523  Biso   1.000  H
  H36      1.0000 0.87004  0.09207  0.81477  Biso   1.000  H
  H37      1.0000 0.22689  0.93445  0.07173  Biso   1.000  H
  H38      1.0000 0.77311  0.06555  0.92827  Biso   1.000  H
  H39      1.0000 0.30764  0.79309  0.07053  Biso   1.000  H
  H40      1.0000 0.69236  0.20691  0.92947  Biso   1.000  H
  H41      1.0000 0.29228  0.62237  0.18257  Biso   1.000  H
  H42      1.0000 0.70772  0.37763  0.81743  Biso   1.000  H
  H43      1.0000 0.19606  0.58932  0.29599  Biso   1.000  H
  H44      1.0000 0.80394  0.41068  0.70401  Biso   1.000  H
  H45      1.0000 0.03604  0.11660  0.09866  Biso   1.000  H
  H46      1.0000 0.96396  0.88340  0.90134  Biso   1.000  H
  H47      1.0000 0.10037  0.12888  0.02164  Biso   1.000  H
  H48      1.0000 0.89963  0.87112  0.97836  Biso   1.000  H
  H49      1.0000 0.05230  0.23209  0.03180  Biso   1.000  H
  H50      1.0000 0.94770  0.76791  0.96820  Biso   1.000  H
  Cu5      1.0000 0.54734  0.98078  0.08540  Biso   1.000  Cu
  Cu6      1.0000 0.45266  0.01922  0.91460  Biso   1.000  Cu
  Cu7      1.0000 0.43678  0.14163  0.17707  Biso   1.000  Cu
  Cu8      1.0000 0.56322  0.85837  0.82293  Biso   1.000  Cu
  Br5      1.0000 0.42770  0.94810  0.11811  Biso   1.000  Br
  Br6      1.0000 0.57230  0.05190  0.88189  Biso   1.000  Br
  Br7      1.0000 0.54819  0.14434  0.19179  Biso   1.000  Br
  Br8      1.0000 0.45181  0.85566  0.80821  Biso   1.000  Br
  P5       1.0000 0.59290  0.82055  0.15382  Biso   1.000  P
  P6       1.0000 0.40710  0.17945  0.84618  Biso   1.000  P
  P7       1.0000 0.60824  0.71584  0.92559  Biso   1.000  P
  P8       1.0000 0.39176  0.28416  0.07441  Biso   1.000  P
  C55      1.0000 0.59040  0.69660  0.08260  Biso   1.000  C
  C56      1.0000 0.40960  0.30340  0.91740  Biso   1.000  C
  C57      1.0000 0.55840  0.77120  0.30160  Biso   1.000  C
  C58      1.0000 0.44160  0.22880  0.69840  Biso   1.000  C
  C59      1.0000 0.52080  0.84600  0.36460  Biso   1.000  C
  C60      1.0000 0.47920  0.15400  0.63540  Biso   1.000  C
  C61      1.0000 0.49510  0.81410  0.47730  Biso   1.000  C
  C62      1.0000 0.50490  0.18590  0.52270  Biso   1.000  C
  C63      1.0000 0.50590  0.70800  0.52540  Biso   1.000  C
  C64      1.0000 0.49410  0.29200  0.47460  Biso   1.000  C
  C65      1.0000 0.54140  0.63140  0.46360  Biso   1.000  C
  C66      1.0000 0.45860  0.36860  0.53640  Biso   1.000  C
  C67      1.0000 0.56840  0.66330  0.35170  Biso   1.000  C
  C68      1.0000 0.43160  0.33670  0.64830  Biso   1.000  C
  C69      1.0000 0.67480  0.82520  0.16550  Biso   1.000  C
  C70      1.0000 0.32520  0.17480  0.83450  Biso   1.000  C
  C71      1.0000 0.69860  0.92810  0.14900  Biso   1.000  C
  C72      1.0000 0.30140  0.07190  0.85100  Biso   1.000  C
  C73      1.0000 0.75830  0.93930  0.16530  Biso   1.000  C
  C74      1.0000 0.24170  0.06070  0.83470  Biso   1.000  C
  C75      1.0000 0.79570  0.84770  0.19580  Biso   1.000  C
  C76      1.0000 0.20430  0.15230  0.80420  Biso   1.000  C
  C77      1.0000 0.77420  0.74380  0.21130  Biso   1.000  C
  C78      1.0000 0.22580  0.25620  0.78870  Biso   1.000  C
  C79      1.0000 0.71340  0.73170  0.19550  Biso   1.000  C
  C80      1.0000 0.28660  0.26830  0.80450  Biso   1.000  C
  C81      1.0000 0.59400  0.57970  0.89010  Biso   1.000  C
  C82      1.0000 0.40600  0.42030  0.10990  Biso   1.000  C
  C83      1.0000 0.58530  0.48400  0.96820  Biso   1.000  C
  C84      1.0000 0.41470  0.51600  0.03180  Biso   1.000  C
  C85      1.0000 0.57550  0.38390  0.93390  Biso   1.000  C
  C86      1.0000 0.42450  0.61610  0.06610  Biso   1.000  C
  C87      1.0000 0.57330  0.37790  0.82080  Biso   1.000  C
  C88      1.0000 0.42670  0.62210  0.17920  Biso   1.000  C
  C89      1.0000 0.58100  0.47030  0.74350  Biso   1.000  C
  C90      1.0000 0.41900  0.52970  0.25650  Biso   1.000  C
  C91      1.0000 0.59090  0.57150  0.77680  Biso   1.000  C
  C92      1.0000 0.40910  0.42850  0.22320  Biso   1.000  C
  C93      1.0000 0.69380  0.71470  0.89860  Biso   1.000  C
  C94      1.0000 0.30620  0.28530  0.10140  Biso   1.000  C
  C95      1.0000 0.71910  0.81620  0.86310  Biso   1.000  C
  C96      1.0000 0.28090  0.18380  0.13690  Biso   1.000  C
  C97      1.0000 0.78320  0.82010  0.83900  Biso   1.000  C
  C98      1.0000 0.21680  0.17990  0.16100  Biso   1.000  C
  C99      1.0000 0.82100  0.72320  0.84980  Biso   1.000  C
  C100     1.0000 0.17900  0.27680  0.15020  Biso   1.000  C
  C101     1.0000 0.79700  0.62310  0.88530  Biso   1.000  C
  C102     1.0000 0.20300  0.37690  0.11470  Biso   1.000  C
  C103     1.0000 0.73270  0.61800  0.91030  Biso   1.000  C
  C104     1.0000 0.26730  0.38200  0.08970  Biso   1.000  C
  N3       1.0000 0.39780  0.11090  0.34700  Biso   1.000  N
  N4       1.0000 0.60220  0.88910  0.65300  Biso   1.000  N
  C105     1.0000 0.37700  0.08670  0.43820  Biso   1.000  C
  C106     1.0000 0.62300  0.91330  0.56180  Biso   1.000  C
  C107     1.0000 0.34860  0.05380  0.55740  Biso   1.000  C
  C108     1.0000 0.65140  0.94620  0.44260  Biso   1.000  C
  H51      1.0000 0.61888  0.63711  0.11130  Biso   1.000  H
  H52      1.0000 0.38112  0.36289  0.88870  Biso   1.000  H
  H53      1.0000 0.54896  0.66954  0.10431  Biso   1.000  H
  H54      1.0000 0.45104  0.33046  0.89569  Biso   1.000  H
  H55      1.0000 0.51173  0.92185  0.32902  Biso   1.000  H
  H56      1.0000 0.48827  0.07815  0.67098  Biso   1.000  H
  H57      1.0000 0.46868  0.86791  0.52160  Biso   1.000  H
  H58      1.0000 0.53132  0.13209  0.47840  Biso   1.000  H
  H59      1.0000 0.48770  0.68488  0.60447  Biso   1.000  H
  H60      1.0000 0.51230  0.31512  0.39553  Biso   1.000  H
  H61      1.0000 0.54732  0.55318  0.49727  Biso   1.000  H
  H62      1.0000 0.45268  0.44682  0.50273  Biso   1.000  H
  H63      1.0000 0.59544  0.60911  0.30954  Biso   1.000  H
  H64      1.0000 0.40456  0.39089  0.69046  Biso   1.000  H
  H65      1.0000 0.67264  0.99439  0.12414  Biso   1.000  H
  H66      1.0000 0.32736  0.00561  0.87586  Biso   1.000  H
  H67      1.0000 0.77307  0.01337  0.15570  Biso   1.000  H
  H68      1.0000 0.22693  0.98663  0.84430  Biso   1.000  H
  H69      1.0000 0.83767  0.85833  0.20653  Biso   1.000  H
  H70      1.0000 0.16233  0.14167  0.79347  Biso   1.000  H
  H71      1.0000 0.80257  0.68102  0.23005  Biso   1.000  H
  H72      1.0000 0.19743  0.31898  0.76995  Biso   1.000  H
  H73      1.0000 0.69714  0.65610  0.20806  Biso   1.000  H
  H74      1.0000 0.30286  0.34390  0.79194  Biso   1.000  H
  H75      1.0000 0.58551  0.48716  0.05035  Biso   1.000  H
  H76      1.0000 0.41449  0.51284  0.94965  Biso   1.000  H
  H77      1.0000 0.56993  0.31710  0.99025  Biso   1.000  H
  H78      1.0000 0.43007  0.68290  0.00975  Biso   1.000  H
  H79      1.0000 0.56580  0.30823  0.79850  Biso   1.000  H
  H80      1.0000 0.43420  0.69177  0.20150  Biso   1.000  H
  H81      1.0000 0.57866  0.46641  0.66249  Biso   1.000  H
  H82      1.0000 0.42134  0.53359  0.33751  Biso   1.000  H
  H83      1.0000 0.59581  0.63755  0.72121  Biso   1.000  H
  H84      1.0000 0.40419  0.36245  0.27879  Biso   1.000  H
  H85      1.0000 0.69135  0.88420  0.85305  Biso   1.000  H
  H86      1.0000 0.30865  0.11580  0.14695  Biso   1.000  H
  H87      1.0000 0.80048  0.89215  0.81422  Biso   1.000  H
  H88      1.0000 0.19952  0.10785  0.18578  Biso   1.000  H
  H89      1.0000 0.86694  0.72601  0.83324  Biso   1.000  H
  H90      1.0000 0.13306  0.27399  0.16676  Biso   1.000  H
  H91      1.0000 0.82429  0.55405  0.89417  Biso   1.000  H
  H92      1.0000 0.17571  0.44595  0.10583  Biso   1.000  H
  H93      1.0000 0.71481  0.54615  0.93390  Biso   1.000  H
  H94      1.0000 0.28519  0.45385  0.06610  Biso   1.000  H
  H95      1.0000 0.37932  0.00766  0.59880  Biso   1.000  H
  H96      1.0000 0.62068  0.99234  0.40120  Biso   1.000  H
  H97      1.0000 0.31472  0.00856  0.56106  Biso   1.000  H
  H98      1.0000 0.68528  0.99144  0.43894  Biso   1.000  H
  H99      1.0000 0.33490  0.11627  0.59690  Biso   1.000  H
  H100     1.0000 0.66510  0.88373  0.40310  Biso   1.000  H
  N5       1.0000 0.33460  0.55610  0.77460  Biso   1.000  N
  N6       1.0000 0.66540  0.44390  0.22540  Biso   1.000  N
  C109     1.0000 0.31800  0.64300  0.78220  Biso   1.000  C
  C110     1.0000 0.68200  0.35700  0.21780  Biso   1.000  C
  C111     1.0000 0.29630  0.75660  0.79030  Biso   1.000  C
  C112     1.0000 0.70370  0.24340  0.20970  Biso   1.000  C
  H101     1.0000 0.28634  0.79393  0.71933  Biso   1.000  H
  H102     1.0000 0.71366  0.20607  0.28067  Biso   1.000  H
  H103     1.0000 0.32716  0.79691  0.81303  Biso   1.000  H
  H104     1.0000 0.67284  0.20309  0.18697  Biso   1.000  H
  H105     1.0000 0.25910  0.76375  0.84743  Biso   1.000  H
  H106     1.0000 0.74090  0.23625  0.15257  Biso   1.000  H
  N7       1.0000 0.20650  0.45330  0.53990  Biso   1.000  N
  N8       1.0000 0.79350  0.54670  0.46010  Biso   1.000  N
  C113     1.0000 0.22580  0.38530  0.48950  Biso   1.000  C
  C114     1.0000 0.77420  0.61470  0.51050  Biso   1.000  C
  C115     1.0000 0.24240  0.29510  0.42520  Biso   1.000  C
  C116     1.0000 0.75760  0.70490  0.57480  Biso   1.000  C
  H107     1.0000 0.25934  0.31629  0.34495  Biso   1.000  H
  H108     1.0000 0.74066  0.68371  0.65505  Biso   1.000  H
  H109     1.0000 0.20473  0.25491  0.41996  Biso   1.000  H
  H110     1.0000 0.79527  0.74509  0.58004  Biso   1.000  H
  H111     1.0000 0.27076  0.23635  0.45405  Biso   1.000  H
  H112     1.0000 0.72924  0.76365  0.54595  Biso   1.000  H
