data_image0
_cell_length_a       11.435
_cell_length_b       12.485
_cell_length_c       12.599
_cell_angle_alpha    75.9
_cell_angle_beta     81.396
_cell_angle_gamma    89.975

_symmetry_space_group_name_H-M    "P 1"
_symmetry_int_tables_number       1

loop_
  _symmetry_equiv_pos_as_xyz
  'x, y, z'

loop_
  _atom_site_label
  _atom_site_occupancy
  _atom_site_fract_x
  _atom_site_fract_y
  _atom_site_fract_z
  _atom_site_thermal_displace_type
  _atom_site_B_iso_or_equiv
  _atom_site_type_symbol
  Cu1      1.0000 0.47404  0.42106  0.43415  Biso   1.000  Cu
  Cu2      1.0000 0.52596  0.57894  0.56585  Biso   1.000  Cu
  Cu3      1.0000 0.53569  0.58295  0.22559  Biso   1.000  Cu
  Cu4      1.0000 0.46431  0.41705  0.77441  Biso   1.000  Cu
  Cu5      1.0000 0.47656  0.42284  0.10801  Biso   1.000  Cu
  Cu6      1.0000 0.52344  0.57716  0.89199  Biso   1.000  Cu
  I1       1.0000 0.39942  0.62865  0.40160  Biso   1.000  I
  I2       1.0000 0.60058  0.37135  0.59840  Biso   1.000  I
  I3       1.0000 0.61650  0.38120  0.26436  Biso   1.000  I
  I4       1.0000 0.38350  0.61880  0.73565  Biso   1.000  I
  I5       1.0000 0.40005  0.62457  0.06933  Biso   1.000  I
  I6       1.0000 0.59995  0.37543  0.93067  Biso   1.000  I
  Sb1      1.0000 0.28146  0.30791  0.49648  Biso   1.000  Sb
  Sb2      1.0000 0.71854  0.69209  0.50352  Biso   1.000  Sb
  Sb3      1.0000 0.29373  0.27915  0.79474  Biso   1.000  Sb
  Sb4      1.0000 0.70627  0.72085  0.20526  Biso   1.000  Sb
  C1       1.0000 0.13430  0.36920  0.41530  Biso   1.000  C
  C2       1.0000 0.86570  0.63080  0.58470  Biso   1.000  C
  C3       1.0000 0.01750  0.33210  0.45770  Biso   1.000  C
  C4       1.0000 0.98250  0.66790  0.54230  Biso   1.000  C
  C5       1.0000 0.92650  0.37170  0.39900  Biso   1.000  C
  C6       1.0000 0.07350  0.62830  0.60100  Biso   1.000  C
  C7       1.0000 0.95090  0.44940  0.29930  Biso   1.000  C
  C8       1.0000 0.04910  0.55060  0.70070  Biso   1.000  C
  C9       1.0000 0.06550  0.48880  0.25690  Biso   1.000  C
  C10      1.0000 0.93450  0.51120  0.74310  Biso   1.000  C
  C11      1.0000 0.15700  0.44940  0.31520  Biso   1.000  C
  C12      1.0000 0.84300  0.55060  0.68480  Biso   1.000  C
  C13      1.0000 0.27390  0.13980  0.48490  Biso   1.000  C
  C14      1.0000 0.72610  0.86020  0.51510  Biso   1.000  C
  C15      1.0000 0.17080  0.07130  0.52560  Biso   1.000  C
  C16      1.0000 0.82920  0.92870  0.47440  Biso   1.000  C
  C17      1.0000 0.17060  0.96280  0.51700  Biso   1.000  C
  C18      1.0000 0.82940  0.03720  0.48300  Biso   1.000  C
  C19      1.0000 0.27130  0.92040  0.46980  Biso   1.000  C
  C20      1.0000 0.72870  0.07960  0.53020  Biso   1.000  C
  C21      1.0000 0.37290  0.98780  0.42780  Biso   1.000  C
  C22      1.0000 0.62710  0.01220  0.57220  Biso   1.000  C
  C23      1.0000 0.37410  0.09630  0.43630  Biso   1.000  C
  C24      1.0000 0.62590  0.90370  0.56370  Biso   1.000  C
  C25      1.0000 0.19180  0.29300  0.66220  Biso   1.000  C
  C26      1.0000 0.80820  0.70700  0.33780  Biso   1.000  C
  C27      1.0000 0.14230  0.26310  0.92080  Biso   1.000  C
  C28      1.0000 0.85770  0.73690  0.07920  Biso   1.000  C
  C29      1.0000 0.11600  0.35210  0.96830  Biso   1.000  C
  C30      1.0000 0.88400  0.64790  0.03170  Biso   1.000  C
  C31      1.0000 0.01060  0.35070  0.04010  Biso   1.000  C
  C32      1.0000 0.98940  0.64930  0.95990  Biso   1.000  C
  C33      1.0000 0.93190  0.26090  0.06610  Biso   1.000  C
  C34      1.0000 0.06810  0.73910  0.93390  Biso   1.000  C
  C35      1.0000 0.95860  0.17170  0.02290  Biso   1.000  C
  C36      1.0000 0.04140  0.82830  0.97710  Biso   1.000  C
  C37      1.0000 0.06360  0.17230  0.94990  Biso   1.000  C
  C38      1.0000 0.93640  0.82770  0.05010  Biso   1.000  C
  C39      1.0000 0.34270  0.11190  0.81240  Biso   1.000  C
  C40      1.0000 0.65730  0.88810  0.18760  Biso   1.000  C
  C41      1.0000 0.44490  0.08010  0.85790  Biso   1.000  C
  C42      1.0000 0.55510  0.91990  0.14210  Biso   1.000  C
  C43      1.0000 0.48580  0.97350  0.86590  Biso   1.000  C
  C44      1.0000 0.51420  0.02650  0.13410  Biso   1.000  C
  C45      1.0000 0.42500  0.89880  0.82670  Biso   1.000  C
  C46      1.0000 0.57500  0.10120  0.17330  Biso   1.000  C
  C47      1.0000 0.32540  0.93030  0.78050  Biso   1.000  C
  C48      1.0000 0.67460  0.06970  0.21950  Biso   1.000  C
  C49      1.0000 0.28310  0.03580  0.77320  Biso   1.000  C
  C50      1.0000 0.71690  0.96420  0.22680  Biso   1.000  C
  N1       1.0000 0.34230  0.31210  0.16000  Biso   1.000  N
  N2       1.0000 0.65770  0.68790  0.84000  Biso   1.000  N
  C51      1.0000 0.26510  0.25140  0.19110  Biso   1.000  C
  C52      1.0000 0.73490  0.74860  0.80890  Biso   1.000  C
  C53      1.0000 0.16320  0.17400  0.23240  Biso   1.000  C
  C54      1.0000 0.83680  0.82600  0.76760  Biso   1.000  C
  H1       1.0000 0.00029  0.28033  0.52725  Biso   1.000  H
  H2       1.0000 0.99971  0.71967  0.47275  Biso   1.000  H
  H3       1.0000 0.84751  0.34529  0.42757  Biso   1.000  H
  H4       1.0000 0.15249  0.65471  0.57243  Biso   1.000  H
  H5       1.0000 0.88831  0.47621  0.25936  Biso   1.000  H
  H6       1.0000 0.11169  0.52379  0.74064  Biso   1.000  H
  H7       1.0000 0.08164  0.54251  0.18819  Biso   1.000  H
  H8       1.0000 0.91836  0.45749  0.81181  Biso   1.000  H
  H9       1.0000 0.23577  0.47739  0.28652  Biso   1.000  H
  H10      1.0000 0.76423  0.52261  0.71348  Biso   1.000  H
  H11      1.0000 0.10170  0.09980  0.55872  Biso   1.000  H
  H12      1.0000 0.89830  0.90020  0.44128  Biso   1.000  H
  H13      1.0000 0.10045  0.91730  0.54362  Biso   1.000  H
  H14      1.0000 0.89955  0.08270  0.45638  Biso   1.000  H
  H15      1.0000 0.27107  0.84544  0.46589  Biso   1.000  H
  H16      1.0000 0.72893  0.15456  0.53411  Biso   1.000  H
  H17      1.0000 0.44156  0.95921  0.39326  Biso   1.000  H
  H18      1.0000 0.55844  0.04079  0.60674  Biso   1.000  H
  H19      1.0000 0.44398  0.14169  0.40865  Biso   1.000  H
  H20      1.0000 0.55602  0.85831  0.59135  Biso   1.000  H
  H21      1.0000 0.14132  0.22830  0.68031  Biso   1.000  H
  H22      1.0000 0.85868  0.77170  0.31969  Biso   1.000  H
  H23      1.0000 0.14550  0.35593  0.66051  Biso   1.000  H
  H24      1.0000 0.85450  0.64407  0.33949  Biso   1.000  H
  H25      1.0000 0.17007  0.41364  0.95133  Biso   1.000  H
  H26      1.0000 0.82993  0.58636  0.04867  Biso   1.000  H
  H27      1.0000 0.99189  0.41211  0.07106  Biso   1.000  H
  H28      1.0000 0.00811  0.58789  0.92894  Biso   1.000  H
  H29      1.0000 0.86001  0.26092  0.11447  Biso   1.000  H
  H30      1.0000 0.13999  0.73908  0.88553  Biso   1.000  H
  H31      1.0000 0.90505  0.10915  0.04259  Biso   1.000  H
  H32      1.0000 0.09495  0.89085  0.95741  Biso   1.000  H
  H33      1.0000 0.08114  0.11015  0.92045  Biso   1.000  H
  H34      1.0000 0.91886  0.88985  0.07955  Biso   1.000  H
  H35      1.0000 0.48682  0.13144  0.88377  Biso   1.000  H
  H36      1.0000 0.51318  0.86856  0.11623  Biso   1.000  H
  H37      1.0000 0.55478  0.95240  0.89814  Biso   1.000  H
  H38      1.0000 0.44522  0.04760  0.10186  Biso   1.000  H
  H39      1.0000 0.45252  0.82624  0.83179  Biso   1.000  H
  H40      1.0000 0.54748  0.17376  0.16821  Biso   1.000  H
  H41      1.0000 0.28463  0.87928  0.75247  Biso   1.000  H
  H42      1.0000 0.71537  0.12072  0.24753  Biso   1.000  H
  H43      1.0000 0.21370  0.05594  0.74177  Biso   1.000  H
  H44      1.0000 0.78630  0.94406  0.25823  Biso   1.000  H
  H45      1.0000 0.12714  0.16488  0.17165  Biso   1.000  H
  H46      1.0000 0.87286  0.83512  0.82835  Biso   1.000  H
  H47      1.0000 0.10722  0.20316  0.28104  Biso   1.000  H
  H48      1.0000 0.89278  0.79684  0.71896  Biso   1.000  H
  H49      1.0000 0.18796  0.10502  0.27081  Biso   1.000  H
  H50      1.0000 0.81204  0.89498  0.72919  Biso   1.000  H
  N3       1.0000 0.95720  0.07500  0.74370  Biso   1.000  N
  N4       1.0000 0.04280  0.92500  0.25630  Biso   1.000  N
  C55      1.0000 0.87760  0.11580  0.77410  Biso   1.000  C
  C56      1.0000 0.12240  0.88420  0.22590  Biso   1.000  C
  C57      1.0000 0.77300  0.16680  0.81380  Biso   1.000  C
  C58      1.0000 0.22700  0.83320  0.18620  Biso   1.000  C
  H51      1.0000 0.78307  0.24586  0.78229  Biso   1.000  H
  H52      1.0000 0.21693  0.75414  0.21771  Biso   1.000  H
  H53      1.0000 0.70726  0.13924  0.79493  Biso   1.000  H
  H54      1.0000 0.29274  0.86076  0.20507  Biso   1.000  H
  H55      1.0000 0.76748  0.15505  0.89258  Biso   1.000  H
  H56      1.0000 0.23252  0.84495  0.10742  Biso   1.000  H
