data_image0
_cell_length_a       9.91
_cell_length_b       16.4571
_cell_length_c       10.5782
_cell_angle_alpha    90
_cell_angle_beta     103.579
_cell_angle_gamma    90

_symmetry_space_group_name_H-M    "P 1"
_symmetry_int_tables_number       1

loop_
  _symmetry_equiv_pos_as_xyz
  'x, y, z'

loop_
  _atom_site_label
  _atom_site_occupancy
  _atom_site_fract_x
  _atom_site_fract_y
  _atom_site_fract_z
  _atom_site_thermal_displace_type
  _atom_site_B_iso_or_equiv
  _atom_site_type_symbol
  Cu1      1.0000 0.79799  0.36832  0.50300  Biso   1.000  Cu
  Cu2      1.0000 0.70201  0.86832  0.99700  Biso   1.000  Cu
  Cu3      1.0000 0.20201  0.63168  0.49700  Biso   1.000  Cu
  Cu4      1.0000 0.29799  0.13168  0.00300  Biso   1.000  Cu
  Cu5      1.0000 0.92835  0.44366  0.34918  Biso   1.000  Cu
  Cu6      1.0000 0.57165  0.94366  0.15082  Biso   1.000  Cu
  Cu7      1.0000 0.07165  0.55634  0.65082  Biso   1.000  Cu
  Cu8      1.0000 0.42835  0.05634  0.84918  Biso   1.000  Cu
  I1       1.0000 0.06280  0.39076  0.58785  Biso   1.000  I
  I2       1.0000 0.43720  0.89076  0.91215  Biso   1.000  I
  I3       1.0000 0.93720  0.60924  0.41215  Biso   1.000  I
  I4       1.0000 0.56280  0.10924  0.08785  Biso   1.000  I
  I5       1.0000 0.66150  0.39836  0.27792  Biso   1.000  I
  I6       1.0000 0.83850  0.89836  0.22208  Biso   1.000  I
  I7       1.0000 0.33850  0.60164  0.72208  Biso   1.000  I
  I8       1.0000 0.16150  0.10164  0.77792  Biso   1.000  I
  C1       1.0000 0.24660  0.47380  0.27800  Biso   1.000  C
  C2       1.0000 0.25340  0.97380  0.22200  Biso   1.000  C
  C3       1.0000 0.75340  0.52620  0.72200  Biso   1.000  C
  C4       1.0000 0.74660  0.02620  0.77800  Biso   1.000  C
  H1       1.0000 0.27090  0.52520  0.24660  Biso   1.000  H
  H2       1.0000 0.22910  0.02520  0.25340  Biso   1.000  H
  H3       1.0000 0.72910  0.47480  0.75340  Biso   1.000  H
  H4       1.0000 0.77090  0.97480  0.74660  Biso   1.000  H
  H5       1.0000 0.32600  0.43850  0.29420  Biso   1.000  H
  H6       1.0000 0.17400  0.93850  0.20580  Biso   1.000  H
  H7       1.0000 0.67400  0.56150  0.70580  Biso   1.000  H
  H8       1.0000 0.82600  0.06150  0.79420  Biso   1.000  H
  H9       1.0000 0.21710  0.48190  0.35730  Biso   1.000  H
  H10      1.0000 0.28290  0.98190  0.14270  Biso   1.000  H
  H11      1.0000 0.78290  0.51810  0.64270  Biso   1.000  H
  H12      1.0000 0.71710  0.01810  0.85730  Biso   1.000  H
  C5       1.0000 0.13360  0.43690  0.18040  Biso   1.000  C
  C6       1.0000 0.36640  0.93690  0.31960  Biso   1.000  C
  C7       1.0000 0.86640  0.56310  0.81960  Biso   1.000  C
  C8       1.0000 0.63360  0.06310  0.68040  Biso   1.000  C
  C9       1.0000 0.93470  0.38760  0.08170  Biso   1.000  C
  C10      1.0000 0.56530  0.88760  0.41830  Biso   1.000  C
  C11      1.0000 0.06530  0.61240  0.91830  Biso   1.000  C
  C12      1.0000 0.43470  0.11240  0.58170  Biso   1.000  C
  H13      1.0000 0.84360  0.36900  0.06600  Biso   1.000  H
  H14      1.0000 0.65640  0.86900  0.43400  Biso   1.000  H
  H15      1.0000 0.15640  0.63100  0.93400  Biso   1.000  H
  H16      1.0000 0.34360  0.13100  0.56600  Biso   1.000  H
  C13      1.0000 0.01540  0.38650  0.99530  Biso   1.000  C
  C14      1.0000 0.48460  0.88650  0.50470  Biso   1.000  C
  C15      1.0000 0.98460  0.61350  0.00470  Biso   1.000  C
  C16      1.0000 0.51540  0.11350  0.49530  Biso   1.000  C
  H17      1.0000 0.99060  0.36830  0.90970  Biso   1.000  H
  H18      1.0000 0.50940  0.86830  0.59030  Biso   1.000  H
  H19      1.0000 0.00940  0.63170  0.09030  Biso   1.000  H
  H20      1.0000 0.49060  0.13170  0.40970  Biso   1.000  H
  C17      1.0000 0.26000  0.42900  0.00060  Biso   1.000  C
  C18      1.0000 0.24000  0.92900  0.49940  Biso   1.000  C
  C19      1.0000 0.74000  0.57100  0.99940  Biso   1.000  C
  C20      1.0000 0.76000  0.07100  0.50060  Biso   1.000  C
  H21      1.0000 0.33730  0.45120  0.06520  Biso   1.000  H
  H22      1.0000 0.16270  0.95120  0.43480  Biso   1.000  H
  H23      1.0000 0.66270  0.54880  0.93480  Biso   1.000  H
  H24      1.0000 0.83730  0.04880  0.56520  Biso   1.000  H
  H25      1.0000 0.23500  0.46810  0.93050  Biso   1.000  H
  H26      1.0000 0.26500  0.96810  0.56950  Biso   1.000  H
  H27      1.0000 0.76500  0.53190  0.06950  Biso   1.000  H
  H28      1.0000 0.73500  0.03190  0.43050  Biso   1.000  H
  C21      1.0000 0.30560  0.35200  0.94810  Biso   1.000  C
  C22      1.0000 0.19440  0.85200  0.55190  Biso   1.000  C
  C23      1.0000 0.69440  0.64800  0.05190  Biso   1.000  C
  C24      1.0000 0.80560  0.14800  0.44810  Biso   1.000  C
  H29      1.0000 0.22860  0.33010  0.88280  Biso   1.000  H
  H30      1.0000 0.27140  0.83010  0.61720  Biso   1.000  H
  H31      1.0000 0.77140  0.66990  0.11720  Biso   1.000  H
  H32      1.0000 0.72860  0.16990  0.38280  Biso   1.000  H
  H33      1.0000 0.32950  0.31260  0.01800  Biso   1.000  H
  H34      1.0000 0.17050  0.81260  0.48200  Biso   1.000  H
  H35      1.0000 0.67050  0.68740  0.98200  Biso   1.000  H
  H36      1.0000 0.82950  0.18740  0.51800  Biso   1.000  H
  C25      1.0000 0.42880  0.36330  0.88830  Biso   1.000  C
  C26      1.0000 0.07120  0.86330  0.61170  Biso   1.000  C
  C27      1.0000 0.57120  0.63670  0.11170  Biso   1.000  C
  C28      1.0000 0.92880  0.13670  0.38830  Biso   1.000  C
  H37      1.0000 0.41420  0.41070  0.83210  Biso   1.000  H
  H38      1.0000 0.08580  0.91070  0.66790  Biso   1.000  H
  H39      1.0000 0.58580  0.58930  0.16790  Biso   1.000  H
  H40      1.0000 0.91420  0.08930  0.33210  Biso   1.000  H
  H41      1.0000 0.51190  0.37230  0.95640  Biso   1.000  H
  H42      1.0000 0.98810  0.87230  0.54360  Biso   1.000  H
  H43      1.0000 0.48810  0.62770  0.04360  Biso   1.000  H
  H44      1.0000 0.01190  0.12770  0.45640  Biso   1.000  H
  C29      1.0000 0.44780  0.28960  0.81100  Biso   1.000  C
  C30      1.0000 0.05220  0.78960  0.68900  Biso   1.000  C
  C31      1.0000 0.55220  0.71040  0.18900  Biso   1.000  C
  C32      1.0000 0.94780  0.21040  0.31100  Biso   1.000  C
  H45      1.0000 0.45200  0.24190  0.86560  Biso   1.000  H
  H46      1.0000 0.04800  0.74190  0.63440  Biso   1.000  H
  H47      1.0000 0.54800  0.75810  0.13440  Biso   1.000  H
  H48      1.0000 0.95200  0.25810  0.36560  Biso   1.000  H
  H49      1.0000 0.36750  0.28390  0.73870  Biso   1.000  H
  H50      1.0000 0.13250  0.78390  0.76130  Biso   1.000  H
  H51      1.0000 0.63250  0.71610  0.26130  Biso   1.000  H
  H52      1.0000 0.86750  0.21610  0.23870  Biso   1.000  H
  C33      1.0000 0.47510  0.37540  0.56440  Biso   1.000  C
  C34      1.0000 0.02490  0.87540  0.93560  Biso   1.000  C
  C35      1.0000 0.52490  0.62460  0.43560  Biso   1.000  C
  C36      1.0000 0.97510  0.12460  0.06440  Biso   1.000  C
  H53      1.0000 0.46990  0.42920  0.59810  Biso   1.000  H
  H54      1.0000 0.03010  0.92920  0.90190  Biso   1.000  H
  H55      1.0000 0.53010  0.57080  0.40190  Biso   1.000  H
  H56      1.0000 0.96990  0.07080  0.09810  Biso   1.000  H
  H57      1.0000 0.38820  0.34810  0.55770  Biso   1.000  H
  H58      1.0000 0.11180  0.84810  0.94230  Biso   1.000  H
  H59      1.0000 0.61180  0.65190  0.44230  Biso   1.000  H
  H60      1.0000 0.88820  0.15190  0.05770  Biso   1.000  H
  H61      1.0000 0.49470  0.37880  0.47990  Biso   1.000  H
  H62      1.0000 0.00530  0.87880  0.02010  Biso   1.000  H
  H63      1.0000 0.50530  0.62120  0.52010  Biso   1.000  H
  H64      1.0000 0.99470  0.12120  0.97990  Biso   1.000  H
  C37      1.0000 0.58580  0.33000  0.65190  Biso   1.000  C
  C38      1.0000 0.91420  0.83000  0.84810  Biso   1.000  C
  C39      1.0000 0.41420  0.67000  0.34810  Biso   1.000  C
  C40      1.0000 0.08580  0.17000  0.15190  Biso   1.000  C
  C41      1.0000 0.78420  0.27540  0.74090  Biso   1.000  C
  C42      1.0000 0.71580  0.77540  0.75910  Biso   1.000  C
  C43      1.0000 0.21580  0.72460  0.25910  Biso   1.000  C
  C44      1.0000 0.28420  0.22460  0.24090  Biso   1.000  C
  H65      1.0000 0.87650  0.25940  0.75570  Biso   1.000  H
  H66      1.0000 0.62350  0.75940  0.74430  Biso   1.000  H
  H67      1.0000 0.12350  0.74060  0.24430  Biso   1.000  H
  H68      1.0000 0.37650  0.24060  0.25570  Biso   1.000  H
  C45      1.0000 0.69880  0.25780  0.81760  Biso   1.000  C
  C46      1.0000 0.80120  0.75780  0.68240  Biso   1.000  C
  C47      1.0000 0.30120  0.74220  0.18240  Biso   1.000  C
  C48      1.0000 0.19880  0.24220  0.31760  Biso   1.000  C
  H69      1.0000 0.72000  0.22800  0.89440  Biso   1.000  H
  H70      1.0000 0.78000  0.72800  0.60560  Biso   1.000  H
  H71      1.0000 0.28000  0.77200  0.10560  Biso   1.000  H
  H72      1.0000 0.22000  0.27200  0.39440  Biso   1.000  H
  N1       1.0000 0.00840  0.42040  0.19650  Biso   1.000  N
  N2       1.0000 0.49160  0.92040  0.30350  Biso   1.000  N
  N3       1.0000 0.99160  0.57960  0.80350  Biso   1.000  N
  N4       1.0000 0.50840  0.07960  0.69650  Biso   1.000  N
  N5       1.0000 0.14270  0.41790  0.05960  Biso   1.000  N
  N6       1.0000 0.35730  0.91790  0.44040  Biso   1.000  N
  N7       1.0000 0.85730  0.58210  0.94040  Biso   1.000  N
  N8       1.0000 0.64270  0.08210  0.55960  Biso   1.000  N
  N9       1.0000 0.57310  0.29270  0.76040  Biso   1.000  N
  N10      1.0000 0.92690  0.79270  0.73960  Biso   1.000  N
  N11      1.0000 0.42690  0.70730  0.23960  Biso   1.000  N
  N12      1.0000 0.07310  0.20730  0.26040  Biso   1.000  N
  N13      1.0000 0.71480  0.32080  0.63670  Biso   1.000  N
  N14      1.0000 0.78520  0.82080  0.86330  Biso   1.000  N
  N15      1.0000 0.28520  0.67920  0.36330  Biso   1.000  N
  N16      1.0000 0.21480  0.17920  0.13670  Biso   1.000  N
