data_image0
_cell_length_a       43.528
_cell_length_b       4.1804
_cell_length_c       24.057
_cell_angle_alpha    90
_cell_angle_beta     115.413
_cell_angle_gamma    90

_symmetry_space_group_name_H-M    "P 1"
_symmetry_int_tables_number       1

loop_
  _symmetry_equiv_pos_as_xyz
  'x, y, z'

loop_
  _atom_site_label
  _atom_site_occupancy
  _atom_site_fract_x
  _atom_site_fract_y
  _atom_site_fract_z
  _atom_site_thermal_displace_type
  _atom_site_B_iso_or_equiv
  _atom_site_type_symbol
  Cu1      1.0000 0.65071  0.95690  0.30506  Biso   1.000  Cu
  Cu2      1.0000 0.34929  0.95690  0.19494  Biso   1.000  Cu
  Cu3      1.0000 0.15071  0.45690  0.30506  Biso   1.000  Cu
  Cu4      1.0000 0.84929  0.45690  0.19494  Biso   1.000  Cu
  Cu5      1.0000 0.34929  0.04310  0.69494  Biso   1.000  Cu
  Cu6      1.0000 0.65071  0.04310  0.80506  Biso   1.000  Cu
  Cu7      1.0000 0.84929  0.54310  0.69494  Biso   1.000  Cu
  Cu8      1.0000 0.15071  0.54310  0.80506  Biso   1.000  Cu
  Cu9      1.0000 0.46293  0.07600  0.31256  Biso   1.000  Cu
  Cu10     1.0000 0.53707  0.07600  0.18744  Biso   1.000  Cu
  Cu11     1.0000 0.96293  0.57600  0.31256  Biso   1.000  Cu
  Cu12     1.0000 0.03707  0.57600  0.18744  Biso   1.000  Cu
  Cu13     1.0000 0.53707  0.92400  0.68744  Biso   1.000  Cu
  Cu14     1.0000 0.46293  0.92400  0.81256  Biso   1.000  Cu
  Cu15     1.0000 0.03707  0.42400  0.68744  Biso   1.000  Cu
  Cu16     1.0000 0.96293  0.42400  0.81256  Biso   1.000  Cu
  Cu17     1.0000 0.54340  0.53600  0.27175  Biso   1.000  Cu
  Cu18     1.0000 0.45660  0.53600  0.22825  Biso   1.000  Cu
  Cu19     1.0000 0.04340  0.03600  0.27175  Biso   1.000  Cu
  Cu20     1.0000 0.95660  0.03600  0.22825  Biso   1.000  Cu
  Cu21     1.0000 0.45660  0.46400  0.72825  Biso   1.000  Cu
  Cu22     1.0000 0.54340  0.46400  0.77175  Biso   1.000  Cu
  Cu23     1.0000 0.95660  0.96400  0.72825  Biso   1.000  Cu
  Cu24     1.0000 0.04340  0.96400  0.77175  Biso   1.000  Cu
  Cu25     1.0000 0.70032  0.40300  0.36224  Biso   1.000  Cu
  Cu26     1.0000 0.29968  0.40300  0.13776  Biso   1.000  Cu
  Cu27     1.0000 0.20032  0.90300  0.36224  Biso   1.000  Cu
  Cu28     1.0000 0.79968  0.90300  0.13776  Biso   1.000  Cu
  Cu29     1.0000 0.29968  0.59700  0.63776  Biso   1.000  Cu
  Cu30     1.0000 0.70032  0.59700  0.86224  Biso   1.000  Cu
  Cu31     1.0000 0.79968  0.09700  0.63776  Biso   1.000  Cu
  Cu32     1.0000 0.20032  0.09700  0.86224  Biso   1.000  Cu
  I1       1.0000 0.50863  0.55972  0.34103  Biso   1.000  I
  I2       1.0000 0.49137  0.55972  0.15897  Biso   1.000  I
  I3       1.0000 0.00863  0.05972  0.34103  Biso   1.000  I
  I4       1.0000 0.99137  0.05972  0.15897  Biso   1.000  I
  I5       1.0000 0.49137  0.44028  0.65897  Biso   1.000  I
  I6       1.0000 0.50863  0.44028  0.84103  Biso   1.000  I
  I7       1.0000 0.99137  0.94028  0.65897  Biso   1.000  I
  I8       1.0000 0.00863  0.94028  0.84103  Biso   1.000  I
  I9       1.0000 0.65399  0.45354  0.24150  Biso   1.000  I
  I10      1.0000 0.34601  0.45354  0.25850  Biso   1.000  I
  I11      1.0000 0.15399  0.95354  0.24150  Biso   1.000  I
  I12      1.0000 0.84601  0.95354  0.25850  Biso   1.000  I
  I13      1.0000 0.34601  0.54646  0.75850  Biso   1.000  I
  I14      1.0000 0.65399  0.54646  0.74150  Biso   1.000  I
  I15      1.0000 0.84601  0.04646  0.75850  Biso   1.000  I
  I16      1.0000 0.15399  0.04646  0.74150  Biso   1.000  I
  I17      1.0000 0.58436  0.02853  0.30027  Biso   1.000  I
  I18      1.0000 0.41564  0.02853  0.19973  Biso   1.000  I
  I19      1.0000 0.08436  0.52853  0.30027  Biso   1.000  I
  I20      1.0000 0.91564  0.52853  0.19973  Biso   1.000  I
  I21      1.0000 0.41564  0.97147  0.69973  Biso   1.000  I
  I22      1.0000 0.58436  0.97147  0.80027  Biso   1.000  I
  I23      1.0000 0.91564  0.47147  0.69973  Biso   1.000  I
  I24      1.0000 0.08436  0.47147  0.80027  Biso   1.000  I
  I25      1.0000 0.69133  0.90408  0.42104  Biso   1.000  I
  I26      1.0000 0.30867  0.90408  0.07896  Biso   1.000  I
  I27      1.0000 0.19133  0.40408  0.42104  Biso   1.000  I
  I28      1.0000 0.80867  0.40408  0.07896  Biso   1.000  I
  I29      1.0000 0.30867  0.09592  0.57896  Biso   1.000  I
  I30      1.0000 0.69133  0.09592  0.92104  Biso   1.000  I
  I31      1.0000 0.80867  0.59592  0.57896  Biso   1.000  I
  I32      1.0000 0.19133  0.59592  0.92104  Biso   1.000  I
  C1       1.0000 0.42130  0.95400  0.38170  Biso   1.000  C
  C2       1.0000 0.57870  0.95400  0.11830  Biso   1.000  C
  C3       1.0000 0.92130  0.45400  0.38170  Biso   1.000  C
  C4       1.0000 0.07870  0.45400  0.11830  Biso   1.000  C
  C5       1.0000 0.57870  0.04600  0.61830  Biso   1.000  C
  C6       1.0000 0.42130  0.04600  0.88170  Biso   1.000  C
  C7       1.0000 0.07870  0.54600  0.61830  Biso   1.000  C
  C8       1.0000 0.92130  0.54600  0.88170  Biso   1.000  C
  H1       1.0000 0.40410  0.85680  0.34780  Biso   1.000  H
  H2       1.0000 0.59590  0.85680  0.15220  Biso   1.000  H
  H3       1.0000 0.90410  0.35680  0.34780  Biso   1.000  H
  H4       1.0000 0.09590  0.35680  0.15220  Biso   1.000  H
  H5       1.0000 0.59590  0.14320  0.65220  Biso   1.000  H
  H6       1.0000 0.40410  0.14320  0.84780  Biso   1.000  H
  H7       1.0000 0.09590  0.64320  0.65220  Biso   1.000  H
  H8       1.0000 0.90410  0.64320  0.84780  Biso   1.000  H
  C9       1.0000 0.46720  0.19500  0.44020  Biso   1.000  C
  C10      1.0000 0.53280  0.19500  0.05980  Biso   1.000  C
  C11      1.0000 0.96720  0.69500  0.44020  Biso   1.000  C
  C12      1.0000 0.03280  0.69500  0.05980  Biso   1.000  C
  C13      1.0000 0.53280  0.80500  0.55980  Biso   1.000  C
  C14      1.0000 0.46720  0.80500  0.94020  Biso   1.000  C
  C15      1.0000 0.03280  0.30500  0.55980  Biso   1.000  C
  C16      1.0000 0.96720  0.30500  0.94020  Biso   1.000  C
  H9       1.0000 0.48810  0.29810  0.45370  Biso   1.000  H
  H10      1.0000 0.51190  0.29810  0.04630  Biso   1.000  H
  H11      1.0000 0.98810  0.79810  0.45370  Biso   1.000  H
  H12      1.0000 0.01190  0.79810  0.04630  Biso   1.000  H
  H13      1.0000 0.51190  0.70190  0.54630  Biso   1.000  H
  H14      1.0000 0.48810  0.70190  0.95370  Biso   1.000  H
  H15      1.0000 0.01190  0.20190  0.54630  Biso   1.000  H
  H16      1.0000 0.98810  0.20190  0.95370  Biso   1.000  H
  C17      1.0000 0.45100  0.13500  0.47510  Biso   1.000  C
  C18      1.0000 0.54900  0.13500  0.02490  Biso   1.000  C
  C19      1.0000 0.95100  0.63500  0.47510  Biso   1.000  C
  C20      1.0000 0.04900  0.63500  0.02490  Biso   1.000  C
  C21      1.0000 0.54900  0.86500  0.52490  Biso   1.000  C
  C22      1.0000 0.45100  0.86500  0.97510  Biso   1.000  C
  C23      1.0000 0.04900  0.36500  0.52490  Biso   1.000  C
  C24      1.0000 0.95100  0.36500  0.97510  Biso   1.000  C
  H17      1.0000 0.45820  0.18870  0.51630  Biso   1.000  H
  H18      1.0000 0.54180  0.18870  0.98370  Biso   1.000  H
  H19      1.0000 0.95820  0.68870  0.51630  Biso   1.000  H
  H20      1.0000 0.04180  0.68870  0.98370  Biso   1.000  H
  H21      1.0000 0.54180  0.81130  0.48370  Biso   1.000  H
  H22      1.0000 0.45820  0.81130  0.01630  Biso   1.000  H
  H23      1.0000 0.04180  0.31130  0.48370  Biso   1.000  H
  H24      1.0000 0.95820  0.31130  0.01630  Biso   1.000  H
  C25      1.0000 0.39530  0.86700  0.45450  Biso   1.000  C
  C26      1.0000 0.60470  0.86700  0.04550  Biso   1.000  C
  C27      1.0000 0.89530  0.36700  0.45450  Biso   1.000  C
  C28      1.0000 0.10470  0.36700  0.04550  Biso   1.000  C
  C29      1.0000 0.60470  0.13300  0.54550  Biso   1.000  C
  C30      1.0000 0.39530  0.13300  0.95450  Biso   1.000  C
  C31      1.0000 0.10470  0.63300  0.54550  Biso   1.000  C
  C32      1.0000 0.89530  0.63300  0.95450  Biso   1.000  C
  C33      1.0000 0.40490  0.71200  0.51070  Biso   1.000  C
  C34      1.0000 0.59510  0.71200  0.98930  Biso   1.000  C
  C35      1.0000 0.90490  0.21200  0.51070  Biso   1.000  C
  C36      1.0000 0.09510  0.21200  0.98930  Biso   1.000  C
  C37      1.0000 0.59510  0.28800  0.48930  Biso   1.000  C
  C38      1.0000 0.40490  0.28800  0.01070  Biso   1.000  C
  C39      1.0000 0.09510  0.78800  0.48930  Biso   1.000  C
  C40      1.0000 0.90490  0.78800  0.01070  Biso   1.000  C
  H25      1.0000 0.42770  0.68700  0.53730  Biso   1.000  H
  H26      1.0000 0.57230  0.68700  0.96270  Biso   1.000  H
  H27      1.0000 0.92770  0.18700  0.53730  Biso   1.000  H
  H28      1.0000 0.07230  0.18700  0.96270  Biso   1.000  H
  H29      1.0000 0.57230  0.31300  0.46270  Biso   1.000  H
  H30      1.0000 0.42770  0.31300  0.03730  Biso   1.000  H
  H31      1.0000 0.07230  0.81300  0.46270  Biso   1.000  H
  H32      1.0000 0.92770  0.81300  0.03730  Biso   1.000  H
  C41      1.0000 0.38010  0.59700  0.52650  Biso   1.000  C
  C42      1.0000 0.61990  0.59700  0.97350  Biso   1.000  C
  C43      1.0000 0.88010  0.09700  0.52650  Biso   1.000  C
  C44      1.0000 0.11990  0.09700  0.97350  Biso   1.000  C
  C45      1.0000 0.61990  0.40300  0.47350  Biso   1.000  C
  C46      1.0000 0.38010  0.40300  0.02650  Biso   1.000  C
  C47      1.0000 0.11990  0.90300  0.47350  Biso   1.000  C
  C48      1.0000 0.88010  0.90300  0.02650  Biso   1.000  C
  H33      1.0000 0.38640  0.49510  0.56420  Biso   1.000  H
  H34      1.0000 0.61360  0.49510  0.93580  Biso   1.000  H
  H35      1.0000 0.88640  0.99510  0.56420  Biso   1.000  H
  H36      1.0000 0.11360  0.99510  0.93580  Biso   1.000  H
  H37      1.0000 0.61360  0.50490  0.43580  Biso   1.000  H
  H38      1.0000 0.38640  0.50490  0.06420  Biso   1.000  H
  H39      1.0000 0.11360  0.00490  0.43580  Biso   1.000  H
  H40      1.0000 0.88640  0.00490  0.06420  Biso   1.000  H
  C49      1.0000 0.34550  0.63000  0.48640  Biso   1.000  C
  C50      1.0000 0.65450  0.63000  0.01360  Biso   1.000  C
  C51      1.0000 0.84550  0.13000  0.48640  Biso   1.000  C
  C52      1.0000 0.15450  0.13000  0.01360  Biso   1.000  C
  C53      1.0000 0.65450  0.37000  0.51360  Biso   1.000  C
  C54      1.0000 0.34550  0.37000  0.98640  Biso   1.000  C
  C55      1.0000 0.15450  0.87000  0.51360  Biso   1.000  C
  C56      1.0000 0.84550  0.87000  0.98640  Biso   1.000  C
  H41      1.0000 0.32890  0.54430  0.49660  Biso   1.000  H
  H42      1.0000 0.67110  0.54430  0.00340  Biso   1.000  H
  H43      1.0000 0.82890  0.04430  0.49660  Biso   1.000  H
  H44      1.0000 0.17110  0.04430  0.00340  Biso   1.000  H
  H45      1.0000 0.67110  0.45570  0.50340  Biso   1.000  H
  H46      1.0000 0.32890  0.45570  0.99660  Biso   1.000  H
  H47      1.0000 0.17110  0.95570  0.50340  Biso   1.000  H
  H48      1.0000 0.82890  0.95570  0.99660  Biso   1.000  H
  C57      1.0000 0.33640  0.79400  0.43120  Biso   1.000  C
  C58      1.0000 0.66360  0.79400  0.06880  Biso   1.000  C
  C59      1.0000 0.83640  0.29400  0.43120  Biso   1.000  C
  C60      1.0000 0.16360  0.29400  0.06880  Biso   1.000  C
  C61      1.0000 0.66360  0.20600  0.56880  Biso   1.000  C
  C62      1.0000 0.33640  0.20600  0.93120  Biso   1.000  C
  C63      1.0000 0.16360  0.70600  0.56880  Biso   1.000  C
  C64      1.0000 0.83640  0.70600  0.93120  Biso   1.000  C
  C65      1.0000 0.36120  0.90870  0.41520  Biso   1.000  C
  C66      1.0000 0.63880  0.90870  0.08480  Biso   1.000  C
  C67      1.0000 0.86120  0.40870  0.41520  Biso   1.000  C
  C68      1.0000 0.13880  0.40870  0.08480  Biso   1.000  C
  C69      1.0000 0.63880  0.09130  0.58480  Biso   1.000  C
  C70      1.0000 0.36120  0.09130  0.91520  Biso   1.000  C
  C71      1.0000 0.13880  0.59130  0.58480  Biso   1.000  C
  C72      1.0000 0.86120  0.59130  0.91520  Biso   1.000  C
  H49      1.0000 0.35510  0.01450  0.37790  Biso   1.000  H
  H50      1.0000 0.64490  0.01450  0.12210  Biso   1.000  H
  H51      1.0000 0.85510  0.51450  0.37790  Biso   1.000  H
  H52      1.0000 0.14490  0.51450  0.12210  Biso   1.000  H
  H53      1.0000 0.64490  0.98550  0.62210  Biso   1.000  H
  H54      1.0000 0.35510  0.98550  0.87790  Biso   1.000  H
  H55      1.0000 0.14490  0.48550  0.62210  Biso   1.000  H
  H56      1.0000 0.85510  0.48550  0.87790  Biso   1.000  H
  C73      1.0000 0.27460  0.80400  0.40400  Biso   1.000  C
  C74      1.0000 0.72540  0.80400  0.09600  Biso   1.000  C
  C75      1.0000 0.77460  0.30400  0.40400  Biso   1.000  C
  C76      1.0000 0.22540  0.30400  0.09600  Biso   1.000  C
  C77      1.0000 0.72540  0.19600  0.59600  Biso   1.000  C
  C78      1.0000 0.27460  0.19600  0.90400  Biso   1.000  C
  C79      1.0000 0.22540  0.69600  0.59600  Biso   1.000  C
  C80      1.0000 0.77460  0.69600  0.90400  Biso   1.000  C
  H57      1.0000 0.27610  0.70560  0.43980  Biso   1.000  H
  H58      1.0000 0.72390  0.70560  0.06020  Biso   1.000  H
  H59      1.0000 0.77610  0.20560  0.43980  Biso   1.000  H
  H60      1.0000 0.22390  0.20560  0.06020  Biso   1.000  H
  H61      1.0000 0.72390  0.29440  0.56020  Biso   1.000  H
  H62      1.0000 0.27610  0.29440  0.93980  Biso   1.000  H
  H63      1.0000 0.22390  0.79440  0.56020  Biso   1.000  H
  H64      1.0000 0.77610  0.79440  0.93980  Biso   1.000  H
  C81      1.0000 0.28890  0.99800  0.33540  Biso   1.000  C
  C82      1.0000 0.71110  0.99800  0.16460  Biso   1.000  C
  C83      1.0000 0.78890  0.49800  0.33540  Biso   1.000  C
  C84      1.0000 0.21110  0.49800  0.16460  Biso   1.000  C
  C85      1.0000 0.71110  0.00200  0.66460  Biso   1.000  C
  C86      1.0000 0.28890  0.00200  0.83540  Biso   1.000  C
  C87      1.0000 0.21110  0.50200  0.66460  Biso   1.000  C
  C88      1.0000 0.78890  0.50200  0.83540  Biso   1.000  C
  H65      1.0000 0.30090  0.06260  0.31340  Biso   1.000  H
  H66      1.0000 0.69910  0.06260  0.18660  Biso   1.000  H
  H67      1.0000 0.80090  0.56260  0.31340  Biso   1.000  H
  H68      1.0000 0.19910  0.56260  0.18660  Biso   1.000  H
  H69      1.0000 0.69910  0.93740  0.68660  Biso   1.000  H
  H70      1.0000 0.30090  0.93740  0.81340  Biso   1.000  H
  H71      1.0000 0.19910  0.43740  0.68660  Biso   1.000  H
  H72      1.0000 0.80090  0.43740  0.81340  Biso   1.000  H
  C89      1.0000 0.25500  0.02400  0.31780  Biso   1.000  C
  C90      1.0000 0.74500  0.02400  0.18220  Biso   1.000  C
  C91      1.0000 0.75500  0.52400  0.31780  Biso   1.000  C
  C92      1.0000 0.24500  0.52400  0.18220  Biso   1.000  C
  C93      1.0000 0.74500  0.97600  0.68220  Biso   1.000  C
  C94      1.0000 0.25500  0.97600  0.81780  Biso   1.000  C
  C95      1.0000 0.24500  0.47600  0.68220  Biso   1.000  C
  C96      1.0000 0.75500  0.47600  0.81780  Biso   1.000  C
  H73      1.0000 0.23970  0.11570  0.28100  Biso   1.000  H
  H74      1.0000 0.76030  0.11570  0.21900  Biso   1.000  H
  H75      1.0000 0.73970  0.61570  0.28100  Biso   1.000  H
  H76      1.0000 0.26030  0.61570  0.21900  Biso   1.000  H
  H77      1.0000 0.76030  0.88430  0.71900  Biso   1.000  H
  H78      1.0000 0.23970  0.88430  0.78100  Biso   1.000  H
  H79      1.0000 0.26030  0.38430  0.71900  Biso   1.000  H
  H80      1.0000 0.73970  0.38430  0.78100  Biso   1.000  H
  N1       1.0000 0.44840  0.08360  0.38070  Biso   1.000  N
  N2       1.0000 0.55160  0.08360  0.11930  Biso   1.000  N
  N3       1.0000 0.94840  0.58360  0.38070  Biso   1.000  N
  N4       1.0000 0.05160  0.58360  0.11930  Biso   1.000  N
  N5       1.0000 0.55160  0.91640  0.61930  Biso   1.000  N
  N6       1.0000 0.44840  0.91640  0.88070  Biso   1.000  N
  N7       1.0000 0.05160  0.41640  0.61930  Biso   1.000  N
  N8       1.0000 0.94840  0.41640  0.88070  Biso   1.000  N
  N9       1.0000 0.42105  0.97630  0.43770  Biso   1.000  N
  N10      1.0000 0.57895  0.97630  0.06230  Biso   1.000  N
  N11      1.0000 0.92105  0.47630  0.43770  Biso   1.000  N
  N12      1.0000 0.07895  0.47630  0.06230  Biso   1.000  N
  N13      1.0000 0.57895  0.02370  0.56230  Biso   1.000  N
  N14      1.0000 0.42105  0.02370  0.93770  Biso   1.000  N
  N15      1.0000 0.07895  0.52370  0.56230  Biso   1.000  N
  N16      1.0000 0.92105  0.52370  0.93770  Biso   1.000  N
  N17      1.0000 0.30188  0.85580  0.39300  Biso   1.000  N
  N18      1.0000 0.69812  0.85580  0.10700  Biso   1.000  N
  N19      1.0000 0.80188  0.35580  0.39300  Biso   1.000  N
  N20      1.0000 0.19812  0.35580  0.10700  Biso   1.000  N
  N21      1.0000 0.69812  0.14420  0.60700  Biso   1.000  N
  N22      1.0000 0.30188  0.14420  0.89300  Biso   1.000  N
  N23      1.0000 0.19812  0.64420  0.60700  Biso   1.000  N
  N24      1.0000 0.80188  0.64420  0.89300  Biso   1.000  N
  N25      1.0000 0.24614  0.89810  0.36150  Biso   1.000  N
  N26      1.0000 0.75386  0.89810  0.13850  Biso   1.000  N
  N27      1.0000 0.74614  0.39810  0.36150  Biso   1.000  N
  N28      1.0000 0.25386  0.39810  0.13850  Biso   1.000  N
  N29      1.0000 0.75386  0.10190  0.63850  Biso   1.000  N
  N30      1.0000 0.24614  0.10190  0.86150  Biso   1.000  N
  N31      1.0000 0.25386  0.60190  0.63850  Biso   1.000  N
  N32      1.0000 0.74614  0.60190  0.86150  Biso   1.000  N
