data_image0
_cell_length_a       8.3121
_cell_length_b       12.843
_cell_length_c       10.0096
_cell_angle_alpha    90
_cell_angle_beta     90
_cell_angle_gamma    90

_symmetry_space_group_name_H-M    "P 1"
_symmetry_int_tables_number       1

loop_
  _symmetry_equiv_pos_as_xyz
  'x, y, z'

loop_
  _atom_site_label
  _atom_site_occupancy
  _atom_site_fract_x
  _atom_site_fract_y
  _atom_site_fract_z
  _atom_site_thermal_displace_type
  _atom_site_B_iso_or_equiv
  _atom_site_type_symbol
  Cu1      1.0000 0.50000  0.87571  0.50000  Biso   1.000  Cu
  Cu2      1.0000 0.00000  0.12429  0.50000  Biso   1.000  Cu
  Cu3      1.0000 0.50000  0.12429  0.50000  Biso   1.000  Cu
  Cu4      1.0000 0.00000  0.87571  0.50000  Biso   1.000  Cu
  Cu5      1.0000 0.25000  0.88025  0.29770  Biso   1.000  Cu
  Cu6      1.0000 0.25000  0.11975  0.29770  Biso   1.000  Cu
  Cu7      1.0000 0.75000  0.88025  0.70230  Biso   1.000  Cu
  Cu8      1.0000 0.75000  0.11975  0.70230  Biso   1.000  Cu
  I1       1.0000 0.51334  0.00000  0.28837  Biso   1.000  I
  I2       1.0000 0.98666  0.00000  0.28837  Biso   1.000  I
  I3       1.0000 0.48666  0.00000  0.71163  Biso   1.000  I
  I4       1.0000 0.01334  0.00000  0.71163  Biso   1.000  I
  I5       1.0000 0.25000  0.74959  0.49907  Biso   1.000  I
  I6       1.0000 0.25000  0.25041  0.49907  Biso   1.000  I
  I7       1.0000 0.75000  0.74959  0.50093  Biso   1.000  I
  I8       1.0000 0.75000  0.25041  0.50093  Biso   1.000  I
  C1       1.0000 0.31740  0.71130  0.10240  Biso   1.000  C
  C2       1.0000 0.18260  0.28870  0.10240  Biso   1.000  C
  C3       1.0000 0.68260  0.71130  0.89760  Biso   1.000  C
  C4       1.0000 0.81740  0.28870  0.89760  Biso   1.000  C
  C5       1.0000 0.68260  0.28870  0.89760  Biso   1.000  C
  C6       1.0000 0.81740  0.71130  0.89760  Biso   1.000  C
  C7       1.0000 0.31740  0.28870  0.10240  Biso   1.000  C
  C8       1.0000 0.18260  0.71130  0.10240  Biso   1.000  C
  H1       1.0000 0.36190  0.66690  0.17010  Biso   1.000  H
  H2       1.0000 0.13810  0.33310  0.17010  Biso   1.000  H
  H3       1.0000 0.63810  0.66690  0.82990  Biso   1.000  H
  H4       1.0000 0.86190  0.33310  0.82990  Biso   1.000  H
  H5       1.0000 0.63810  0.33310  0.82990  Biso   1.000  H
  H6       1.0000 0.86190  0.66690  0.82990  Biso   1.000  H
  H7       1.0000 0.36190  0.33310  0.17010  Biso   1.000  H
  H8       1.0000 0.13810  0.66690  0.17010  Biso   1.000  H
  C9       1.0000 0.21490  0.84350  0.00160  Biso   1.000  C
  C10      1.0000 0.28510  0.15650  0.00160  Biso   1.000  C
  C11      1.0000 0.78510  0.84350  0.99840  Biso   1.000  C
  C12      1.0000 0.71490  0.15650  0.99840  Biso   1.000  C
  C13      1.0000 0.78510  0.15650  0.99840  Biso   1.000  C
  C14      1.0000 0.71490  0.84350  0.99840  Biso   1.000  C
  C15      1.0000 0.21490  0.15650  0.00160  Biso   1.000  C
  C16      1.0000 0.28510  0.84350  0.00160  Biso   1.000  C
  H9       1.0000 0.17310  0.91210  0.98570  Biso   1.000  H
  H10      1.0000 0.32690  0.08790  0.98570  Biso   1.000  H
  H11      1.0000 0.82690  0.91210  0.01430  Biso   1.000  H
  H12      1.0000 0.67310  0.08790  0.01430  Biso   1.000  H
  H13      1.0000 0.82690  0.08790  0.01430  Biso   1.000  H
  H14      1.0000 0.67310  0.91210  0.01430  Biso   1.000  H
  H15      1.0000 0.17310  0.08790  0.98570  Biso   1.000  H
  H16      1.0000 0.32690  0.91210  0.98570  Biso   1.000  H
  C17      1.0000 0.25000  0.77180  0.90570  Biso   1.000  C
  C18      1.0000 0.25000  0.22820  0.90570  Biso   1.000  C
  C19      1.0000 0.75000  0.77180  0.09430  Biso   1.000  C
  C20      1.0000 0.75000  0.22820  0.09430  Biso   1.000  C
  H17      1.0000 0.21150  0.77710  0.81550  Biso   1.000  H
  H18      1.0000 0.28850  0.22290  0.81550  Biso   1.000  H
  H19      1.0000 0.78850  0.77710  0.18450  Biso   1.000  H
  H20      1.0000 0.71150  0.22290  0.18450  Biso   1.000  H
  H21      1.0000 0.78850  0.22290  0.18450  Biso   1.000  H
  H22      1.0000 0.71150  0.77710  0.18450  Biso   1.000  H
  H23      1.0000 0.21150  0.22290  0.81550  Biso   1.000  H
  H24      1.0000 0.28850  0.77710  0.81550  Biso   1.000  H
  C21      1.0000 0.49080  0.50000  0.72960  Biso   1.000  C
  C22      1.0000 0.00920  0.50000  0.72960  Biso   1.000  C
  C23      1.0000 0.50920  0.50000  0.27040  Biso   1.000  C
  C24      1.0000 0.99080  0.50000  0.27040  Biso   1.000  C
  H25      1.0000 0.53910  0.50000  0.64580  Biso   1.000  H
  H26      1.0000 0.96090  0.50000  0.64580  Biso   1.000  H
  H27      1.0000 0.46090  0.50000  0.35420  Biso   1.000  H
  H28      1.0000 0.03910  0.50000  0.35420  Biso   1.000  H
  C25      1.0000 0.45390  0.59430  0.79360  Biso   1.000  C
  C26      1.0000 0.04610  0.40570  0.79360  Biso   1.000  C
  C27      1.0000 0.54610  0.59430  0.20640  Biso   1.000  C
  C28      1.0000 0.95390  0.40570  0.20640  Biso   1.000  C
  C29      1.0000 0.54610  0.40570  0.20640  Biso   1.000  C
  C30      1.0000 0.95390  0.59430  0.20640  Biso   1.000  C
  C31      1.0000 0.45390  0.40570  0.79360  Biso   1.000  C
  C32      1.0000 0.04610  0.59430  0.79360  Biso   1.000  C
  H29      1.0000 0.48770  0.65940  0.75560  Biso   1.000  H
  H30      1.0000 0.01230  0.34060  0.75560  Biso   1.000  H
  H31      1.0000 0.51230  0.65940  0.24440  Biso   1.000  H
  H32      1.0000 0.98770  0.34060  0.24440  Biso   1.000  H
  H33      1.0000 0.51230  0.34060  0.24440  Biso   1.000  H
  H34      1.0000 0.98770  0.65940  0.24440  Biso   1.000  H
  H35      1.0000 0.48770  0.34060  0.75560  Biso   1.000  H
  H36      1.0000 0.01230  0.65940  0.75560  Biso   1.000  H
  C33      1.0000 0.36930  0.59250  0.91060  Biso   1.000  C
  C34      1.0000 0.13070  0.40750  0.91060  Biso   1.000  C
  C35      1.0000 0.63070  0.59250  0.08940  Biso   1.000  C
  C36      1.0000 0.86930  0.40750  0.08940  Biso   1.000  C
  C37      1.0000 0.63070  0.40750  0.08940  Biso   1.000  C
  C38      1.0000 0.86930  0.59250  0.08940  Biso   1.000  C
  C39      1.0000 0.36930  0.40750  0.91060  Biso   1.000  C
  C40      1.0000 0.13070  0.59250  0.91060  Biso   1.000  C
  C41      1.0000 0.32570  0.50000  0.96770  Biso   1.000  C
  C42      1.0000 0.17430  0.50000  0.96770  Biso   1.000  C
  C43      1.0000 0.67430  0.50000  0.03230  Biso   1.000  C
  C44      1.0000 0.82570  0.50000  0.03230  Biso   1.000  C
  H37      1.0000 0.25000  0.50000  0.04910  Biso   1.000  H
  H38      1.0000 0.75000  0.50000  0.95090  Biso   1.000  H
  N1       1.0000 0.25000  0.80140  0.12510  Biso   1.000  N
  N2       1.0000 0.25000  0.19860  0.12510  Biso   1.000  N
  N3       1.0000 0.75000  0.80140  0.87490  Biso   1.000  N
  N4       1.0000 0.75000  0.19860  0.87490  Biso   1.000  N
  N5       1.0000 0.31860  0.68780  0.97020  Biso   1.000  N
  N6       1.0000 0.18140  0.31220  0.97020  Biso   1.000  N
  N7       1.0000 0.68140  0.68780  0.02980  Biso   1.000  N
  N8       1.0000 0.81860  0.31220  0.02980  Biso   1.000  N
  N9       1.0000 0.68140  0.31220  0.02980  Biso   1.000  N
  N10      1.0000 0.81860  0.68780  0.02980  Biso   1.000  N
  N11      1.0000 0.31860  0.31220  0.97020  Biso   1.000  N
  N12      1.0000 0.18140  0.68780  0.97020  Biso   1.000  N
