data_image0
_cell_length_a       4.2896
_cell_length_b       10.405
_cell_length_c       12.346
_cell_angle_alpha    110.327
_cell_angle_beta     95.585
_cell_angle_gamma    92.3

_symmetry_space_group_name_H-M    "P 1"
_symmetry_int_tables_number       1

loop_
  _symmetry_equiv_pos_as_xyz
  'x, y, z'

loop_
  _atom_site_label
  _atom_site_occupancy
  _atom_site_fract_x
  _atom_site_fract_y
  _atom_site_fract_z
  _atom_site_thermal_displace_type
  _atom_site_B_iso_or_equiv
  _atom_site_type_symbol
  Cu1      1.0000 0.52770  0.12176  0.84258  Biso   1.000  Cu
  Cu2      1.0000 0.47230  0.87824  0.15742  Biso   1.000  Cu
  Cu3      1.0000 0.01380  0.06160  0.14610  Biso   1.000  Cu
  Cu4      1.0000 0.98620  0.93840  0.85390  Biso   1.000  Cu
  I1       1.0000 0.03580  0.19675  0.99751  Biso   1.000  I
  I2       1.0000 0.96420  0.80325  0.00249  Biso   1.000  I
  I3       1.0000 0.43521  0.86271  0.71767  Biso   1.000  I
  I4       1.0000 0.56479  0.13729  0.28233  Biso   1.000  I
  C1       1.0000 0.06330  0.15690  0.60830  Biso   1.000  C
  C2       1.0000 0.93670  0.84310  0.39170  Biso   1.000  C
  H1       1.0000 0.83900  0.15300  0.61740  Biso   1.000  H
  H2       1.0000 0.16100  0.84700  0.38260  Biso   1.000  H
  H3       1.0000 0.15200  0.07360  0.61350  Biso   1.000  H
  H4       1.0000 0.84800  0.92640  0.38650  Biso   1.000  H
  H5       1.0000 0.09010  0.16330  0.53240  Biso   1.000  H
  H6       1.0000 0.90990  0.83670  0.46760  Biso   1.000  H
  C3       1.0000 0.22630  0.27820  0.70100  Biso   1.000  C
  C4       1.0000 0.77370  0.72180  0.29900  Biso   1.000  C
  C5       1.0000 0.53890  0.41090  0.85080  Biso   1.000  C
  C6       1.0000 0.46110  0.58910  0.14920  Biso   1.000  C
  H7       1.0000 0.69530  0.44060  0.91620  Biso   1.000  H
  H8       1.0000 0.30470  0.55940  0.08380  Biso   1.000  H
  C7       1.0000 0.37660  0.49420  0.80800  Biso   1.000  C
  C8       1.0000 0.62340  0.50580  0.19200  Biso   1.000  C
  H9       1.0000 0.39530  0.59190  0.83720  Biso   1.000  H
  H10      1.0000 0.60470  0.40810  0.16280  Biso   1.000  H
  C9       1.0000 0.96080  0.45690  0.63880  Biso   1.000  C
  C10      1.0000 0.03920  0.54310  0.36120  Biso   1.000  C
  H11      1.0000 0.88980  0.54660  0.68550  Biso   1.000  H
  H12      1.0000 0.11020  0.45340  0.31450  Biso   1.000  H
  H13      1.0000 0.77370  0.39030  0.60890  Biso   1.000  H
  H14      1.0000 0.22630  0.60970  0.39110  Biso   1.000  H
  C11      1.0000 0.11080  0.47180  0.53670  Biso   1.000  C
  C12      1.0000 0.88920  0.52820  0.46330  Biso   1.000  C
  H15      1.0000 0.30440  0.53450  0.56640  Biso   1.000  H
  H16      1.0000 0.69560  0.46550  0.43360  Biso   1.000  H
  H17      1.0000 0.17090  0.38100  0.48750  Biso   1.000  H
  H18      1.0000 0.82910  0.61900  0.51250  Biso   1.000  H
  N1       1.0000 0.44310  0.27560  0.78510  Biso   1.000  N
  N2       1.0000 0.55690  0.72440  0.21490  Biso   1.000  N
  N3       1.0000 0.17860  0.40980  0.71360  Biso   1.000  N
  N4       1.0000 0.82140  0.59020  0.28640  Biso   1.000  N
