data_image0
_cell_length_a       3.7738
_cell_length_b       12.8533
_cell_length_c       12.7034
_cell_angle_alpha    90
_cell_angle_beta     90.711
_cell_angle_gamma    90

_symmetry_space_group_name_H-M    "P 1"
_symmetry_int_tables_number       1

loop_
  _symmetry_equiv_pos_as_xyz
  'x, y, z'

loop_
  _atom_site_label
  _atom_site_occupancy
  _atom_site_fract_x
  _atom_site_fract_y
  _atom_site_fract_z
  _atom_site_thermal_displace_type
  _atom_site_B_iso_or_equiv
  _atom_site_type_symbol
  Cu1      1.0000 0.54440  0.34805  0.31868  Biso   1.000  Cu
  Cu2      1.0000 0.54440  0.15195  0.81868  Biso   1.000  Cu
  Cu3      1.0000 0.45560  0.65195  0.68132  Biso   1.000  Cu
  Cu4      1.0000 0.45560  0.84805  0.18132  Biso   1.000  Cu
  Cl1      1.0000 0.04472  0.46076  0.31864  Biso   1.000  Cl
  Cl2      1.0000 0.04472  0.03924  0.81864  Biso   1.000  Cl
  Cl3      1.0000 0.95528  0.53924  0.68136  Biso   1.000  Cl
  Cl4      1.0000 0.95528  0.96076  0.18136  Biso   1.000  Cl
  N1       1.0000 0.53030  0.28346  0.46402  Biso   1.000  N
  N2       1.0000 0.53030  0.21654  0.96402  Biso   1.000  N
  N3       1.0000 0.46970  0.71654  0.53598  Biso   1.000  N
  N4       1.0000 0.46970  0.78346  0.03598  Biso   1.000  N
  C1       1.0000 0.65340  0.18982  0.49137  Biso   1.000  C
  C2       1.0000 0.65340  0.31018  0.99137  Biso   1.000  C
  C3       1.0000 0.34660  0.81018  0.50863  Biso   1.000  C
  C4       1.0000 0.34660  0.68982  0.00863  Biso   1.000  C
  C5       1.0000 0.66710  0.15510  0.59445  Biso   1.000  C
  C6       1.0000 0.66710  0.34490  0.09445  Biso   1.000  C
  C7       1.0000 0.33290  0.84490  0.40555  Biso   1.000  C
  C8       1.0000 0.33290  0.65510  0.90555  Biso   1.000  C
  H1       1.0000 0.75830  0.08940  0.60920  Biso   1.000  H
  H2       1.0000 0.75830  0.41060  0.10920  Biso   1.000  H
  H3       1.0000 0.24170  0.91060  0.39080  Biso   1.000  H
  H4       1.0000 0.24170  0.58940  0.89080  Biso   1.000  H
  N5       1.0000 0.55100  0.21477  0.67324  Biso   1.000  N
  N6       1.0000 0.55100  0.28523  0.17324  Biso   1.000  N
  N7       1.0000 0.44900  0.78523  0.32676  Biso   1.000  N
  N8       1.0000 0.44900  0.71477  0.82676  Biso   1.000  N
  C9       1.0000 0.42460  0.30879  0.64714  Biso   1.000  C
  C10      1.0000 0.42460  0.19121  0.14714  Biso   1.000  C
  C11      1.0000 0.57540  0.69121  0.35286  Biso   1.000  C
  C12      1.0000 0.57540  0.80879  0.85286  Biso   1.000  C
  H5       1.0000 0.34270  0.35250  0.69990  Biso   1.000  H
  H6       1.0000 0.34270  0.14750  0.19990  Biso   1.000  H
  H7       1.0000 0.65730  0.64750  0.30010  Biso   1.000  H
  H8       1.0000 0.65730  0.85250  0.80010  Biso   1.000  H
  C13      1.0000 0.41280  0.34271  0.54357  Biso   1.000  C
  C14      1.0000 0.41280  0.15729  0.04357  Biso   1.000  C
  C15      1.0000 0.58720  0.65729  0.45643  Biso   1.000  C
  C16      1.0000 0.58720  0.84271  0.95643  Biso   1.000  C
  H9       1.0000 0.32110  0.40830  0.52870  Biso   1.000  H
  H10      1.0000 0.32110  0.09170  0.02870  Biso   1.000  H
  H11      1.0000 0.67890  0.59170  0.47130  Biso   1.000  H
  H12      1.0000 0.67890  0.90830  0.97130  Biso   1.000  H
  Cl5      1.0000 0.79681  0.10965  0.39202  Biso   1.000  Cl
  Cl6      1.0000 0.79681  0.39035  0.89202  Biso   1.000  Cl
  Cl7      1.0000 0.20319  0.89035  0.60798  Biso   1.000  Cl
  Cl8      1.0000 0.20319  0.60965  0.10798  Biso   1.000  Cl
