data_image0
_cell_length_a       4.1128
_cell_length_b       10.4824
_cell_length_c       17.985
_cell_angle_alpha    90
_cell_angle_beta     90
_cell_angle_gamma    90

_symmetry_space_group_name_H-M    "P 1"
_symmetry_int_tables_number       1

loop_
  _symmetry_equiv_pos_as_xyz
  'x, y, z'

loop_
  _atom_site_label
  _atom_site_occupancy
  _atom_site_fract_x
  _atom_site_fract_y
  _atom_site_fract_z
  _atom_site_thermal_displace_type
  _atom_site_B_iso_or_equiv
  _atom_site_type_symbol
  I1       1.0000 0.58653  0.36074  0.41068  Biso   1.000  I
  I2       1.0000 0.91347  0.63926  0.91068  Biso   1.000  I
  I3       1.0000 0.41347  0.86074  0.08932  Biso   1.000  I
  I4       1.0000 0.08653  0.13926  0.58932  Biso   1.000  I
  Cu1      1.0000 0.58770  0.28167  0.54915  Biso   1.000  Cu
  Cu2      1.0000 0.91230  0.71833  0.04915  Biso   1.000  Cu
  Cu3      1.0000 0.41230  0.78167  0.95085  Biso   1.000  Cu
  Cu4      1.0000 0.08770  0.21833  0.45085  Biso   1.000  Cu
  N1       1.0000 0.57560  0.44330  0.61510  Biso   1.000  N
  N2       1.0000 0.92440  0.55670  0.11510  Biso   1.000  N
  N3       1.0000 0.42440  0.94330  0.88490  Biso   1.000  N
  N4       1.0000 0.07560  0.05670  0.38490  Biso   1.000  N
  C1       1.0000 0.47450  0.43580  0.68490  Biso   1.000  C
  C2       1.0000 0.02550  0.56420  0.18490  Biso   1.000  C
  C3       1.0000 0.52550  0.93580  0.81510  Biso   1.000  C
  C4       1.0000 0.97450  0.06420  0.31510  Biso   1.000  C
  H1       1.0000 0.41080  0.35730  0.70420  Biso   1.000  H
  H2       1.0000 0.08920  0.64270  0.20420  Biso   1.000  H
  H3       1.0000 0.58920  0.85730  0.79580  Biso   1.000  H
  H4       1.0000 0.91080  0.14270  0.29580  Biso   1.000  H
  C5       1.0000 0.67080  0.55690  0.58950  Biso   1.000  C
  C6       1.0000 0.82920  0.44310  0.08950  Biso   1.000  C
  C7       1.0000 0.32920  0.05690  0.91050  Biso   1.000  C
  C8       1.0000 0.17080  0.94310  0.41050  Biso   1.000  C
  H5       1.0000 0.74840  0.56550  0.54120  Biso   1.000  H
  H6       1.0000 0.75160  0.43450  0.04120  Biso   1.000  H
  H7       1.0000 0.25160  0.06550  0.95880  Biso   1.000  H
  H8       1.0000 0.24840  0.93450  0.45880  Biso   1.000  H
  C9       1.0000 0.65170  0.66180  0.63630  Biso   1.000  C
  C10      1.0000 0.84830  0.33820  0.13630  Biso   1.000  C
  C11      1.0000 0.34830  0.16180  0.86370  Biso   1.000  C
  C12      1.0000 0.15170  0.83820  0.36370  Biso   1.000  C
  N5       1.0000 0.54980  0.65740  0.70470  Biso   1.000  N
  N6       1.0000 0.95020  0.34260  0.20470  Biso   1.000  N
  N7       1.0000 0.45020  0.15740  0.79530  Biso   1.000  N
  N8       1.0000 0.04980  0.84260  0.29530  Biso   1.000  N
  C13      1.0000 0.46300  0.54250  0.72920  Biso   1.000  C
  C14      1.0000 0.03700  0.45750  0.22920  Biso   1.000  C
  C15      1.0000 0.53700  0.04250  0.77080  Biso   1.000  C
  C16      1.0000 0.96300  0.95750  0.27080  Biso   1.000  C
  H9       1.0000 0.39110  0.53410  0.77800  Biso   1.000  H
  H10      1.0000 0.10890  0.46590  0.27800  Biso   1.000  H
  H11      1.0000 0.60890  0.03410  0.72200  Biso   1.000  H
  H12      1.0000 0.89110  0.96590  0.22200  Biso   1.000  H
  Cl1      1.0000 0.77690  0.80804  0.60279  Biso   1.000  Cl
  Cl2      1.0000 0.72310  0.19196  0.10279  Biso   1.000  Cl
  Cl3      1.0000 0.22310  0.30804  0.89721  Biso   1.000  Cl
  Cl4      1.0000 0.27690  0.69196  0.39721  Biso   1.000  Cl
