data_image0
_cell_length_a       3.9068
_cell_length_b       13.1594
_cell_length_c       12.7652
_cell_angle_alpha    90
_cell_angle_beta     90.53
_cell_angle_gamma    90

_symmetry_space_group_name_H-M    "P 1"
_symmetry_int_tables_number       1

loop_
  _symmetry_equiv_pos_as_xyz
  'x, y, z'

loop_
  _atom_site_label
  _atom_site_occupancy
  _atom_site_fract_x
  _atom_site_fract_y
  _atom_site_fract_z
  _atom_site_thermal_displace_type
  _atom_site_B_iso_or_equiv
  _atom_site_type_symbol
  Cu1      1.0000 0.44846  0.34308  0.32134  Biso   1.000  Cu
  Cu2      1.0000 0.44846  0.15692  0.82134  Biso   1.000  Cu
  Cu3      1.0000 0.55154  0.65692  0.67866  Biso   1.000  Cu
  Cu4      1.0000 0.55154  0.84308  0.17866  Biso   1.000  Cu
  Br1      1.0000 0.94852  0.46013  0.32130  Biso   1.000  Br
  Br2      1.0000 0.94852  0.03987  0.82130  Biso   1.000  Br
  Br3      1.0000 0.05148  0.53987  0.67870  Biso   1.000  Br
  Br4      1.0000 0.05148  0.96013  0.17870  Biso   1.000  Br
  Cl1      1.0000 0.20250  0.10955  0.39379  Biso   1.000  Cl
  Cl2      1.0000 0.20250  0.39045  0.89379  Biso   1.000  Cl
  Cl3      1.0000 0.79750  0.89045  0.60621  Biso   1.000  Cl
  Cl4      1.0000 0.79750  0.60955  0.10621  Biso   1.000  Cl
  N1       1.0000 0.46530  0.28070  0.46650  Biso   1.000  N
  N2       1.0000 0.46530  0.21930  0.96650  Biso   1.000  N
  N3       1.0000 0.53470  0.71930  0.53350  Biso   1.000  N
  N4       1.0000 0.53470  0.78070  0.03350  Biso   1.000  N
  C1       1.0000 0.34460  0.19060  0.49390  Biso   1.000  C
  C2       1.0000 0.34460  0.30940  0.99390  Biso   1.000  C
  C3       1.0000 0.65540  0.80940  0.50610  Biso   1.000  C
  C4       1.0000 0.65540  0.69060  0.00610  Biso   1.000  C
  C5       1.0000 0.32850  0.15710  0.59660  Biso   1.000  C
  C6       1.0000 0.32850  0.34290  0.09660  Biso   1.000  C
  C7       1.0000 0.67150  0.84290  0.40340  Biso   1.000  C
  C8       1.0000 0.67150  0.65710  0.90340  Biso   1.000  C
  H1       1.0000 0.23830  0.09330  0.61130  Biso   1.000  H
  H2       1.0000 0.23830  0.40670  0.11130  Biso   1.000  H
  H3       1.0000 0.76170  0.90670  0.38870  Biso   1.000  H
  H4       1.0000 0.76170  0.59330  0.88870  Biso   1.000  H
  C9       1.0000 0.56530  0.30650  0.64940  Biso   1.000  C
  C10      1.0000 0.56530  0.19350  0.14940  Biso   1.000  C
  C11      1.0000 0.43470  0.69350  0.35060  Biso   1.000  C
  C12      1.0000 0.43470  0.80650  0.85060  Biso   1.000  C
  H5       1.0000 0.64550  0.34940  0.70210  Biso   1.000  H
  H6       1.0000 0.64550  0.15060  0.20210  Biso   1.000  H
  H7       1.0000 0.35450  0.65060  0.29790  Biso   1.000  H
  H8       1.0000 0.35450  0.84940  0.79790  Biso   1.000  H
  C13      1.0000 0.57790  0.33960  0.54560  Biso   1.000  C
  C14      1.0000 0.57790  0.16040  0.04560  Biso   1.000  C
  C15      1.0000 0.42210  0.66040  0.45440  Biso   1.000  C
  C16      1.0000 0.42210  0.83960  0.95440  Biso   1.000  C
  H9       1.0000 0.66610  0.40360  0.53090  Biso   1.000  H
  H10      1.0000 0.66610  0.09640  0.03090  Biso   1.000  H
  H11      1.0000 0.33390  0.59640  0.46910  Biso   1.000  H
  H12      1.0000 0.33390  0.90360  0.96910  Biso   1.000  H
  N5       1.0000 0.44310  0.21650  0.67510  Biso   1.000  N
  N6       1.0000 0.44310  0.28350  0.17510  Biso   1.000  N
  N7       1.0000 0.55690  0.78350  0.32490  Biso   1.000  N
  N8       1.0000 0.55690  0.71650  0.82490  Biso   1.000  N
