data_image0
_cell_length_a       10.7383
_cell_length_b       15.1497
_cell_length_c       10.7339
_cell_angle_alpha    90
_cell_angle_beta     117.971
_cell_angle_gamma    90

_symmetry_space_group_name_H-M    "P 1"
_symmetry_int_tables_number       1

loop_
  _symmetry_equiv_pos_as_xyz
  'x, y, z'

loop_
  _atom_site_label
  _atom_site_occupancy
  _atom_site_fract_x
  _atom_site_fract_y
  _atom_site_fract_z
  _atom_site_thermal_displace_type
  _atom_site_B_iso_or_equiv
  _atom_site_type_symbol
  Cu1      1.0000 0.50000  0.60115  0.50000  Biso   1.000  Cu
  Cu2      1.0000 0.00000  0.10115  0.50000  Biso   1.000  Cu
  Cu3      1.0000 0.50000  0.39885  0.50000  Biso   1.000  Cu
  Cu4      1.0000 0.00000  0.89885  0.50000  Biso   1.000  Cu
  Cl1      1.0000 0.69720  0.50000  0.60570  Biso   1.000  Cl
  Cl2      1.0000 0.30280  0.50000  0.39430  Biso   1.000  Cl
  Cl3      1.0000 0.19720  0.00000  0.60570  Biso   1.000  Cl
  Cl4      1.0000 0.80280  0.00000  0.39430  Biso   1.000  Cl
  N1       1.0000 0.50940  0.67570  0.66290  Biso   1.000  N
  N2       1.0000 0.49060  0.67570  0.33710  Biso   1.000  N
  N3       1.0000 0.00940  0.17570  0.66290  Biso   1.000  N
  N4       1.0000 0.99060  0.17570  0.33710  Biso   1.000  N
  N5       1.0000 0.49060  0.32430  0.33710  Biso   1.000  N
  N6       1.0000 0.50940  0.32430  0.66290  Biso   1.000  N
  N7       1.0000 0.99060  0.82430  0.33710  Biso   1.000  N
  N8       1.0000 0.00940  0.82430  0.66290  Biso   1.000  N
  N9       1.0000 0.50000  0.81330  0.00000  Biso   1.000  N
  N10      1.0000 0.00000  0.31330  0.00000  Biso   1.000  N
  N11      1.0000 0.50000  0.18670  0.00000  Biso   1.000  N
  N12      1.0000 0.00000  0.68670  0.00000  Biso   1.000  N
  C1       1.0000 0.43760  0.75080  0.64260  Biso   1.000  C
  C2       1.0000 0.56240  0.75080  0.35740  Biso   1.000  C
  C3       1.0000 0.93760  0.25080  0.64260  Biso   1.000  C
  C4       1.0000 0.06240  0.25080  0.35740  Biso   1.000  C
  C5       1.0000 0.56240  0.24920  0.35740  Biso   1.000  C
  C6       1.0000 0.43760  0.24920  0.64260  Biso   1.000  C
  C7       1.0000 0.06240  0.74920  0.35740  Biso   1.000  C
  C8       1.0000 0.93760  0.74920  0.64260  Biso   1.000  C
  H1       1.0000 0.38880  0.77220  0.55090  Biso   1.000  H
  H2       1.0000 0.61120  0.77220  0.44910  Biso   1.000  H
  H3       1.0000 0.88880  0.27220  0.55090  Biso   1.000  H
  H4       1.0000 0.11120  0.27220  0.44910  Biso   1.000  H
  H5       1.0000 0.61120  0.22780  0.44910  Biso   1.000  H
  H6       1.0000 0.38880  0.22780  0.55090  Biso   1.000  H
  H7       1.0000 0.11120  0.72780  0.44910  Biso   1.000  H
  H8       1.0000 0.88880  0.72780  0.55090  Biso   1.000  H
  C9       1.0000 0.43070  0.79890  0.74830  Biso   1.000  C
  C10      1.0000 0.56930  0.79890  0.25170  Biso   1.000  C
  C11      1.0000 0.93070  0.29890  0.74830  Biso   1.000  C
  C12      1.0000 0.06930  0.29890  0.25170  Biso   1.000  C
  C13      1.0000 0.56930  0.20110  0.25170  Biso   1.000  C
  C14      1.0000 0.43070  0.20110  0.74830  Biso   1.000  C
  C15      1.0000 0.06930  0.70110  0.25170  Biso   1.000  C
  C16      1.0000 0.93070  0.70110  0.74830  Biso   1.000  C
  H9       1.0000 0.37940  0.85110  0.72830  Biso   1.000  H
  H10      1.0000 0.62060  0.85110  0.27170  Biso   1.000  H
  H11      1.0000 0.87940  0.35110  0.72830  Biso   1.000  H
  H12      1.0000 0.12060  0.35110  0.27170  Biso   1.000  H
  H13      1.0000 0.62060  0.14890  0.27170  Biso   1.000  H
  H14      1.0000 0.37940  0.14890  0.72830  Biso   1.000  H
  H15      1.0000 0.12060  0.64890  0.27170  Biso   1.000  H
  H16      1.0000 0.87940  0.64890  0.72830  Biso   1.000  H
  C17      1.0000 0.50290  0.76690  0.88650  Biso   1.000  C
  C18      1.0000 0.49710  0.76690  0.11350  Biso   1.000  C
  C19      1.0000 0.00290  0.26690  0.88650  Biso   1.000  C
  C20      1.0000 0.99710  0.26690  0.11350  Biso   1.000  C
  C21      1.0000 0.49710  0.23310  0.11350  Biso   1.000  C
  C22      1.0000 0.50290  0.23310  0.88650  Biso   1.000  C
  C23      1.0000 0.99710  0.73310  0.11350  Biso   1.000  C
  C24      1.0000 0.00290  0.73310  0.88650  Biso   1.000  C
  C25      1.0000 0.57710  0.68940  0.90870  Biso   1.000  C
  C26      1.0000 0.42290  0.68940  0.09130  Biso   1.000  C
  C27      1.0000 0.07710  0.18940  0.90870  Biso   1.000  C
  C28      1.0000 0.92290  0.18940  0.09130  Biso   1.000  C
  C29      1.0000 0.42290  0.31060  0.09130  Biso   1.000  C
  C30      1.0000 0.57710  0.31060  0.90870  Biso   1.000  C
  C31      1.0000 0.92290  0.81060  0.09130  Biso   1.000  C
  C32      1.0000 0.07710  0.81060  0.90870  Biso   1.000  C
  H17      1.0000 0.62570  0.66600  0.99910  Biso   1.000  H
  H18      1.0000 0.37430  0.66600  0.00090  Biso   1.000  H
  H19      1.0000 0.12570  0.16600  0.99910  Biso   1.000  H
  H20      1.0000 0.87430  0.16600  0.00090  Biso   1.000  H
  H21      1.0000 0.37430  0.33400  0.00090  Biso   1.000  H
  H22      1.0000 0.62570  0.33400  0.99910  Biso   1.000  H
  H23      1.0000 0.87430  0.83400  0.00090  Biso   1.000  H
  H24      1.0000 0.12570  0.83400  0.99910  Biso   1.000  H
  C33      1.0000 0.57920  0.64660  0.79690  Biso   1.000  C
  C34      1.0000 0.42080  0.64660  0.20310  Biso   1.000  C
  C35      1.0000 0.07920  0.14660  0.79690  Biso   1.000  C
  C36      1.0000 0.92080  0.14660  0.20310  Biso   1.000  C
  C37      1.0000 0.42080  0.35340  0.20310  Biso   1.000  C
  C38      1.0000 0.57920  0.35340  0.79690  Biso   1.000  C
  C39      1.0000 0.92080  0.85340  0.20310  Biso   1.000  C
  C40      1.0000 0.07920  0.85340  0.79690  Biso   1.000  C
  H25      1.0000 0.63160  0.59500  0.81460  Biso   1.000  H
  H26      1.0000 0.36840  0.59500  0.18540  Biso   1.000  H
  H27      1.0000 0.13160  0.09500  0.81460  Biso   1.000  H
  H28      1.0000 0.86840  0.09500  0.18540  Biso   1.000  H
  H29      1.0000 0.36840  0.40500  0.18540  Biso   1.000  H
  H30      1.0000 0.63160  0.40500  0.81460  Biso   1.000  H
  H31      1.0000 0.86840  0.90500  0.18540  Biso   1.000  H
  H32      1.0000 0.13160  0.90500  0.81460  Biso   1.000  H
  C41      1.0000 0.50000  0.90800  0.00000  Biso   1.000  C
  C42      1.0000 0.00000  0.40800  0.00000  Biso   1.000  C
  C43      1.0000 0.50000  0.09200  0.00000  Biso   1.000  C
  C44      1.0000 0.00000  0.59200  0.00000  Biso   1.000  C
  C45      1.0000 0.58610  0.95410  0.95850  Biso   1.000  C
  C46      1.0000 0.41390  0.95410  0.04150  Biso   1.000  C
  C47      1.0000 0.08610  0.45410  0.95850  Biso   1.000  C
  C48      1.0000 0.91390  0.45410  0.04150  Biso   1.000  C
  C49      1.0000 0.41390  0.04590  0.04150  Biso   1.000  C
  C50      1.0000 0.58610  0.04590  0.95850  Biso   1.000  C
  C51      1.0000 0.91390  0.54590  0.04150  Biso   1.000  C
  C52      1.0000 0.08610  0.54590  0.95850  Biso   1.000  C
  H33      1.0000 0.64400  0.92360  0.93060  Biso   1.000  H
  H34      1.0000 0.35600  0.92360  0.06940  Biso   1.000  H
  H35      1.0000 0.14400  0.42360  0.93060  Biso   1.000  H
  H36      1.0000 0.85600  0.42360  0.06940  Biso   1.000  H
  H37      1.0000 0.35600  0.07640  0.06940  Biso   1.000  H
  H38      1.0000 0.64400  0.07640  0.93060  Biso   1.000  H
  H39      1.0000 0.85600  0.57640  0.06940  Biso   1.000  H
  H40      1.0000 0.14400  0.57640  0.93060  Biso   1.000  H
  S1       1.0000 0.67780  0.50000  0.24960  Biso   1.000  S
  S2       1.0000 0.32220  0.50000  0.75040  Biso   1.000  S
  S3       1.0000 0.17780  0.00000  0.24960  Biso   1.000  S
  S4       1.0000 0.82220  0.00000  0.75040  Biso   1.000  S
  O1       1.0000 0.65810  0.50000  0.10070  Biso   1.000  O
  O2       1.0000 0.34190  0.50000  0.89930  Biso   1.000  O
  O3       1.0000 0.15810  0.00000  0.10070  Biso   1.000  O
  O4       1.0000 0.84190  0.00000  0.89930  Biso   1.000  O
  C53      1.0000 0.79750  0.58510  0.33960  Biso   1.000  C
  C54      1.0000 0.20250  0.58510  0.66040  Biso   1.000  C
  C55      1.0000 0.29750  0.08510  0.33960  Biso   1.000  C
  C56      1.0000 0.70250  0.08510  0.66040  Biso   1.000  C
  C57      1.0000 0.20250  0.41490  0.66040  Biso   1.000  C
  C58      1.0000 0.79750  0.41490  0.33960  Biso   1.000  C
  C59      1.0000 0.70250  0.91490  0.66040  Biso   1.000  C
  C60      1.0000 0.29750  0.91490  0.33960  Biso   1.000  C
  H41      1.0000 0.88330  0.57570  0.33420  Biso   1.000  H
  H42      1.0000 0.11670  0.57570  0.66580  Biso   1.000  H
  H43      1.0000 0.38330  0.07570  0.33420  Biso   1.000  H
  H44      1.0000 0.61670  0.07570  0.66580  Biso   1.000  H
  H45      1.0000 0.11670  0.42430  0.66580  Biso   1.000  H
  H46      1.0000 0.88330  0.42430  0.33420  Biso   1.000  H
  H47      1.0000 0.61670  0.92430  0.66580  Biso   1.000  H
  H48      1.0000 0.38330  0.92430  0.33420  Biso   1.000  H
  H49      1.0000 0.81750  0.58540  0.43660  Biso   1.000  H
  H50      1.0000 0.18250  0.58540  0.56340  Biso   1.000  H
  H51      1.0000 0.31750  0.08540  0.43660  Biso   1.000  H
  H52      1.0000 0.68250  0.08540  0.56340  Biso   1.000  H
  H53      1.0000 0.18250  0.41460  0.56340  Biso   1.000  H
  H54      1.0000 0.81750  0.41460  0.43660  Biso   1.000  H
  H55      1.0000 0.68250  0.91460  0.56340  Biso   1.000  H
  H56      1.0000 0.31750  0.91460  0.43660  Biso   1.000  H
  H57      1.0000 0.75720  0.64080  0.29710  Biso   1.000  H
  H58      1.0000 0.24280  0.64080  0.70290  Biso   1.000  H
  H59      1.0000 0.25720  0.14080  0.29710  Biso   1.000  H
  H60      1.0000 0.74280  0.14080  0.70290  Biso   1.000  H
  H61      1.0000 0.24280  0.35920  0.70290  Biso   1.000  H
  H62      1.0000 0.75720  0.35920  0.29710  Biso   1.000  H
  H63      1.0000 0.74280  0.85920  0.70290  Biso   1.000  H
  H64      1.0000 0.25720  0.85920  0.29710  Biso   1.000  H
