data_image0
_cell_length_a       7.6592
_cell_length_b       14.613
_cell_length_c       20.536
_cell_angle_alpha    90
_cell_angle_beta     93.188
_cell_angle_gamma    90

_symmetry_space_group_name_H-M    "P 1"
_symmetry_int_tables_number       1

loop_
  _symmetry_equiv_pos_as_xyz
  'x, y, z'

loop_
  _atom_site_label
  _atom_site_occupancy
  _atom_site_fract_x
  _atom_site_fract_y
  _atom_site_fract_z
  _atom_site_thermal_displace_type
  _atom_site_B_iso_or_equiv
  _atom_site_type_symbol
  Cu1      1.0000 0.20879  0.59863  0.24139  Biso   1.000  Cu
  Cu2      1.0000 0.29121  0.09863  0.25861  Biso   1.000  Cu
  Cu3      1.0000 0.79121  0.40137  0.75861  Biso   1.000  Cu
  Cu4      1.0000 0.70879  0.90137  0.74139  Biso   1.000  Cu
  I1       1.0000 0.00585  0.48840  0.17632  Biso   1.000  I
  I2       1.0000 0.49415  0.98840  0.32368  Biso   1.000  I
  I3       1.0000 0.99415  0.51160  0.82368  Biso   1.000  I
  I4       1.0000 0.50585  0.01160  0.67632  Biso   1.000  I
  N1       1.0000 0.85950  0.41306  0.38567  Biso   1.000  N
  N2       1.0000 0.64050  0.91306  0.11433  Biso   1.000  N
  N3       1.0000 0.14050  0.58694  0.61433  Biso   1.000  N
  N4       1.0000 0.35950  0.08694  0.88567  Biso   1.000  N
  N5       1.0000 0.14180  0.19213  0.31025  Biso   1.000  N
  N6       1.0000 0.35820  0.69213  0.18975  Biso   1.000  N
  N7       1.0000 0.85820  0.80787  0.68975  Biso   1.000  N
  N8       1.0000 0.64180  0.30787  0.81025  Biso   1.000  N
  N9       1.0000 0.39890  0.52581  0.29650  Biso   1.000  N
  N10      1.0000 0.10110  0.02581  0.20350  Biso   1.000  N
  N11      1.0000 0.60110  0.47419  0.70350  Biso   1.000  N
  N12      1.0000 0.89890  0.97419  0.79650  Biso   1.000  N
  N13      1.0000 0.83560  0.84447  0.44249  Biso   1.000  N
  N14      1.0000 0.66440  0.34447  0.05751  Biso   1.000  N
  N15      1.0000 0.16440  0.15553  0.55751  Biso   1.000  N
  N16      1.0000 0.33560  0.65553  0.94249  Biso   1.000  N
  N17      1.0000 0.07990  0.69288  0.29838  Biso   1.000  N
  N18      1.0000 0.42010  0.19288  0.20162  Biso   1.000  N
  N19      1.0000 0.92010  0.30712  0.70162  Biso   1.000  N
  N20      1.0000 0.57990  0.80712  0.79838  Biso   1.000  N
  N21      1.0000 0.39620  0.74530  0.53603  Biso   1.000  N
  N22      1.0000 0.10380  0.24530  0.96397  Biso   1.000  N
  N23      1.0000 0.60380  0.25470  0.46397  Biso   1.000  N
  N24      1.0000 0.89620  0.75470  0.03603  Biso   1.000  N
  C1       1.0000 0.93240  0.45710  0.44379  Biso   1.000  C
  C2       1.0000 0.56760  0.95710  0.05621  Biso   1.000  C
  C3       1.0000 0.06760  0.54290  0.55621  Biso   1.000  C
  C4       1.0000 0.43240  0.04290  0.94379  Biso   1.000  C
  C5       1.0000 0.91980  0.41530  0.50341  Biso   1.000  C
  C6       1.0000 0.58020  0.91530  0.99659  Biso   1.000  C
  C7       1.0000 0.08020  0.58470  0.49659  Biso   1.000  C
  C8       1.0000 0.41980  0.08470  0.00341  Biso   1.000  C
  H1       1.0000 0.86640  0.35830  0.50580  Biso   1.000  H
  H2       1.0000 0.63360  0.85830  0.99420  Biso   1.000  H
  H3       1.0000 0.13360  0.64170  0.49420  Biso   1.000  H
  H4       1.0000 0.36640  0.14170  0.00580  Biso   1.000  H
  C9       1.0000 0.98630  0.45780  0.55992  Biso   1.000  C
  C10      1.0000 0.51370  0.95780  0.94008  Biso   1.000  C
  C11      1.0000 0.01370  0.54220  0.44008  Biso   1.000  C
  C12      1.0000 0.48630  0.04220  0.05992  Biso   1.000  C
  H5       1.0000 0.97670  0.42960  0.60020  Biso   1.000  H
  H6       1.0000 0.52330  0.92960  0.89980  Biso   1.000  H
  H7       1.0000 0.02330  0.57040  0.39980  Biso   1.000  H
  H8       1.0000 0.47670  0.07040  0.10020  Biso   1.000  H
  C13      1.0000 0.22100  0.26690  0.33563  Biso   1.000  C
  C14      1.0000 0.27900  0.76690  0.16437  Biso   1.000  C
  C15      1.0000 0.77900  0.73310  0.66437  Biso   1.000  C
  C16      1.0000 0.72100  0.23310  0.83563  Biso   1.000  C
  H9       1.0000 0.34230  0.26960  0.33620  Biso   1.000  H
  H10      1.0000 0.15770  0.76960  0.16380  Biso   1.000  H
  H11      1.0000 0.65770  0.73040  0.66380  Biso   1.000  H
  H12      1.0000 0.84230  0.23040  0.83620  Biso   1.000  H
  C17      1.0000 0.13370  0.33970  0.36087  Biso   1.000  C
  C18      1.0000 0.36630  0.83970  0.13913  Biso   1.000  C
  C19      1.0000 0.86630  0.66030  0.63913  Biso   1.000  C
  C20      1.0000 0.63370  0.16030  0.86087  Biso   1.000  C
  H13      1.0000 0.19550  0.38990  0.37780  Biso   1.000  H
  H14      1.0000 0.30450  0.88990  0.12220  Biso   1.000  H
  H15      1.0000 0.80450  0.61010  0.62220  Biso   1.000  H
  H16      1.0000 0.69550  0.11010  0.87780  Biso   1.000  H
  C21      1.0000 0.95290  0.33760  0.36090  Biso   1.000  C
  C22      1.0000 0.54710  0.83760  0.13910  Biso   1.000  C
  C23      1.0000 0.04710  0.66240  0.63910  Biso   1.000  C
  C24      1.0000 0.45290  0.16240  0.86090  Biso   1.000  C
  C25      1.0000 0.86960  0.25950  0.33707  Biso   1.000  C
  C26      1.0000 0.63040  0.75950  0.16293  Biso   1.000  C
  C27      1.0000 0.13040  0.74050  0.66293  Biso   1.000  C
  C28      1.0000 0.36960  0.24050  0.83707  Biso   1.000  C
  H17      1.0000 0.74870  0.25400  0.33750  Biso   1.000  H
  H18      1.0000 0.75130  0.75400  0.16250  Biso   1.000  H
  H19      1.0000 0.25130  0.74600  0.66250  Biso   1.000  H
  H20      1.0000 0.24870  0.24600  0.83750  Biso   1.000  H
  C29      1.0000 0.96880  0.18980  0.31256  Biso   1.000  C
  C30      1.0000 0.53120  0.68980  0.18744  Biso   1.000  C
  C31      1.0000 0.03120  0.81020  0.68744  Biso   1.000  C
  C32      1.0000 0.46880  0.31020  0.81256  Biso   1.000  C
  H21      1.0000 0.91070  0.13790  0.29660  Biso   1.000  H
  H22      1.0000 0.58930  0.63790  0.20340  Biso   1.000  H
  H23      1.0000 0.08930  0.86210  0.70340  Biso   1.000  H
  H24      1.0000 0.41070  0.36210  0.79660  Biso   1.000  H
  C33      1.0000 0.49520  0.46370  0.26637  Biso   1.000  C
  C34      1.0000 0.00480  0.96370  0.23363  Biso   1.000  C
  C35      1.0000 0.50480  0.53630  0.73363  Biso   1.000  C
  C36      1.0000 0.99520  0.03630  0.76637  Biso   1.000  C
  H25      1.0000 0.45740  0.44620  0.22440  Biso   1.000  H
  H26      1.0000 0.04260  0.94620  0.27560  Biso   1.000  H
  H27      1.0000 0.54260  0.55380  0.77560  Biso   1.000  H
  H28      1.0000 0.95740  0.05380  0.72440  Biso   1.000  H
  C37      1.0000 0.64430  0.42450  0.29269  Biso   1.000  C
  C38      1.0000 0.85570  0.92450  0.20731  Biso   1.000  C
  C39      1.0000 0.35570  0.57550  0.70731  Biso   1.000  C
  C40      1.0000 0.14430  0.07550  0.79269  Biso   1.000  C
  H29      1.0000 0.70600  0.38300  0.26840  Biso   1.000  H
  H30      1.0000 0.79400  0.88300  0.23160  Biso   1.000  H
  H31      1.0000 0.29400  0.61700  0.73160  Biso   1.000  H
  H32      1.0000 0.20600  0.11700  0.76840  Biso   1.000  H
  C41      1.0000 0.70420  0.44650  0.35608  Biso   1.000  C
  C42      1.0000 0.79580  0.94650  0.14392  Biso   1.000  C
  C43      1.0000 0.29580  0.55350  0.64392  Biso   1.000  C
  C44      1.0000 0.20420  0.05350  0.85608  Biso   1.000  C
  C45      1.0000 0.60180  0.50920  0.38894  Biso   1.000  C
  C46      1.0000 0.89820  0.00920  0.11106  Biso   1.000  C
  C47      1.0000 0.39820  0.49080  0.61106  Biso   1.000  C
  C48      1.0000 0.10180  0.99080  0.88894  Biso   1.000  C
  H33      1.0000 0.63230  0.52560  0.43180  Biso   1.000  H
  H34      1.0000 0.86770  0.02560  0.06820  Biso   1.000  H
  H35      1.0000 0.36770  0.47440  0.56820  Biso   1.000  H
  H36      1.0000 0.13230  0.97440  0.93180  Biso   1.000  H
  C49      1.0000 0.45590  0.54590  0.35700  Biso   1.000  C
  C50      1.0000 0.04410  0.04590  0.14300  Biso   1.000  C
  C51      1.0000 0.54410  0.45410  0.64300  Biso   1.000  C
  C52      1.0000 0.95590  0.95410  0.85700  Biso   1.000  C
  H37      1.0000 0.39190  0.58840  0.37960  Biso   1.000  H
  H38      1.0000 0.10810  0.08840  0.12040  Biso   1.000  H
  H39      1.0000 0.60810  0.41160  0.62040  Biso   1.000  H
  H40      1.0000 0.89190  0.91160  0.87960  Biso   1.000  H
  C53      1.0000 0.91910  0.92390  0.47158  Biso   1.000  C
  C54      1.0000 0.58090  0.42390  0.02842  Biso   1.000  C
  C55      1.0000 0.08090  0.07610  0.52842  Biso   1.000  C
  C56      1.0000 0.41910  0.57610  0.97158  Biso   1.000  C
  C57      1.0000 0.95580  0.99910  0.43347  Biso   1.000  C
  C58      1.0000 0.54420  0.49910  0.06653  Biso   1.000  C
  C59      1.0000 0.04420  0.00090  0.56653  Biso   1.000  C
  C60      1.0000 0.45580  0.50090  0.93347  Biso   1.000  C
  H41      1.0000 0.92670  0.99870  0.38890  Biso   1.000  H
  H42      1.0000 0.57330  0.49870  0.11110  Biso   1.000  H
  H43      1.0000 0.07330  0.00130  0.61110  Biso   1.000  H
  H44      1.0000 0.42670  0.50130  0.88890  Biso   1.000  H
  C61      1.0000 0.03620  0.07480  0.46254  Biso   1.000  C
  C62      1.0000 0.46380  0.57480  0.03746  Biso   1.000  C
  C63      1.0000 0.96380  0.92520  0.53746  Biso   1.000  C
  C64      1.0000 0.53620  0.42520  0.96254  Biso   1.000  C
  H45      1.0000 0.06040  0.12560  0.43720  Biso   1.000  H
  H46      1.0000 0.43960  0.62560  0.06280  Biso   1.000  H
  H47      1.0000 0.93960  0.87440  0.56280  Biso   1.000  H
  H48      1.0000 0.56040  0.37440  0.93720  Biso   1.000  H
  C65      1.0000 0.90820  0.68920  0.30503  Biso   1.000  C
  C66      1.0000 0.59180  0.18920  0.19497  Biso   1.000  C
  C67      1.0000 0.09180  0.31080  0.69497  Biso   1.000  C
  C68      1.0000 0.40820  0.81080  0.80503  Biso   1.000  C
  H49      1.0000 0.84270  0.64980  0.27780  Biso   1.000  H
  H50      1.0000 0.65730  0.14980  0.22220  Biso   1.000  H
  H51      1.0000 0.15730  0.35020  0.72220  Biso   1.000  H
  H52      1.0000 0.34270  0.85020  0.77780  Biso   1.000  H
  C69      1.0000 0.82060  0.74020  0.34961  Biso   1.000  C
  C70      1.0000 0.67940  0.24020  0.15039  Biso   1.000  C
  C71      1.0000 0.17940  0.25980  0.65039  Biso   1.000  C
  C72      1.0000 0.32060  0.75980  0.84961  Biso   1.000  C
  H53      1.0000 0.69960  0.73630  0.35080  Biso   1.000  H
  H54      1.0000 0.80040  0.23630  0.14920  Biso   1.000  H
  H55      1.0000 0.30040  0.26370  0.64920  Biso   1.000  H
  H56      1.0000 0.19960  0.76370  0.85080  Biso   1.000  H
  C73      1.0000 0.91580  0.79740  0.39285  Biso   1.000  C
  C74      1.0000 0.58420  0.29740  0.10715  Biso   1.000  C
  C75      1.0000 0.08420  0.20260  0.60715  Biso   1.000  C
  C76      1.0000 0.41580  0.70260  0.89285  Biso   1.000  C
  C77      1.0000 0.09450  0.80510  0.38366  Biso   1.000  C
  C78      1.0000 0.40550  0.30510  0.11634  Biso   1.000  C
  C79      1.0000 0.90550  0.19490  0.61634  Biso   1.000  C
  C80      1.0000 0.59450  0.69490  0.88366  Biso   1.000  C
  H57      1.0000 0.16350  0.84500  0.40920  Biso   1.000  H
  H58      1.0000 0.33650  0.34500  0.09080  Biso   1.000  H
  H59      1.0000 0.83650  0.15500  0.59080  Biso   1.000  H
  H60      1.0000 0.66350  0.65500  0.90920  Biso   1.000  H
  C81      1.0000 0.16740  0.75310  0.33646  Biso   1.000  C
  C82      1.0000 0.33260  0.25310  0.16354  Biso   1.000  C
  C83      1.0000 0.83260  0.24690  0.66354  Biso   1.000  C
  C84      1.0000 0.66740  0.74690  0.83646  Biso   1.000  C
  H61      1.0000 0.28620  0.76050  0.33070  Biso   1.000  H
  H62      1.0000 0.21380  0.26050  0.16930  Biso   1.000  H
  H63      1.0000 0.71380  0.23950  0.66930  Biso   1.000  H
  H64      1.0000 0.78620  0.73950  0.83070  Biso   1.000  H
  C85      1.0000 0.51300  0.69040  0.51070  Biso   1.000  C
  C86      1.0000 0.98700  0.19040  0.98930  Biso   1.000  C
  C87      1.0000 0.48700  0.30960  0.48930  Biso   1.000  C
  C88      1.0000 0.01300  0.80960  0.01070  Biso   1.000  C
  H65      1.0000 0.49410  0.62770  0.51400  Biso   1.000  H
  H66      1.0000 0.00590  0.12770  0.98600  Biso   1.000  H
  H67      1.0000 0.50590  0.37230  0.48600  Biso   1.000  H
  H68      1.0000 0.99410  0.87230  0.01400  Biso   1.000  H
  C89      1.0000 0.65790  0.71770  0.48038  Biso   1.000  C
  C90      1.0000 0.84210  0.21770  0.01962  Biso   1.000  C
  C91      1.0000 0.34210  0.28230  0.51962  Biso   1.000  C
  C92      1.0000 0.15790  0.78230  0.98038  Biso   1.000  C
  H69      1.0000 0.73600  0.67480  0.46540  Biso   1.000  H
  H70      1.0000 0.76400  0.17480  0.03460  Biso   1.000  H
  H71      1.0000 0.26400  0.32520  0.53460  Biso   1.000  H
  H72      1.0000 0.23600  0.82520  0.96540  Biso   1.000  H
  C93      1.0000 0.68670  0.81010  0.47222  Biso   1.000  C
  C94      1.0000 0.81330  0.31010  0.02778  Biso   1.000  C
  C95      1.0000 0.31330  0.18990  0.52778  Biso   1.000  C
  C96      1.0000 0.18670  0.68990  0.97222  Biso   1.000  C
  C97      1.0000 0.56790  0.86920  0.49800  Biso   1.000  C
  C98      1.0000 0.93210  0.36920  0.00200  Biso   1.000  C
  C99      1.0000 0.43210  0.13080  0.50200  Biso   1.000  C
  C100     1.0000 0.06790  0.63080  0.99800  Biso   1.000  C
  H73      1.0000 0.58190  0.93210  0.49440  Biso   1.000  H
  H74      1.0000 0.91810  0.43210  0.00560  Biso   1.000  H
  H75      1.0000 0.41810  0.06790  0.50560  Biso   1.000  H
  H76      1.0000 0.08190  0.56790  0.99440  Biso   1.000  H
  C101     1.0000 0.42900  0.83380  0.52920  Biso   1.000  C
  C102     1.0000 0.07100  0.33380  0.97080  Biso   1.000  C
  C103     1.0000 0.57100  0.16620  0.47080  Biso   1.000  C
  C104     1.0000 0.92900  0.66620  0.02920  Biso   1.000  C
  H77      1.0000 0.35210  0.87500  0.54690  Biso   1.000  H
  H78      1.0000 0.14790  0.37500  0.95310  Biso   1.000  H
  H79      1.0000 0.64790  0.12500  0.45310  Biso   1.000  H
  H80      1.0000 0.85210  0.62500  0.04690  Biso   1.000  H
