data_image0
_cell_length_a       13.109
_cell_length_b       17.629
_cell_length_c       10.658
_cell_angle_alpha    96.58
_cell_angle_beta     107.62
_cell_angle_gamma    70.7

_symmetry_space_group_name_H-M    "P 1"
_symmetry_int_tables_number       1

loop_
  _symmetry_equiv_pos_as_xyz
  'x, y, z'

loop_
  _atom_site_label
  _atom_site_occupancy
  _atom_site_fract_x
  _atom_site_fract_y
  _atom_site_fract_z
  _atom_site_thermal_displace_type
  _atom_site_B_iso_or_equiv
  _atom_site_type_symbol
  Cu1      1.0000 0.17918  0.39583  0.08426  Biso   1.000  Cu
  Cu2      1.0000 0.82082  0.60417  0.91574  Biso   1.000  Cu
  Cu3      1.0000 0.30971  0.10773  0.93598  Biso   1.000  Cu
  Cu4      1.0000 0.69029  0.89227  0.06402  Biso   1.000  Cu
  S1       1.0000 0.92840  0.44900  0.13700  Biso   1.000  S
  S2       1.0000 0.07160  0.55100  0.86300  Biso   1.000  S
  S3       1.0000 0.54770  0.05130  0.85300  Biso   1.000  S
  S4       1.0000 0.45230  0.94870  0.14700  Biso   1.000  S
  P1       1.0000 0.32000  0.42500  0.24490  Biso   1.000  P
  P2       1.0000 0.68000  0.57500  0.75510  Biso   1.000  P
  P3       1.0000 0.16920  0.07970  0.77030  Biso   1.000  P
  P4       1.0000 0.83080  0.92030  0.22970  Biso   1.000  P
  F1       1.0000 0.02340  0.43540  0.38800  Biso   1.000  F
  F2       1.0000 0.97660  0.56460  0.61200  Biso   1.000  F
  F3       1.0000 0.91950  0.55430  0.32910  Biso   1.000  F
  F4       1.0000 0.08050  0.44570  0.67090  Biso   1.000  F
  F5       1.0000 0.84500  0.46530  0.33490  Biso   1.000  F
  F6       1.0000 0.15500  0.53470  0.66510  Biso   1.000  F
  F7       1.0000 0.53400  0.94870  0.65740  Biso   1.000  F
  F8       1.0000 0.46600  0.05130  0.34260  Biso   1.000  F
  F9       1.0000 0.61820  0.03140  0.64430  Biso   1.000  F
  F10      1.0000 0.38180  0.96860  0.35570  Biso   1.000  F
  F11      1.0000 0.44020  0.07020  0.60430  Biso   1.000  F
  F12      1.0000 0.55980  0.92980  0.39570  Biso   1.000  F
  O1       1.0000 0.03270  0.45960  0.13580  Biso   1.000  O
  O2       1.0000 0.96730  0.54040  0.86420  Biso   1.000  O
  O3       1.0000 0.44720  0.04010  0.86790  Biso   1.000  O
  O4       1.0000 0.55280  0.95990  0.13210  Biso   1.000  O
  O5       1.0000 0.83200  0.50790  0.06150  Biso   1.000  O
  O6       1.0000 0.16800  0.49210  0.93850  Biso   1.000  O
  O7       1.0000 0.92400  0.36900  0.12420  Biso   1.000  O
  O8       1.0000 0.07600  0.63100  0.87580  Biso   1.000  O
  O9       1.0000 0.55030  0.13200  0.86460  Biso   1.000  O
  O10      1.0000 0.44970  0.86800  0.13540  Biso   1.000  O
  O11      1.0000 0.65080  0.99250  0.92000  Biso   1.000  O
  O12      1.0000 0.34920  0.00750  0.08000  Biso   1.000  O
  C1       1.0000 0.10370  0.32450  0.93630  Biso   1.000  C
  C2       1.0000 0.89630  0.67550  0.06370  Biso   1.000  C
  C3       1.0000 0.21620  0.28450  0.97030  Biso   1.000  C
  C4       1.0000 0.78380  0.71550  0.02970  Biso   1.000  C
  C5       1.0000 0.27600  0.21840  0.05940  Biso   1.000  C
  C6       1.0000 0.72400  0.78160  0.94060  Biso   1.000  C
  C7       1.0000 0.38690  0.17950  0.07570  Biso   1.000  C
  C8       1.0000 0.61310  0.82050  0.92430  Biso   1.000  C
  C9       1.0000 0.21350  0.20360  0.15120  Biso   1.000  C
  C10      1.0000 0.78650  0.79640  0.84880  Biso   1.000  C
  C11      1.0000 0.92650  0.47850  0.30660  Biso   1.000  C
  C12      1.0000 0.07350  0.52150  0.69340  Biso   1.000  C
  C13      1.0000 0.53530  0.02400  0.68130  Biso   1.000  C
  C14      1.0000 0.46470  0.97600  0.31870  Biso   1.000  C
  C15      1.0000 0.28170  0.53280  0.28540  Biso   1.000  C
  C16      1.0000 0.71830  0.46720  0.71460  Biso   1.000  C
  C17      1.0000 0.34460  0.57980  0.28010  Biso   1.000  C
  C18      1.0000 0.65540  0.42020  0.71990  Biso   1.000  C
  C19      1.0000 0.30950  0.66090  0.31000  Biso   1.000  C
  C20      1.0000 0.69050  0.33910  0.69000  Biso   1.000  C
  C21      1.0000 0.21090  0.69550  0.34240  Biso   1.000  C
  C22      1.0000 0.78910  0.30450  0.65760  Biso   1.000  C
  C23      1.0000 0.14670  0.64920  0.34930  Biso   1.000  C
  C24      1.0000 0.85330  0.35080  0.65070  Biso   1.000  C
  C25      1.0000 0.18100  0.56760  0.31870  Biso   1.000  C
  C26      1.0000 0.81900  0.43240  0.68130  Biso   1.000  C
  C27      1.0000 0.36050  0.37530  0.40240  Biso   1.000  C
  C28      1.0000 0.63950  0.62470  0.59760  Biso   1.000  C
  C29      1.0000 0.35030  0.41620  0.51870  Biso   1.000  C
  C30      1.0000 0.64970  0.58380  0.48130  Biso   1.000  C
  C31      1.0000 0.37870  0.37340  0.63240  Biso   1.000  C
  C32      1.0000 0.62130  0.62660  0.36760  Biso   1.000  C
  C33      1.0000 0.41980  0.29080  0.63180  Biso   1.000  C
  C34      1.0000 0.58020  0.70920  0.36820  Biso   1.000  C
  C35      1.0000 0.43170  0.25090  0.51600  Biso   1.000  C
  C36      1.0000 0.56830  0.74910  0.48400  Biso   1.000  C
  C37      1.0000 0.40150  0.29200  0.40300  Biso   1.000  C
  C38      1.0000 0.59850  0.70800  0.59700  Biso   1.000  C
  C39      1.0000 0.45290  0.40260  0.20590  Biso   1.000  C
  C40      1.0000 0.54710  0.59740  0.79410  Biso   1.000  C
  C41      1.0000 0.55510  0.39190  0.30210  Biso   1.000  C
  C42      1.0000 0.44490  0.60810  0.69790  Biso   1.000  C
  C43      1.0000 0.65260  0.37790  0.26710  Biso   1.000  C
  C44      1.0000 0.34740  0.62210  0.73290  Biso   1.000  C
  C45      1.0000 0.65040  0.37340  0.13800  Biso   1.000  C
  C46      1.0000 0.34960  0.62660  0.86200  Biso   1.000  C
  C47      1.0000 0.55020  0.38290  0.04100  Biso   1.000  C
  C48      1.0000 0.44980  0.61710  0.95900  Biso   1.000  C
  C49      1.0000 0.45160  0.39690  0.07440  Biso   1.000  C
  C50      1.0000 0.54840  0.60310  0.92560  Biso   1.000  C
  C51      1.0000 0.04460  0.07690  0.80980  Biso   1.000  C
  C52      1.0000 0.95540  0.92310  0.19020  Biso   1.000  C
  C53      1.0000 0.98850  0.14420  0.87130  Biso   1.000  C
  C54      1.0000 0.01150  0.85580  0.12870  Biso   1.000  C
  C55      1.0000 0.89360  0.14680  0.90580  Biso   1.000  C
  C56      1.0000 0.10640  0.85320  0.09420  Biso   1.000  C
  C57      1.0000 0.85440  0.08210  0.87730  Biso   1.000  C
  C58      1.0000 0.14560  0.91790  0.12270  Biso   1.000  C
  C59      1.0000 0.90700  0.01590  0.81600  Biso   1.000  C
  C60      1.0000 0.09300  0.98410  0.18400  Biso   1.000  C
  C61      1.0000 0.00180  0.01320  0.78240  Biso   1.000  C
  C62      1.0000 0.99820  0.98680  0.21760  Biso   1.000  C
  C63      1.0000 0.11250  0.14480  0.62870  Biso   1.000  C
  C64      1.0000 0.88750  0.85520  0.37130  Biso   1.000  C
  C65      1.0000 0.01290  0.14540  0.53220  Biso   1.000  C
  C66      1.0000 0.98710  0.85460  0.46780  Biso   1.000  C
  C67      1.0000 0.97520  0.19160  0.42130  Biso   1.000  C
  C68      1.0000 0.02480  0.80840  0.57870  Biso   1.000  C
  C69      1.0000 0.03700  0.23780  0.40520  Biso   1.000  C
  C70      1.0000 0.96300  0.76220  0.59480  Biso   1.000  C
  C71      1.0000 0.13510  0.23860  0.50060  Biso   1.000  C
  C72      1.0000 0.86490  0.76140  0.49940  Biso   1.000  C
  C73      1.0000 0.17230  0.19210  0.61120  Biso   1.000  C
  C74      1.0000 0.82770  0.80790  0.38880  Biso   1.000  C
  C75      1.0000 0.22550  0.97960  0.70280  Biso   1.000  C
  C76      1.0000 0.77450  0.02040  0.29720  Biso   1.000  C
  C77      1.0000 0.22650  0.96470  0.57350  Biso   1.000  C
  C78      1.0000 0.77350  0.03530  0.42650  Biso   1.000  C
  C79      1.0000 0.27320  0.88760  0.52940  Biso   1.000  C
  C80      1.0000 0.72680  0.11240  0.47060  Biso   1.000  C
  C81      1.0000 0.31980  0.82520  0.61670  Biso   1.000  C
  C82      1.0000 0.68020  0.17480  0.38330  Biso   1.000  C
  C83      1.0000 0.32030  0.83860  0.74510  Biso   1.000  C
  C84      1.0000 0.67970  0.16140  0.25490  Biso   1.000  C
  C85      1.0000 0.27340  0.91570  0.79000  Biso   1.000  C
  C86      1.0000 0.72660  0.08430  0.21000  Biso   1.000  C
  H1       1.0000 0.07700  0.36700  0.87030  Biso   1.000  H
  H2       1.0000 0.92300  0.63300  0.12970  Biso   1.000  H
  H3       1.0000 0.04340  0.30920  0.97710  Biso   1.000  H
  H4       1.0000 0.95660  0.69080  0.02290  Biso   1.000  H
  H5       1.0000 0.27930  0.28260  0.90860  Biso   1.000  H
  H6       1.0000 0.72070  0.71740  0.09140  Biso   1.000  H
  H7       1.0000 0.42500  0.13140  0.12910  Biso   1.000  H
  H8       1.0000 0.57500  0.86860  0.87090  Biso   1.000  H
  H9       1.0000 0.44360  0.19840  0.05040  Biso   1.000  H
  H10      1.0000 0.55640  0.80160  0.94960  Biso   1.000  H
  H11      1.0000 0.15390  0.20300  0.10930  Biso   1.000  H
  H12      1.0000 0.84610  0.79700  0.89070  Biso   1.000  H
  H13      1.0000 0.19250  0.24290  0.19340  Biso   1.000  H
  H14      1.0000 0.80750  0.75710  0.80660  Biso   1.000  H
  H15      1.0000 0.26500  0.15070  0.22810  Biso   1.000  H
  H16      1.0000 0.73500  0.84930  0.77190  Biso   1.000  H
  H17      1.0000 0.41260  0.55670  0.25600  Biso   1.000  H
  H18      1.0000 0.58740  0.44330  0.74400  Biso   1.000  H
  H19      1.0000 0.35440  0.69310  0.30730  Biso   1.000  H
  H20      1.0000 0.64560  0.30690  0.69270  Biso   1.000  H
  H21      1.0000 0.18670  0.75160  0.36040  Biso   1.000  H
  H22      1.0000 0.81330  0.24840  0.63960  Biso   1.000  H
  H23      1.0000 0.07940  0.67280  0.37480  Biso   1.000  H
  H24      1.0000 0.92060  0.32720  0.62520  Biso   1.000  H
  H25      1.0000 0.13580  0.53560  0.32040  Biso   1.000  H
  H26      1.0000 0.86420  0.46440  0.67960  Biso   1.000  H
  H27      1.0000 0.32400  0.47320  0.52100  Biso   1.000  H
  H28      1.0000 0.67600  0.52680  0.47900  Biso   1.000  H
  H29      1.0000 0.36960  0.40160  0.71180  Biso   1.000  H
  H30      1.0000 0.63040  0.59840  0.28820  Biso   1.000  H
  H31      1.0000 0.43970  0.26190  0.71010  Biso   1.000  H
  H32      1.0000 0.56030  0.73810  0.28990  Biso   1.000  H
  H33      1.0000 0.46140  0.19390  0.51480  Biso   1.000  H
  H34      1.0000 0.53860  0.80610  0.48520  Biso   1.000  H
  H35      1.0000 0.40870  0.26320  0.32350  Biso   1.000  H
  H36      1.0000 0.59130  0.73680  0.67650  Biso   1.000  H
  H37      1.0000 0.55770  0.39420  0.39250  Biso   1.000  H
  H38      1.0000 0.44230  0.60580  0.60750  Biso   1.000  H
  H39      1.0000 0.72200  0.37140  0.33360  Biso   1.000  H
  H40      1.0000 0.27800  0.62860  0.66640  Biso   1.000  H
  H41      1.0000 0.71820  0.36370  0.11510  Biso   1.000  H
  H42      1.0000 0.28180  0.63630  0.88490  Biso   1.000  H
  H43      1.0000 0.54890  0.37990  0.95100  Biso   1.000  H
  H44      1.0000 0.45110  0.62010  0.04900  Biso   1.000  H
  H45      1.0000 0.38270  0.40270  0.00730  Biso   1.000  H
  H46      1.0000 0.61730  0.59730  0.99270  Biso   1.000  H
  H47      1.0000 0.01550  0.18930  0.89010  Biso   1.000  H
  H48      1.0000 0.98450  0.81070  0.10990  Biso   1.000  H
  H49      1.0000 0.85620  0.19300  0.94890  Biso   1.000  H
  H50      1.0000 0.14380  0.80700  0.05110  Biso   1.000  H
  H51      1.0000 0.78940  0.08370  0.90090  Biso   1.000  H
  H52      1.0000 0.21060  0.91630  0.09910  Biso   1.000  H
  H53      1.0000 0.87870  0.97140  0.79620  Biso   1.000  H
  H54      1.0000 0.12130  0.02860  0.20380  Biso   1.000  H
  H55      1.0000 0.03830  0.96650  0.73940  Biso   1.000  H
  H56      1.0000 0.96170  0.03350  0.26060  Biso   1.000  H
  H57      1.0000 0.97030  0.11350  0.54300  Biso   1.000  H
  H58      1.0000 0.02970  0.88650  0.45700  Biso   1.000  H
  H59      1.0000 0.90700  0.19150  0.35640  Biso   1.000  H
  H60      1.0000 0.09300  0.80850  0.64360  Biso   1.000  H
  H61      1.0000 0.01200  0.26910  0.32850  Biso   1.000  H
  H62      1.0000 0.98800  0.73090  0.67150  Biso   1.000  H
  H63      1.0000 0.17700  0.27110  0.49020  Biso   1.000  H
  H64      1.0000 0.82300  0.72890  0.50980  Biso   1.000  H
  H65      1.0000 0.24020  0.19270  0.67610  Biso   1.000  H
  H66      1.0000 0.75980  0.80730  0.32390  Biso   1.000  H
  H67      1.0000 0.19460  0.00790  0.51350  Biso   1.000  H
  H68      1.0000 0.80540  0.99210  0.48650  Biso   1.000  H
  H69      1.0000 0.27320  0.87790  0.43980  Biso   1.000  H
  H70      1.0000 0.72680  0.12210  0.56020  Biso   1.000  H
  H71      1.0000 0.35180  0.77220  0.58700  Biso   1.000  H
  H72      1.0000 0.64820  0.22780  0.41300  Biso   1.000  H
  H73      1.0000 0.35280  0.79500  0.80440  Biso   1.000  H
  H74      1.0000 0.64720  0.20500  0.19560  Biso   1.000  H
  H75      1.0000 0.27410  0.92490  0.87980  Biso   1.000  H
  H76      1.0000 0.72590  0.07510  0.12020  Biso   1.000  H
