data_image0
_cell_length_a       3.916
_cell_length_b       7.8372
_cell_length_c       11.4705
_cell_angle_alpha    90
_cell_angle_beta     93.215
_cell_angle_gamma    90

_symmetry_space_group_name_H-M    "P 1"
_symmetry_int_tables_number       1

loop_
  _symmetry_equiv_pos_as_xyz
  'x, y, z'

loop_
  _atom_site_label
  _atom_site_occupancy
  _atom_site_fract_x
  _atom_site_fract_y
  _atom_site_fract_z
  _atom_site_thermal_displace_type
  _atom_site_B_iso_or_equiv
  _atom_site_type_symbol
  Cu1      1.0000 0.42150  0.62488  0.15961  Biso   1.000  Cu
  Cu2      1.0000 0.42150  0.37512  0.65961  Biso   1.000  Cu
  Cu3      1.0000 0.88060  0.50931  0.38092  Biso   1.000  Cu
  Cu4      1.0000 0.88060  0.49069  0.88092  Biso   1.000  Cu
  S1       1.0000 0.93620  0.69780  0.23624  Biso   1.000  S
  S2       1.0000 0.93620  0.30220  0.73624  Biso   1.000  S
  Cl1      1.0000 0.43120  0.43870  0.01001  Biso   1.000  Cl
  Cl2      1.0000 0.43120  0.56130  0.51001  Biso   1.000  Cl
  N1       1.0000 0.89390  0.26030  0.34230  Biso   1.000  N
  N2       1.0000 0.89390  0.73970  0.84230  Biso   1.000  N
  C1       1.0000 0.02170  0.20880  0.24180  Biso   1.000  C
  C2       1.0000 0.02170  0.79120  0.74180  Biso   1.000  C
  H1       1.0000 0.09880  0.29160  0.19150  Biso   1.000  H
  H2       1.0000 0.09880  0.70840  0.69150  Biso   1.000  H
  C3       1.0000 0.04490  0.04130  0.20950  Biso   1.000  C
  C4       1.0000 0.04490  0.95870  0.70950  Biso   1.000  C
  H3       1.0000 0.13880  0.01220  0.13950  Biso   1.000  H
  H4       1.0000 0.13880  0.98780  0.63950  Biso   1.000  H
  C5       1.0000 0.92710  0.91560  0.28200  Biso   1.000  C
  C6       1.0000 0.92710  0.08440  0.78200  Biso   1.000  C
  C7       1.0000 0.79360  0.96580  0.38500  Biso   1.000  C
  C8       1.0000 0.79360  0.03420  0.88500  Biso   1.000  C
  H5       1.0000 0.71090  0.88460  0.43550  Biso   1.000  H
  H6       1.0000 0.71090  0.11540  0.93550  Biso   1.000  H
  C9       1.0000 0.78300  0.13580  0.41320  Biso   1.000  C
  C10      1.0000 0.78300  0.86420  0.91320  Biso   1.000  C
  H7       1.0000 0.69560  0.16710  0.48390  Biso   1.000  H
  H8       1.0000 0.69560  0.83290  0.98390  Biso   1.000  H
