data_image0
_cell_length_a       3.9759
_cell_length_b       7.858
_cell_length_c       11.773
_cell_angle_alpha    90
_cell_angle_beta     93.912
_cell_angle_gamma    90

_symmetry_space_group_name_H-M    "P 1"
_symmetry_int_tables_number       1

loop_
  _symmetry_equiv_pos_as_xyz
  'x, y, z'

loop_
  _atom_site_label
  _atom_site_occupancy
  _atom_site_fract_x
  _atom_site_fract_y
  _atom_site_fract_z
  _atom_site_thermal_displace_type
  _atom_site_B_iso_or_equiv
  _atom_site_type_symbol
  Cu1      1.0000 0.41400  0.63168  0.16357  Biso   1.000  Cu
  Cu2      1.0000 0.41400  0.36832  0.66357  Biso   1.000  Cu
  Cu3      1.0000 0.89130  0.51280  0.37639  Biso   1.000  Cu
  Cu4      1.0000 0.89130  0.48720  0.87639  Biso   1.000  Cu
  S1       1.0000 0.93410  0.70400  0.23423  Biso   1.000  S
  S2       1.0000 0.93410  0.29600  0.73423  Biso   1.000  S
  Br1      1.0000 0.43047  0.43302  0.01026  Biso   1.000  Br
  Br2      1.0000 0.43047  0.56698  0.51026  Biso   1.000  Br
  N1       1.0000 0.90400  0.26330  0.34190  Biso   1.000  N
  N2       1.0000 0.90400  0.73670  0.84190  Biso   1.000  N
  C1       1.0000 0.02800  0.21120  0.24350  Biso   1.000  C
  C2       1.0000 0.02800  0.78880  0.74350  Biso   1.000  C
  H1       1.0000 0.10490  0.29400  0.19510  Biso   1.000  H
  H2       1.0000 0.10490  0.70600  0.69510  Biso   1.000  H
  C3       1.0000 0.04700  0.04460  0.21030  Biso   1.000  C
  C4       1.0000 0.04700  0.95540  0.71030  Biso   1.000  C
  H3       1.0000 0.13500  0.01690  0.14140  Biso   1.000  H
  H4       1.0000 0.13500  0.98310  0.64140  Biso   1.000  H
  C5       1.0000 0.93600  0.91830  0.27980  Biso   1.000  C
  C6       1.0000 0.93600  0.08170  0.77980  Biso   1.000  C
  C7       1.0000 0.80500  0.96970  0.38120  Biso   1.000  C
  C8       1.0000 0.80500  0.03030  0.88120  Biso   1.000  C
  H5       1.0000 0.72230  0.88960  0.43040  Biso   1.000  H
  H6       1.0000 0.72230  0.11040  0.93040  Biso   1.000  H
  C9       1.0000 0.79900  0.14060  0.40770  Biso   1.000  C
  C10      1.0000 0.79900  0.85940  0.90770  Biso   1.000  C
  H7       1.0000 0.71470  0.17160  0.47650  Biso   1.000  H
  H8       1.0000 0.71470  0.82840  0.97650  Biso   1.000  H
