data_image0
_cell_length_a       10.894
_cell_length_b       20.828
_cell_length_c       5.325
_cell_angle_alpha    90
_cell_angle_beta     104.344
_cell_angle_gamma    90

_symmetry_space_group_name_H-M    "P 1"
_symmetry_int_tables_number       1

loop_
  _symmetry_equiv_pos_as_xyz
  'x, y, z'

loop_
  _atom_site_label
  _atom_site_occupancy
  _atom_site_fract_x
  _atom_site_fract_y
  _atom_site_fract_z
  _atom_site_thermal_displace_type
  _atom_site_B_iso_or_equiv
  _atom_site_type_symbol
  Cu1      1.0000 0.55177  0.00000  0.76070  Biso   1.000  Cu
  Cu2      1.0000 0.05177  0.50000  0.76070  Biso   1.000  Cu
  Cu3      1.0000 0.37562  0.90733  0.19780  Biso   1.000  Cu
  Cu4      1.0000 0.37562  0.09267  0.19780  Biso   1.000  Cu
  Cu5      1.0000 0.87562  0.40733  0.19780  Biso   1.000  Cu
  Cu6      1.0000 0.87562  0.59267  0.19780  Biso   1.000  Cu
  Cu7      1.0000 0.73569  0.93286  0.21360  Biso   1.000  Cu
  Cu8      1.0000 0.73569  0.06714  0.21360  Biso   1.000  Cu
  Cu9      1.0000 0.23569  0.43286  0.21360  Biso   1.000  Cu
  Cu10     1.0000 0.23569  0.56714  0.21360  Biso   1.000  Cu
  Cl1      1.0000 0.73110  0.00000  0.56670  Biso   1.000  Cl
  Cl2      1.0000 0.23110  0.50000  0.56670  Biso   1.000  Cl
  Cl3      1.0000 0.24890  0.82301  0.18040  Biso   1.000  Cl
  Cl4      1.0000 0.24890  0.17699  0.18040  Biso   1.000  Cl
  Cl5      1.0000 0.74890  0.32301  0.18040  Biso   1.000  Cl
  Cl6      1.0000 0.74890  0.67699  0.18040  Biso   1.000  Cl
  Cl7      1.0000 0.91360  0.89004  0.17650  Biso   1.000  Cl
  Cl8      1.0000 0.91360  0.10996  0.17650  Biso   1.000  Cl
  Cl9      1.0000 0.41360  0.39004  0.17650  Biso   1.000  Cl
  Cl10     1.0000 0.41360  0.60996  0.17650  Biso   1.000  Cl
  S1       1.0000 0.53630  0.90818  0.00210  Biso   1.000  S
  S2       1.0000 0.53630  0.09182  0.00210  Biso   1.000  S
  S3       1.0000 0.03630  0.40818  0.00210  Biso   1.000  S
  S4       1.0000 0.03630  0.59182  0.00210  Biso   1.000  S
  S5       1.0000 0.36630  0.00000  0.40510  Biso   1.000  S
  S6       1.0000 0.86630  0.50000  0.40510  Biso   1.000  S
  N1       1.0000 0.55550  0.73310  0.51760  Biso   1.000  N
  N2       1.0000 0.55550  0.26690  0.51760  Biso   1.000  N
  N3       1.0000 0.05550  0.23310  0.51760  Biso   1.000  N
  N4       1.0000 0.05550  0.76690  0.51760  Biso   1.000  N
  H1       1.0000 0.55820  0.70010  0.42180  Biso   1.000  H
  H2       1.0000 0.55820  0.29990  0.42180  Biso   1.000  H
  H3       1.0000 0.05820  0.20010  0.42180  Biso   1.000  H
  H4       1.0000 0.05820  0.79990  0.42180  Biso   1.000  H
  N5       1.0000 0.06380  0.00000  0.84600  Biso   1.000  N
  N6       1.0000 0.56380  0.50000  0.84600  Biso   1.000  N
  H5       1.0000 0.00640  0.00000  0.93140  Biso   1.000  H
  H6       1.0000 0.50640  0.50000  0.93140  Biso   1.000  H
  C1       1.0000 0.54470  0.83940  0.82000  Biso   1.000  C
  C2       1.0000 0.54470  0.16060  0.82000  Biso   1.000  C
  C3       1.0000 0.04470  0.33940  0.82000  Biso   1.000  C
  C4       1.0000 0.04470  0.66060  0.82000  Biso   1.000  C
  C5       1.0000 0.63150  0.83570  0.66100  Biso   1.000  C
  C6       1.0000 0.63150  0.16430  0.66100  Biso   1.000  C
  C7       1.0000 0.13150  0.33570  0.66100  Biso   1.000  C
  C8       1.0000 0.13150  0.66430  0.66100  Biso   1.000  C
  H7       1.0000 0.68770  0.86930  0.66040  Biso   1.000  H
  H8       1.0000 0.68770  0.13070  0.66040  Biso   1.000  H
  H9       1.0000 0.18770  0.36930  0.66040  Biso   1.000  H
  H10      1.0000 0.18770  0.63070  0.66040  Biso   1.000  H
  C9       1.0000 0.63320  0.78370  0.51100  Biso   1.000  C
  C10      1.0000 0.63320  0.21630  0.51100  Biso   1.000  C
  C11      1.0000 0.13320  0.28370  0.51100  Biso   1.000  C
  C12      1.0000 0.13320  0.71630  0.51100  Biso   1.000  C
  H11      1.0000 0.68800  0.78260  0.40160  Biso   1.000  H
  H12      1.0000 0.68800  0.21740  0.40160  Biso   1.000  H
  H13      1.0000 0.18800  0.28260  0.40160  Biso   1.000  H
  H14      1.0000 0.18800  0.71740  0.40160  Biso   1.000  H
  C13      1.0000 0.47500  0.73350  0.67000  Biso   1.000  C
  C14      1.0000 0.47500  0.26650  0.67000  Biso   1.000  C
  C15      1.0000 0.97500  0.23350  0.67000  Biso   1.000  C
  C16      1.0000 0.97500  0.76650  0.67000  Biso   1.000  C
  H15      1.0000 0.42270  0.69830  0.67230  Biso   1.000  H
  H16      1.0000 0.42270  0.30170  0.67230  Biso   1.000  H
  H17      1.0000 0.92270  0.19830  0.67230  Biso   1.000  H
  H18      1.0000 0.92270  0.80170  0.67230  Biso   1.000  H
  C17      1.0000 0.46930  0.78580  0.82400  Biso   1.000  C
  C18      1.0000 0.46930  0.21420  0.82400  Biso   1.000  C
  C19      1.0000 0.96930  0.28580  0.82400  Biso   1.000  C
  C20      1.0000 0.96930  0.71420  0.82400  Biso   1.000  C
  H19      1.0000 0.41410  0.78530  0.93210  Biso   1.000  H
  H20      1.0000 0.41410  0.21470  0.93210  Biso   1.000  H
  H21      1.0000 0.91410  0.28530  0.93210  Biso   1.000  H
  H22      1.0000 0.91410  0.71470  0.93210  Biso   1.000  H
  C21      1.0000 0.24480  0.00000  0.57100  Biso   1.000  C
  C22      1.0000 0.74480  0.50000  0.57100  Biso   1.000  C
  C23      1.0000 0.19680  0.94290  0.64840  Biso   1.000  C
  C24      1.0000 0.19680  0.05710  0.64840  Biso   1.000  C
  C25      1.0000 0.69680  0.44290  0.64840  Biso   1.000  C
  C26      1.0000 0.69680  0.55710  0.64840  Biso   1.000  C
  H23      1.0000 0.22760  0.90370  0.60700  Biso   1.000  H
  H24      1.0000 0.22760  0.09630  0.60700  Biso   1.000  H
  H25      1.0000 0.72760  0.40370  0.60700  Biso   1.000  H
  H26      1.0000 0.72760  0.59630  0.60700  Biso   1.000  H
  C27      1.0000 0.10640  0.94380  0.78230  Biso   1.000  C
  C28      1.0000 0.10640  0.05620  0.78230  Biso   1.000  C
  C29      1.0000 0.60640  0.44380  0.78230  Biso   1.000  C
  C30      1.0000 0.60640  0.55620  0.78230  Biso   1.000  C
  H27      1.0000 0.07430  0.90560  0.82980  Biso   1.000  H
  H28      1.0000 0.07430  0.09440  0.82980  Biso   1.000  H
  H29      1.0000 0.57430  0.40560  0.82980  Biso   1.000  H
  H30      1.0000 0.57430  0.59440  0.82980  Biso   1.000  H
