data_image0
_cell_length_a       18.92
_cell_length_b       15.464
_cell_length_c       19.388
_cell_angle_alpha    90
_cell_angle_beta     101.707
_cell_angle_gamma    90

_symmetry_space_group_name_H-M    "P 1"
_symmetry_int_tables_number       1

loop_
  _symmetry_equiv_pos_as_xyz
  'x, y, z'

loop_
  _atom_site_label
  _atom_site_occupancy
  _atom_site_fract_x
  _atom_site_fract_y
  _atom_site_fract_z
  _atom_site_thermal_displace_type
  _atom_site_B_iso_or_equiv
  _atom_site_type_symbol
  Tb1      1.0000 0.75000  0.59185  0.00000  Biso   1.000  Tb
  Tb2      1.0000 0.25000  0.09185  0.50000  Biso   1.000  Tb
  Tb3      1.0000 0.25000  0.40815  0.00000  Biso   1.000  Tb
  Tb4      1.0000 0.75000  0.90815  0.50000  Biso   1.000  Tb
  O1       1.0000 0.87580  0.63060  0.07120  Biso   1.000  O
  O2       1.0000 0.62420  0.63060  0.92880  Biso   1.000  O
  O3       1.0000 0.37580  0.13060  0.57120  Biso   1.000  O
  O4       1.0000 0.12420  0.13060  0.42880  Biso   1.000  O
  O5       1.0000 0.12420  0.36940  0.92880  Biso   1.000  O
  O6       1.0000 0.37580  0.36940  0.07120  Biso   1.000  O
  O7       1.0000 0.62420  0.86940  0.42880  Biso   1.000  O
  O8       1.0000 0.87580  0.86940  0.57120  Biso   1.000  O
  O9       1.0000 0.80650  0.54220  0.11670  Biso   1.000  O
  O10      1.0000 0.69350  0.54220  0.88330  Biso   1.000  O
  O11      1.0000 0.30650  0.04220  0.61670  Biso   1.000  O
  O12      1.0000 0.19350  0.04220  0.38330  Biso   1.000  O
  O13      1.0000 0.19350  0.45780  0.88330  Biso   1.000  O
  O14      1.0000 0.30650  0.45780  0.11670  Biso   1.000  O
  O15      1.0000 0.69350  0.95780  0.38330  Biso   1.000  O
  O16      1.0000 0.80650  0.95780  0.61670  Biso   1.000  O
  O17      1.0000 0.77920  0.69990  0.93100  Biso   1.000  O
  O18      1.0000 0.72080  0.69990  0.06900  Biso   1.000  O
  O19      1.0000 0.27920  0.19990  0.43100  Biso   1.000  O
  O20      1.0000 0.22080  0.19990  0.56900  Biso   1.000  O
  O21      1.0000 0.22080  0.30010  0.06900  Biso   1.000  O
  O22      1.0000 0.27920  0.30010  0.93100  Biso   1.000  O
  O23      1.0000 0.72080  0.80010  0.56900  Biso   1.000  O
  O24      1.0000 0.77920  0.80010  0.43100  Biso   1.000  O
  O25      1.0000 0.67120  0.49510  0.03190  Biso   1.000  O
  O26      1.0000 0.82880  0.49510  0.96810  Biso   1.000  O
  O27      1.0000 0.17120  0.99510  0.53190  Biso   1.000  O
  O28      1.0000 0.32880  0.99510  0.46810  Biso   1.000  O
  O29      1.0000 0.32880  0.50490  0.96810  Biso   1.000  O
  O30      1.0000 0.17120  0.50490  0.03190  Biso   1.000  O
  O31      1.0000 0.82880  0.00490  0.46810  Biso   1.000  O
  O32      1.0000 0.67120  0.00490  0.53190  Biso   1.000  O
  C1       1.0000 0.86250  0.58740  0.12170  Biso   1.000  C
  C2       1.0000 0.63750  0.58740  0.87830  Biso   1.000  C
  C3       1.0000 0.36250  0.08740  0.62170  Biso   1.000  C
  C4       1.0000 0.13750  0.08740  0.37830  Biso   1.000  C
  C5       1.0000 0.13750  0.41260  0.87830  Biso   1.000  C
  C6       1.0000 0.36250  0.41260  0.12170  Biso   1.000  C
  C7       1.0000 0.63750  0.91260  0.37830  Biso   1.000  C
  C8       1.0000 0.86250  0.91260  0.62170  Biso   1.000  C
  C9       1.0000 0.79640  0.77190  0.91050  Biso   1.000  C
  C10      1.0000 0.70360  0.77190  0.08950  Biso   1.000  C
  C11      1.0000 0.29640  0.27190  0.41050  Biso   1.000  C
  C12      1.0000 0.20360  0.27190  0.58950  Biso   1.000  C
  C13      1.0000 0.20360  0.22810  0.08950  Biso   1.000  C
  C14      1.0000 0.29640  0.22810  0.91050  Biso   1.000  C
  C15      1.0000 0.70360  0.72810  0.58950  Biso   1.000  C
  C16      1.0000 0.79640  0.72810  0.41050  Biso   1.000  C
  C17      1.0000 0.61440  0.45660  0.03860  Biso   1.000  C
  C18      1.0000 0.88560  0.45660  0.96140  Biso   1.000  C
  C19      1.0000 0.11440  0.95660  0.53860  Biso   1.000  C
  C20      1.0000 0.38560  0.95660  0.46140  Biso   1.000  C
  C21      1.0000 0.38560  0.54340  0.96140  Biso   1.000  C
  C22      1.0000 0.11440  0.54340  0.03860  Biso   1.000  C
  C23      1.0000 0.88560  0.04340  0.46140  Biso   1.000  C
  C24      1.0000 0.61440  0.04340  0.53860  Biso   1.000  C
  C25      1.0000 0.91410  0.58750  0.19130  Biso   1.000  C
  C26      1.0000 0.58590  0.58750  0.80870  Biso   1.000  C
  C27      1.0000 0.41410  0.08750  0.69130  Biso   1.000  C
  C28      1.0000 0.08590  0.08750  0.30870  Biso   1.000  C
  C29      1.0000 0.08590  0.41250  0.80870  Biso   1.000  C
  C30      1.0000 0.41410  0.41250  0.19130  Biso   1.000  C
  C31      1.0000 0.58590  0.91250  0.30870  Biso   1.000  C
  C32      1.0000 0.91410  0.91250  0.69130  Biso   1.000  C
  C33      1.0000 0.74420  0.84650  0.91120  Biso   1.000  C
  C34      1.0000 0.75580  0.84650  0.08880  Biso   1.000  C
  C35      1.0000 0.24420  0.34650  0.41120  Biso   1.000  C
  C36      1.0000 0.25580  0.34650  0.58880  Biso   1.000  C
  C37      1.0000 0.25580  0.15350  0.08880  Biso   1.000  C
  C38      1.0000 0.24420  0.15350  0.91120  Biso   1.000  C
  C39      1.0000 0.75580  0.65350  0.58880  Biso   1.000  C
  C40      1.0000 0.74420  0.65350  0.41120  Biso   1.000  C
  O33      1.0000 0.85250  0.78670  0.88880  Biso   1.000  O
  O34      1.0000 0.64750  0.78670  0.11120  Biso   1.000  O
  O35      1.0000 0.35250  0.28670  0.38880  Biso   1.000  O
  O36      1.0000 0.14750  0.28670  0.61120  Biso   1.000  O
  O37      1.0000 0.14750  0.21330  0.11120  Biso   1.000  O
  O38      1.0000 0.35250  0.21330  0.88880  Biso   1.000  O
  O39      1.0000 0.64750  0.71330  0.61120  Biso   1.000  O
  O40      1.0000 0.85250  0.71330  0.38880  Biso   1.000  O
  C41      1.0000 0.60080  0.36900  0.00450  Biso   1.000  C
  C42      1.0000 0.89920  0.36900  0.99550  Biso   1.000  C
  C43      1.0000 0.10080  0.86900  0.50450  Biso   1.000  C
  C44      1.0000 0.39920  0.86900  0.49550  Biso   1.000  C
  C45      1.0000 0.39920  0.63100  0.99550  Biso   1.000  C
  C46      1.0000 0.10080  0.63100  0.00450  Biso   1.000  C
  C47      1.0000 0.89920  0.13100  0.49550  Biso   1.000  C
  C48      1.0000 0.60080  0.13100  0.50450  Biso   1.000  C
  O41      1.0000 0.57030  0.48410  0.07320  Biso   1.000  O
  O42      1.0000 0.92970  0.48410  0.92680  Biso   1.000  O
  O43      1.0000 0.07030  0.98410  0.57320  Biso   1.000  O
  O44      1.0000 0.42970  0.98410  0.42680  Biso   1.000  O
  O45      1.0000 0.42970  0.51590  0.92680  Biso   1.000  O
  O46      1.0000 0.07030  0.51590  0.07320  Biso   1.000  O
  O47      1.0000 0.92970  0.01590  0.42680  Biso   1.000  O
  O48      1.0000 0.57030  0.01590  0.57320  Biso   1.000  O
  C49      1.0000 0.98790  0.60070  0.19730  Biso   1.000  C
  C50      1.0000 0.51210  0.60070  0.80270  Biso   1.000  C
  C51      1.0000 0.48790  0.10070  0.69730  Biso   1.000  C
  C52      1.0000 0.01210  0.10070  0.30270  Biso   1.000  C
  C53      1.0000 0.01210  0.39930  0.80270  Biso   1.000  C
  C54      1.0000 0.48790  0.39930  0.19730  Biso   1.000  C
  C55      1.0000 0.51210  0.89930  0.30270  Biso   1.000  C
  C56      1.0000 0.98790  0.89930  0.69730  Biso   1.000  C
  C57      1.0000 0.88970  0.57450  0.25190  Biso   1.000  C
  C58      1.0000 0.61030  0.57450  0.74810  Biso   1.000  C
  C59      1.0000 0.38970  0.07450  0.75190  Biso   1.000  C
  C60      1.0000 0.11030  0.07450  0.24810  Biso   1.000  C
  C61      1.0000 0.11030  0.42550  0.74810  Biso   1.000  C
  C62      1.0000 0.38970  0.42550  0.25190  Biso   1.000  C
  C63      1.0000 0.61030  0.92550  0.24810  Biso   1.000  C
  C64      1.0000 0.88970  0.92550  0.75190  Biso   1.000  C
  C65      1.0000 0.76730  0.93120  0.91050  Biso   1.000  C
  C66      1.0000 0.73270  0.93120  0.08950  Biso   1.000  C
  C67      1.0000 0.26730  0.43120  0.41050  Biso   1.000  C
  C68      1.0000 0.23270  0.43120  0.58950  Biso   1.000  C
  C69      1.0000 0.23270  0.06880  0.08950  Biso   1.000  C
  C70      1.0000 0.26730  0.06880  0.91050  Biso   1.000  C
  C71      1.0000 0.73270  0.56880  0.58950  Biso   1.000  C
  C72      1.0000 0.76730  0.56880  0.41050  Biso   1.000  C
  C73      1.0000 0.67190  0.83180  0.91270  Biso   1.000  C
  C74      1.0000 0.82810  0.83180  0.08730  Biso   1.000  C
  C75      1.0000 0.17190  0.33180  0.41270  Biso   1.000  C
  C76      1.0000 0.32810  0.33180  0.58730  Biso   1.000  C
  C77      1.0000 0.32810  0.16820  0.08730  Biso   1.000  C
  C78      1.0000 0.17190  0.16820  0.91270  Biso   1.000  C
  C79      1.0000 0.82810  0.66820  0.58730  Biso   1.000  C
  C80      1.0000 0.67190  0.66820  0.41270  Biso   1.000  C
  C81      1.0000 0.65080  0.33280  0.97000  Biso   1.000  C
  C82      1.0000 0.84920  0.33280  0.03000  Biso   1.000  C
  C83      1.0000 0.15080  0.83280  0.47000  Biso   1.000  C
  C84      1.0000 0.34920  0.83280  0.53000  Biso   1.000  C
  C85      1.0000 0.34920  0.66720  0.03000  Biso   1.000  C
  C86      1.0000 0.15080  0.66720  0.97000  Biso   1.000  C
  C87      1.0000 0.84920  0.16720  0.53000  Biso   1.000  C
  C88      1.0000 0.65080  0.16720  0.47000  Biso   1.000  C
  C89      1.0000 0.54160  0.32000  0.01060  Biso   1.000  C
  C90      1.0000 0.95840  0.32000  0.98940  Biso   1.000  C
  C91      1.0000 0.04160  0.82000  0.51060  Biso   1.000  C
  C92      1.0000 0.45840  0.82000  0.48940  Biso   1.000  C
  C93      1.0000 0.45840  0.68000  0.98940  Biso   1.000  C
  C94      1.0000 0.04160  0.68000  0.01060  Biso   1.000  C
  C95      1.0000 0.95840  0.18000  0.48940  Biso   1.000  C
  C96      1.0000 0.54160  0.18000  0.51060  Biso   1.000  C
  H1       1.0000 0.00688  0.61164  0.15751  Biso   1.000  H
  H2       1.0000 0.49312  0.61164  0.84249  Biso   1.000  H
  H3       1.0000 0.50688  0.11164  0.65751  Biso   1.000  H
  H4       1.0000 0.99312  0.11164  0.34249  Biso   1.000  H
  H5       1.0000 0.99312  0.38836  0.84249  Biso   1.000  H
  H6       1.0000 0.50688  0.38836  0.15751  Biso   1.000  H
  H7       1.0000 0.49312  0.88836  0.34249  Biso   1.000  H
  H8       1.0000 0.00688  0.88836  0.65751  Biso   1.000  H
  C97      1.0000 0.03230  0.59740  0.26280  Biso   1.000  C
  C98      1.0000 0.46770  0.59740  0.73720  Biso   1.000  C
  C99      1.0000 0.53230  0.09740  0.76280  Biso   1.000  C
  C100     1.0000 0.96770  0.09740  0.23720  Biso   1.000  C
  C101     1.0000 0.96770  0.40260  0.73720  Biso   1.000  C
  C102     1.0000 0.53230  0.40260  0.26280  Biso   1.000  C
  C103     1.0000 0.46770  0.90260  0.23720  Biso   1.000  C
  C104     1.0000 0.03230  0.90260  0.76280  Biso   1.000  C
  H9       1.0000 0.84090  0.56514  0.25047  Biso   1.000  H
  H10      1.0000 0.65910  0.56514  0.74953  Biso   1.000  H
  H11      1.0000 0.34090  0.06514  0.75047  Biso   1.000  H
  H12      1.0000 0.15910  0.06514  0.24953  Biso   1.000  H
  H13      1.0000 0.15910  0.43486  0.74953  Biso   1.000  H
  H14      1.0000 0.34090  0.43486  0.25047  Biso   1.000  H
  H15      1.0000 0.65910  0.93486  0.24953  Biso   1.000  H
  H16      1.0000 0.84090  0.93486  0.75047  Biso   1.000  H
  C105     1.0000 0.93880  0.57540  0.31620  Biso   1.000  C
  C106     1.0000 0.56120  0.57540  0.68380  Biso   1.000  C
  C107     1.0000 0.43880  0.07540  0.81620  Biso   1.000  C
  C108     1.0000 0.06120  0.07540  0.18380  Biso   1.000  C
  C109     1.0000 0.06120  0.42460  0.68380  Biso   1.000  C
  C110     1.0000 0.43880  0.42460  0.31620  Biso   1.000  C
  C111     1.0000 0.56120  0.92460  0.18380  Biso   1.000  C
  C112     1.0000 0.93880  0.92460  0.81620  Biso   1.000  C
  C113     1.0000 0.71810  0.99620  0.91290  Biso   1.000  C
  C114     1.0000 0.78190  0.99620  0.08710  Biso   1.000  C
  C115     1.0000 0.21810  0.49620  0.41290  Biso   1.000  C
  C116     1.0000 0.28190  0.49620  0.58710  Biso   1.000  C
  C117     1.0000 0.28190  0.00380  0.08710  Biso   1.000  C
  C118     1.0000 0.21810  0.00380  0.91290  Biso   1.000  C
  C119     1.0000 0.78190  0.50380  0.58710  Biso   1.000  C
  C120     1.0000 0.71810  0.50380  0.41290  Biso   1.000  C
  H17      1.0000 0.81488  0.94403  0.90850  Biso   1.000  H
  H18      1.0000 0.68512  0.94403  0.09150  Biso   1.000  H
  H19      1.0000 0.31488  0.44403  0.40850  Biso   1.000  H
  H20      1.0000 0.18512  0.44403  0.59150  Biso   1.000  H
  H21      1.0000 0.18512  0.05597  0.09150  Biso   1.000  H
  H22      1.0000 0.31488  0.05597  0.90850  Biso   1.000  H
  H23      1.0000 0.68512  0.55597  0.59150  Biso   1.000  H
  H24      1.0000 0.81488  0.55597  0.40850  Biso   1.000  H
  C121     1.0000 0.62730  0.90020  0.91420  Biso   1.000  C
  C122     1.0000 0.87270  0.90020  0.08580  Biso   1.000  C
  C123     1.0000 0.12730  0.40020  0.41420  Biso   1.000  C
  C124     1.0000 0.37270  0.40020  0.58580  Biso   1.000  C
  C125     1.0000 0.37270  0.09980  0.08580  Biso   1.000  C
  C126     1.0000 0.12730  0.09980  0.91420  Biso   1.000  C
  C127     1.0000 0.87270  0.59980  0.58580  Biso   1.000  C
  C128     1.0000 0.62730  0.59980  0.41420  Biso   1.000  C
  H25      1.0000 0.65438  0.77562  0.91259  Biso   1.000  H
  H26      1.0000 0.84562  0.77562  0.08741  Biso   1.000  H
  H27      1.0000 0.15438  0.27562  0.41259  Biso   1.000  H
  H28      1.0000 0.34562  0.27562  0.58741  Biso   1.000  H
  H29      1.0000 0.34562  0.22438  0.08741  Biso   1.000  H
  H30      1.0000 0.15438  0.22438  0.91259  Biso   1.000  H
  H31      1.0000 0.84562  0.72438  0.58741  Biso   1.000  H
  H32      1.0000 0.65438  0.72438  0.41259  Biso   1.000  H
  C129     1.0000 0.64220  0.24860  0.94630  Biso   1.000  C
  C130     1.0000 0.85780  0.24860  0.05370  Biso   1.000  C
  C131     1.0000 0.14220  0.74860  0.44630  Biso   1.000  C
  C132     1.0000 0.35780  0.74860  0.55370  Biso   1.000  C
  C133     1.0000 0.35780  0.75140  0.05370  Biso   1.000  C
  C134     1.0000 0.14220  0.75140  0.94630  Biso   1.000  C
  C135     1.0000 0.85780  0.25140  0.55370  Biso   1.000  C
  C136     1.0000 0.64220  0.25140  0.44630  Biso   1.000  C
  H33      1.0000 0.69005  0.36514  0.96277  Biso   1.000  H
  H34      1.0000 0.80995  0.36514  0.03723  Biso   1.000  H
  H35      1.0000 0.19005  0.86514  0.46277  Biso   1.000  H
  H36      1.0000 0.30995  0.86514  0.53723  Biso   1.000  H
  H37      1.0000 0.30995  0.63486  0.03723  Biso   1.000  H
  H38      1.0000 0.19005  0.63486  0.96277  Biso   1.000  H
  H39      1.0000 0.80995  0.13486  0.53723  Biso   1.000  H
  H40      1.0000 0.69005  0.13486  0.46277  Biso   1.000  H
  H41      1.0000 0.50587  0.34288  0.03176  Biso   1.000  H
  H42      1.0000 0.99413  0.34288  0.96824  Biso   1.000  H
  H43      1.0000 0.00587  0.84288  0.53176  Biso   1.000  H
  H44      1.0000 0.49413  0.84288  0.46824  Biso   1.000  H
  H45      1.0000 0.49413  0.65712  0.96824  Biso   1.000  H
  H46      1.0000 0.00587  0.65712  0.03176  Biso   1.000  H
  H47      1.0000 0.99413  0.15712  0.46824  Biso   1.000  H
  H48      1.0000 0.50587  0.15712  0.53176  Biso   1.000  H
  C137     1.0000 0.53590  0.23590  0.98470  Biso   1.000  C
  C138     1.0000 0.96410  0.23590  0.01530  Biso   1.000  C
  C139     1.0000 0.03590  0.73590  0.48470  Biso   1.000  C
  C140     1.0000 0.46410  0.73590  0.51530  Biso   1.000  C
  C141     1.0000 0.46410  0.76410  0.01530  Biso   1.000  C
  C142     1.0000 0.03590  0.76410  0.98470  Biso   1.000  C
  C143     1.0000 0.96410  0.26410  0.51530  Biso   1.000  C
  C144     1.0000 0.53590  0.26410  0.48470  Biso   1.000  C
  N1       1.0000 0.00880  0.58350  0.32160  Biso   1.000  N
  N2       1.0000 0.49120  0.58350  0.67840  Biso   1.000  N
  N3       1.0000 0.50880  0.08350  0.82160  Biso   1.000  N
  N4       1.0000 0.99120  0.08350  0.17840  Biso   1.000  N
  N5       1.0000 0.99120  0.41650  0.67840  Biso   1.000  N
  N6       1.0000 0.50880  0.41650  0.32160  Biso   1.000  N
  N7       1.0000 0.49120  0.91650  0.17840  Biso   1.000  N
  N8       1.0000 0.00880  0.91650  0.82160  Biso   1.000  N
  H49      1.0000 0.08156  0.60533  0.26593  Biso   1.000  H
  H50      1.0000 0.41844  0.60533  0.73407  Biso   1.000  H
  H51      1.0000 0.58156  0.10533  0.76593  Biso   1.000  H
  H52      1.0000 0.91844  0.10533  0.23407  Biso   1.000  H
  H53      1.0000 0.91844  0.39467  0.73407  Biso   1.000  H
  H54      1.0000 0.58156  0.39467  0.26593  Biso   1.000  H
  H55      1.0000 0.41844  0.89467  0.23407  Biso   1.000  H
  H56      1.0000 0.08156  0.89467  0.76593  Biso   1.000  H
  H57      1.0000 0.92101  0.57011  0.35736  Biso   1.000  H
  H58      1.0000 0.57899  0.57011  0.64264  Biso   1.000  H
  H59      1.0000 0.42101  0.07011  0.85736  Biso   1.000  H
  H60      1.0000 0.07899  0.07011  0.14264  Biso   1.000  H
  H61      1.0000 0.07899  0.42989  0.64264  Biso   1.000  H
  H62      1.0000 0.42101  0.42989  0.35736  Biso   1.000  H
  H63      1.0000 0.57899  0.92989  0.14264  Biso   1.000  H
  H64      1.0000 0.92101  0.92989  0.85736  Biso   1.000  H
  H65      1.0000 0.73444  0.05299  0.91324  Biso   1.000  H
  H66      1.0000 0.76556  0.05299  0.08676  Biso   1.000  H
  H67      1.0000 0.23444  0.55299  0.41324  Biso   1.000  H
  H68      1.0000 0.26556  0.55299  0.58676  Biso   1.000  H
  H69      1.0000 0.26556  0.94701  0.08676  Biso   1.000  H
  H70      1.0000 0.23444  0.94701  0.91324  Biso   1.000  H
  H71      1.0000 0.76556  0.44701  0.58676  Biso   1.000  H
  H72      1.0000 0.73444  0.44701  0.41324  Biso   1.000  H
  N9       1.0000 0.64860  0.98370  0.91470  Biso   1.000  N
  N10      1.0000 0.85140  0.98370  0.08530  Biso   1.000  N
  N11      1.0000 0.14860  0.48370  0.41470  Biso   1.000  N
  N12      1.0000 0.35140  0.48370  0.58530  Biso   1.000  N
  N13      1.0000 0.35140  0.01630  0.08530  Biso   1.000  N
  N14      1.0000 0.14860  0.01630  0.91470  Biso   1.000  N
  N15      1.0000 0.85140  0.51630  0.58530  Biso   1.000  N
  N16      1.0000 0.64860  0.51630  0.41470  Biso   1.000  N
  H73      1.0000 0.57919  0.88895  0.91490  Biso   1.000  H
  H74      1.0000 0.92081  0.88895  0.08510  Biso   1.000  H
  H75      1.0000 0.07919  0.38895  0.41490  Biso   1.000  H
  H76      1.0000 0.42081  0.38895  0.58510  Biso   1.000  H
  H77      1.0000 0.42081  0.11105  0.08510  Biso   1.000  H
  H78      1.0000 0.07919  0.11105  0.91490  Biso   1.000  H
  H79      1.0000 0.92081  0.61105  0.58510  Biso   1.000  H
  H80      1.0000 0.57919  0.61105  0.41490  Biso   1.000  H
  N17      1.0000 0.58670  0.19900  0.95490  Biso   1.000  N
  N18      1.0000 0.91330  0.19900  0.04510  Biso   1.000  N
  N19      1.0000 0.08670  0.69900  0.45490  Biso   1.000  N
  N20      1.0000 0.41330  0.69900  0.54510  Biso   1.000  N
  N21      1.0000 0.41330  0.80100  0.04510  Biso   1.000  N
  N22      1.0000 0.08670  0.80100  0.95490  Biso   1.000  N
  N23      1.0000 0.91330  0.30100  0.54510  Biso   1.000  N
  N24      1.0000 0.58670  0.30100  0.45490  Biso   1.000  N
  H81      1.0000 0.67647  0.22534  0.92333  Biso   1.000  H
  H82      1.0000 0.82353  0.22534  0.07667  Biso   1.000  H
  H83      1.0000 0.17647  0.72534  0.42333  Biso   1.000  H
  H84      1.0000 0.32353  0.72534  0.57667  Biso   1.000  H
  H85      1.0000 0.32353  0.77466  0.07667  Biso   1.000  H
  H86      1.0000 0.17647  0.77466  0.92333  Biso   1.000  H
  H87      1.0000 0.82353  0.27466  0.57667  Biso   1.000  H
  H88      1.0000 0.67647  0.27466  0.42333  Biso   1.000  H
  H89      1.0000 0.49519  0.20374  0.98820  Biso   1.000  H
  H90      1.0000 0.00481  0.20374  0.01180  Biso   1.000  H
  H91      1.0000 0.99519  0.70374  0.48820  Biso   1.000  H
  H92      1.0000 0.50481  0.70374  0.51180  Biso   1.000  H
  H93      1.0000 0.50481  0.79626  0.01180  Biso   1.000  H
  H94      1.0000 0.99519  0.79626  0.98820  Biso   1.000  H
  H95      1.0000 0.00481  0.29626  0.51180  Biso   1.000  H
  H96      1.0000 0.49519  0.29626  0.48820  Biso   1.000  H
  Cu1      1.0000 0.07730  0.57749  0.41931  Biso   1.000  Cu
  Cu2      1.0000 0.42270  0.57749  0.58069  Biso   1.000  Cu
  Cu3      1.0000 0.57730  0.07749  0.91931  Biso   1.000  Cu
  Cu4      1.0000 0.92270  0.07749  0.08069  Biso   1.000  Cu
  Cu5      1.0000 0.92270  0.42251  0.58069  Biso   1.000  Cu
  Cu6      1.0000 0.57730  0.42251  0.41931  Biso   1.000  Cu
  Cu7      1.0000 0.42270  0.92251  0.08069  Biso   1.000  Cu
  Cu8      1.0000 0.07730  0.92251  0.91931  Biso   1.000  Cu
  Br1      1.0000 0.50000  0.00000  0.00000  Biso   1.000  Br
  Br2      1.0000 0.00000  0.00000  0.00000  Biso   1.000  Br
  Br3      1.0000 0.00000  0.50000  0.50000  Biso   1.000  Br
  Br4      1.0000 0.50000  0.50000  0.50000  Biso   1.000  Br
  N25      1.0000 0.10560  0.37260  0.15390  Biso   1.000  N
  N26      1.0000 0.39440  0.37260  0.84610  Biso   1.000  N
  N27      1.0000 0.60560  0.87260  0.65390  Biso   1.000  N
  N28      1.0000 0.89440  0.87260  0.34610  Biso   1.000  N
  N29      1.0000 0.89440  0.62740  0.84610  Biso   1.000  N
  N30      1.0000 0.60560  0.62740  0.15390  Biso   1.000  N
  N31      1.0000 0.39440  0.12740  0.34610  Biso   1.000  N
  N32      1.0000 0.10560  0.12740  0.65390  Biso   1.000  N
  H97      1.0000 0.09442  0.41558  0.12308  Biso   1.000  H
  H98      1.0000 0.40558  0.41558  0.87692  Biso   1.000  H
  H99      1.0000 0.59442  0.91558  0.62308  Biso   1.000  H
  H100     1.0000 0.90558  0.91558  0.37692  Biso   1.000  H
  H101     1.0000 0.90558  0.58442  0.87692  Biso   1.000  H
  H102     1.0000 0.59442  0.58442  0.12308  Biso   1.000  H
  H103     1.0000 0.40558  0.08442  0.37692  Biso   1.000  H
  H104     1.0000 0.09442  0.08442  0.62308  Biso   1.000  H
  H105     1.0000 0.11663  0.32667  0.13048  Biso   1.000  H
  H106     1.0000 0.38337  0.32667  0.86952  Biso   1.000  H
  H107     1.0000 0.61663  0.82667  0.63048  Biso   1.000  H
  H108     1.0000 0.88337  0.82667  0.36952  Biso   1.000  H
  H109     1.0000 0.88337  0.67333  0.86952  Biso   1.000  H
  H110     1.0000 0.61663  0.67333  0.13048  Biso   1.000  H
  H111     1.0000 0.38337  0.17333  0.36952  Biso   1.000  H
  H112     1.0000 0.11663  0.17333  0.63048  Biso   1.000  H
  C145     1.0000 0.04280  0.35230  0.18300  Biso   1.000  C
  C146     1.0000 0.45720  0.35230  0.81700  Biso   1.000  C
  C147     1.0000 0.54280  0.85230  0.68300  Biso   1.000  C
  C148     1.0000 0.95720  0.85230  0.31700  Biso   1.000  C
  C149     1.0000 0.95720  0.64770  0.81700  Biso   1.000  C
  C150     1.0000 0.54280  0.64770  0.18300  Biso   1.000  C
  C151     1.0000 0.45720  0.14770  0.31700  Biso   1.000  C
  C152     1.0000 0.04280  0.14770  0.68300  Biso   1.000  C
  H113     1.0000 0.05127  0.29970  0.20968  Biso   1.000  H
  H114     1.0000 0.44873  0.29970  0.79032  Biso   1.000  H
  H115     1.0000 0.55127  0.79970  0.70968  Biso   1.000  H
  H116     1.0000 0.94873  0.79970  0.29032  Biso   1.000  H
  H117     1.0000 0.94873  0.70030  0.79032  Biso   1.000  H
  H118     1.0000 0.55127  0.70030  0.20968  Biso   1.000  H
  H119     1.0000 0.44873  0.20030  0.29032  Biso   1.000  H
  H120     1.0000 0.05127  0.20030  0.70968  Biso   1.000  H
  H121     1.0000 0.00159  0.34511  0.14532  Biso   1.000  H
  H122     1.0000 0.49841  0.34511  0.85468  Biso   1.000  H
  H123     1.0000 0.50159  0.84511  0.64532  Biso   1.000  H
  H124     1.0000 0.99841  0.84511  0.35468  Biso   1.000  H
  H125     1.0000 0.99841  0.65489  0.85468  Biso   1.000  H
  H126     1.0000 0.50159  0.65489  0.14532  Biso   1.000  H
  H127     1.0000 0.49841  0.15489  0.35468  Biso   1.000  H
  H128     1.0000 0.00159  0.15489  0.64532  Biso   1.000  H
  H129     1.0000 0.03393  0.39855  0.21310  Biso   1.000  H
  H130     1.0000 0.46607  0.39855  0.78690  Biso   1.000  H
  H131     1.0000 0.53393  0.89855  0.71310  Biso   1.000  H
  H132     1.0000 0.96607  0.89855  0.28690  Biso   1.000  H
  H133     1.0000 0.96607  0.60145  0.78690  Biso   1.000  H
  H134     1.0000 0.53393  0.60145  0.21310  Biso   1.000  H
  H135     1.0000 0.46607  0.10145  0.28690  Biso   1.000  H
  H136     1.0000 0.03393  0.10145  0.71310  Biso   1.000  H
  C153     1.0000 0.16970  0.39770  0.20650  Biso   1.000  C
  C154     1.0000 0.33030  0.39770  0.79350  Biso   1.000  C
  C155     1.0000 0.66970  0.89770  0.70650  Biso   1.000  C
  C156     1.0000 0.83030  0.89770  0.29350  Biso   1.000  C
  C157     1.0000 0.83030  0.60230  0.79350  Biso   1.000  C
  C158     1.0000 0.66970  0.60230  0.20650  Biso   1.000  C
  C159     1.0000 0.33030  0.10230  0.29350  Biso   1.000  C
  C160     1.0000 0.16970  0.10230  0.70650  Biso   1.000  C
  H137     1.0000 0.15790  0.44565  0.23353  Biso   1.000  H
  H138     1.0000 0.34210  0.44565  0.76647  Biso   1.000  H
  H139     1.0000 0.65790  0.94565  0.73353  Biso   1.000  H
  H140     1.0000 0.84210  0.94565  0.26647  Biso   1.000  H
  H141     1.0000 0.84210  0.55435  0.76647  Biso   1.000  H
  H142     1.0000 0.65790  0.55435  0.23353  Biso   1.000  H
  H143     1.0000 0.34210  0.05435  0.26647  Biso   1.000  H
  H144     1.0000 0.15790  0.05435  0.73353  Biso   1.000  H
  H145     1.0000 0.20773  0.41405  0.18310  Biso   1.000  H
  H146     1.0000 0.29227  0.41405  0.81690  Biso   1.000  H
  H147     1.0000 0.70773  0.91405  0.68310  Biso   1.000  H
  H148     1.0000 0.79227  0.91405  0.31690  Biso   1.000  H
  H149     1.0000 0.79227  0.58595  0.81690  Biso   1.000  H
  H150     1.0000 0.70773  0.58595  0.18310  Biso   1.000  H
  H151     1.0000 0.29227  0.08595  0.31690  Biso   1.000  H
  H152     1.0000 0.20773  0.08595  0.68310  Biso   1.000  H
  H153     1.0000 0.18519  0.34972  0.23730  Biso   1.000  H
  H154     1.0000 0.31481  0.34972  0.76270  Biso   1.000  H
  H155     1.0000 0.68519  0.84972  0.73730  Biso   1.000  H
  H156     1.0000 0.81481  0.84972  0.26270  Biso   1.000  H
  H157     1.0000 0.81481  0.65028  0.76270  Biso   1.000  H
  H158     1.0000 0.68519  0.65028  0.23730  Biso   1.000  H
  H159     1.0000 0.31481  0.15028  0.26270  Biso   1.000  H
  H160     1.0000 0.18519  0.15028  0.73730  Biso   1.000  H
  O49      1.0000 0.21650  0.64760  0.30480  Biso   1.000  O
  O50      1.0000 0.28350  0.64760  0.69520  Biso   1.000  O
  O51      1.0000 0.71650  0.14760  0.80480  Biso   1.000  O
  O52      1.0000 0.78350  0.14760  0.19520  Biso   1.000  O
  O53      1.0000 0.78350  0.35240  0.69520  Biso   1.000  O
  O54      1.0000 0.71650  0.35240  0.30480  Biso   1.000  O
  O55      1.0000 0.28350  0.85240  0.19520  Biso   1.000  O
  O56      1.0000 0.21650  0.85240  0.80480  Biso   1.000  O
  C161     1.0000 0.25870  0.64360  0.26370  Biso   1.000  C
  C162     1.0000 0.24130  0.64360  0.73630  Biso   1.000  C
  C163     1.0000 0.75870  0.14360  0.76370  Biso   1.000  C
  C164     1.0000 0.74130  0.14360  0.23630  Biso   1.000  C
  C165     1.0000 0.74130  0.35640  0.73630  Biso   1.000  C
  C166     1.0000 0.75870  0.35640  0.26370  Biso   1.000  C
  C167     1.0000 0.24130  0.85640  0.23630  Biso   1.000  C
  C168     1.0000 0.25870  0.85640  0.76370  Biso   1.000  C
  N33      1.0000 0.32900  0.64820  0.28650  Biso   1.000  N
  N34      1.0000 0.17100  0.64820  0.71350  Biso   1.000  N
  N35      1.0000 0.82900  0.14820  0.78650  Biso   1.000  N
  N36      1.0000 0.67100  0.14820  0.21350  Biso   1.000  N
  N37      1.0000 0.67100  0.35180  0.71350  Biso   1.000  N
  N38      1.0000 0.82900  0.35180  0.28650  Biso   1.000  N
  N39      1.0000 0.17100  0.85180  0.21350  Biso   1.000  N
  N40      1.0000 0.32900  0.85180  0.78650  Biso   1.000  N
  C169     1.0000 0.22970  0.63440  0.18590  Biso   1.000  C
  C170     1.0000 0.27030  0.63440  0.81410  Biso   1.000  C
  C171     1.0000 0.72970  0.13440  0.68590  Biso   1.000  C
  C172     1.0000 0.77030  0.13440  0.31410  Biso   1.000  C
  C173     1.0000 0.77030  0.36560  0.81410  Biso   1.000  C
  C174     1.0000 0.72970  0.36560  0.18590  Biso   1.000  C
  C175     1.0000 0.27030  0.86560  0.31410  Biso   1.000  C
  C176     1.0000 0.22970  0.86560  0.68590  Biso   1.000  C
  H161     1.0000 0.17800  0.63052  0.17721  Biso   1.000  H
  H162     1.0000 0.32200  0.63052  0.82279  Biso   1.000  H
  H163     1.0000 0.67800  0.13052  0.67721  Biso   1.000  H
  H164     1.0000 0.82200  0.13052  0.32279  Biso   1.000  H
  H165     1.0000 0.82200  0.36948  0.82279  Biso   1.000  H
  H166     1.0000 0.67800  0.36948  0.17721  Biso   1.000  H
  H167     1.0000 0.32200  0.86948  0.32279  Biso   1.000  H
  H168     1.0000 0.17800  0.86948  0.67721  Biso   1.000  H
  H169     1.0000 0.24904  0.58304  0.16902  Biso   1.000  H
  H170     1.0000 0.25096  0.58304  0.83098  Biso   1.000  H
  H171     1.0000 0.74904  0.08304  0.66902  Biso   1.000  H
  H172     1.0000 0.75096  0.08304  0.33098  Biso   1.000  H
  H173     1.0000 0.75096  0.41696  0.83098  Biso   1.000  H
  H174     1.0000 0.74904  0.41696  0.16902  Biso   1.000  H
  H175     1.0000 0.25096  0.91696  0.33098  Biso   1.000  H
  H176     1.0000 0.24904  0.91696  0.66902  Biso   1.000  H
  H177     1.0000 0.24350  0.68391  0.16178  Biso   1.000  H
  H178     1.0000 0.25650  0.68391  0.83822  Biso   1.000  H
  H179     1.0000 0.74350  0.18391  0.66178  Biso   1.000  H
  H180     1.0000 0.75650  0.18391  0.33822  Biso   1.000  H
  H181     1.0000 0.75650  0.31609  0.83822  Biso   1.000  H
  H182     1.0000 0.74350  0.31609  0.16178  Biso   1.000  H
  H183     1.0000 0.25650  0.81609  0.33822  Biso   1.000  H
  H184     1.0000 0.24350  0.81609  0.66178  Biso   1.000  H
  C177     1.0000 0.37950  0.65240  0.23820  Biso   1.000  C
  C178     1.0000 0.12050  0.65240  0.76180  Biso   1.000  C
  C179     1.0000 0.87950  0.15240  0.73820  Biso   1.000  C
  C180     1.0000 0.62050  0.15240  0.26180  Biso   1.000  C
  C181     1.0000 0.62050  0.34760  0.76180  Biso   1.000  C
  C182     1.0000 0.87950  0.34760  0.23820  Biso   1.000  C
  C183     1.0000 0.12050  0.84760  0.26180  Biso   1.000  C
  C184     1.0000 0.37950  0.84760  0.73820  Biso   1.000  C
  H185     1.0000 0.36478  0.61192  0.20040  Biso   1.000  H
  H186     1.0000 0.13522  0.61192  0.79960  Biso   1.000  H
  H187     1.0000 0.86478  0.11192  0.70040  Biso   1.000  H
  H188     1.0000 0.63522  0.11192  0.29960  Biso   1.000  H
  H189     1.0000 0.63522  0.38808  0.79960  Biso   1.000  H
  H190     1.0000 0.86478  0.38808  0.20040  Biso   1.000  H
  H191     1.0000 0.13522  0.88808  0.29960  Biso   1.000  H
  H192     1.0000 0.36478  0.88808  0.70040  Biso   1.000  H
  H193     1.0000 0.42717  0.63812  0.26322  Biso   1.000  H
  H194     1.0000 0.07283  0.63812  0.73678  Biso   1.000  H
  H195     1.0000 0.92717  0.13812  0.76322  Biso   1.000  H
  H196     1.0000 0.57283  0.13812  0.23678  Biso   1.000  H
  H197     1.0000 0.57283  0.36188  0.73678  Biso   1.000  H
  H198     1.0000 0.92717  0.36188  0.26322  Biso   1.000  H
  H199     1.0000 0.07283  0.86188  0.23678  Biso   1.000  H
  H200     1.0000 0.42717  0.86188  0.76322  Biso   1.000  H
  H201     1.0000 0.37939  0.70975  0.21927  Biso   1.000  H
  H202     1.0000 0.12061  0.70975  0.78073  Biso   1.000  H
  H203     1.0000 0.87939  0.20975  0.71927  Biso   1.000  H
  H204     1.0000 0.62061  0.20975  0.28073  Biso   1.000  H
  H205     1.0000 0.62061  0.29025  0.78073  Biso   1.000  H
  H206     1.0000 0.87939  0.29025  0.21927  Biso   1.000  H
  H207     1.0000 0.12061  0.79025  0.28073  Biso   1.000  H
  H208     1.0000 0.37939  0.79025  0.71927  Biso   1.000  H
  C185     1.0000 0.35990  0.65830  0.36200  Biso   1.000  C
  C186     1.0000 0.14010  0.65830  0.63800  Biso   1.000  C
  C187     1.0000 0.85990  0.15830  0.86200  Biso   1.000  C
  C188     1.0000 0.64010  0.15830  0.13800  Biso   1.000  C
  C189     1.0000 0.64010  0.34170  0.63800  Biso   1.000  C
  C190     1.0000 0.85990  0.34170  0.36200  Biso   1.000  C
  C191     1.0000 0.14010  0.84170  0.13800  Biso   1.000  C
  C192     1.0000 0.35990  0.84170  0.86200  Biso   1.000  C
  H209     1.0000 0.32182  0.65665  0.38809  Biso   1.000  H
  H210     1.0000 0.17818  0.65665  0.61191  Biso   1.000  H
  H211     1.0000 0.82182  0.15665  0.88809  Biso   1.000  H
  H212     1.0000 0.67818  0.15665  0.11191  Biso   1.000  H
  H213     1.0000 0.67818  0.34335  0.61191  Biso   1.000  H
  H214     1.0000 0.82182  0.34335  0.38809  Biso   1.000  H
  H215     1.0000 0.17818  0.84335  0.11191  Biso   1.000  H
  H216     1.0000 0.32182  0.84335  0.88809  Biso   1.000  H
  H217     1.0000 0.38462  0.71271  0.36989  Biso   1.000  H
  H218     1.0000 0.11538  0.71271  0.63011  Biso   1.000  H
  H219     1.0000 0.88462  0.21271  0.86989  Biso   1.000  H
  H220     1.0000 0.61538  0.21271  0.13011  Biso   1.000  H
  H221     1.0000 0.61538  0.28729  0.63011  Biso   1.000  H
  H222     1.0000 0.88462  0.28729  0.36989  Biso   1.000  H
  H223     1.0000 0.11538  0.78729  0.13011  Biso   1.000  H
  H224     1.0000 0.38462  0.78729  0.86989  Biso   1.000  H
  H225     1.0000 0.39327  0.61213  0.37741  Biso   1.000  H
  H226     1.0000 0.10673  0.61213  0.62259  Biso   1.000  H
  H227     1.0000 0.89327  0.11213  0.87741  Biso   1.000  H
  H228     1.0000 0.60673  0.11213  0.12259  Biso   1.000  H
  H229     1.0000 0.60673  0.38787  0.62259  Biso   1.000  H
  H230     1.0000 0.89327  0.38787  0.37741  Biso   1.000  H
  H231     1.0000 0.10673  0.88787  0.12259  Biso   1.000  H
  H232     1.0000 0.39327  0.88787  0.87741  Biso   1.000  H
